# total energy = -340867.8889201124 ev
CRYSTAL
PRIMVEC
9.24407548914352 0.00000000000000 0.00000000000000
0.00000000000000 9.24407548914352 0.00000000000000
0.00000000000000 0.00000000000000 13.52963888383159
PRIMCOORD
 96 1
Ni 1.855951520493186 8.738174952837824 9.731611709125799 -1.2158803413990544 0.3016706192374675 -0.15298783718536232
Ni 7.015633929544235 8.228955811434203 10.1169907446651 0.3901929297495925 -0.20785723552973237 0.20375658309779748
Ni 4.5901826515000765 6.039256190130715 1.5879334183204767 -0.9807267320472143 -0.2354261462869365 1.0183730816450782
Ni 2.1819530860586664 5.820587584860725 6.8750592738544976 -0.5501209456982138 1.7115862026814974 -0.785024643822777
Ni 3.5617700112594686 4.985607223853874 5.272256760138681 -0.676713580719499 0.01605448235970138 0.5370211750914623
Ni 0.6463910529124279 2.1326729197219803 0.13396421732031957 0.16258010885948773 0.11861090236738928 0.28343866961047315
Ni 6.237550853062295 7.642197364978599 7.705670884793684 -0.34173200603472753 0.04546430298038621 3.3568104329979933
Ni 1.1880578236273223 6.0352627495271784 3.7148195467975187 -2.0044142839266708 -0.08059122859050637 2.367767981996232
Ni 7.5693078298886025 8.480219026815456 3.879921507934851 -0.5583911561268061 0.19499349219318676 -1.4699747535194556
Ni 6.127842165370719 0.3227236164034119 12.372759622175971 -2.60091870198543 -0.19277205906183575 -0.2529870379888353
Ni 6.015730018056645 1.5067473254951256 2.605389055905134 0.030001688568412843 -0.8742851180525072 1.4516533295024485
Ni 7.965231582317841 3.7065507212885778 9.357788692332978 -1.0881343094996163 -1.439905444937901 -1.8134252849071866
Ni 4.723888959114752 8.013051184730086 10.784150461938554 -0.2145135645039854 0.14565685074158785 0.7366951034794538
Ni 6.233307822421039 3.4728420052270317 1.6406449854720528 -0.6173267541207497 2.379030699394245 -0.4016014286968503
Ni 2.7740915844384784 7.940605365262705 2.246366728349168 -0.1816317261743001 -0.6453312097534757 -0.19011533816527904
Ni 2.111134223874207 5.227080963311184 1.914890821289674 0.200516478893945 -0.005120351945700858 -2.1534143401088786
Ni 6.494027727009277 7.444596007707354 1.108441374816972 3.523115556117552 0.0009261113586951791 0.3698544753025566
Ni 4.394679699360783 3.3571801329320365 7.365860519289404 0.3838939841147582 -0.045317235879560665 -0.3598166314505803
Ni 5.727777067130406 0.2521524954415792 4.938899683720807 -1.5294142877330112 0.6958780694630918 -1.0344555890292377
Ni 7.782938414026816 0.39682689860277 8.235910129411147 -0.2759421041231118 2.186414449183983 1.588948181432586
Ni 7.943655910168183 3.688238207780235 6.755484384412566 0.8850050755731727 0.018697576409503282 -1.0210020346274933
Ni 2.667803204671227 6.7034615008835905 13.362074445211363 -1.0843725284643388 -1.1671975314813705 -0.5492508843884347
Ni 5.167604581729822 7.6069589492825855 3.6497957955259217 -0.45652841975203307 -1.6848973805364016 0.21885075842675858
Ni 6.055192976242973 4.993048704608148 8.262252971281274 3.504889005807196 -1.291261743653847 1.2746007380583984
P 0.9325423335293397 7.180677653006098 0.9338429749481302 -1.3455279611965794 -1.336341152490989 0.8986864297150071
P 0.25827114899593157 1.5089474154572584 6.768445502630661 0.30628112142628544 0.6372700300118961 0.3227256401355539
P 8.624482068618182 0.5940889983042237 10.672963646579142 0.46758467756619476 -0.3029278886833364 -0.5589138613994955
P 3.713529998269294 4.2675736616325075 0.8178963851286238 0.10991028926959781 -2.385507822478156 -0.7992251036928752
P 1.7675781589890176 5.38956407786754 11.51120624181976 0.043197875543712703 0.5285637883527284 -1.680025911376713
P 3.679447092007174 0.31222419548328284 3.493785382614463 0.1757053333875361 0.2977777119409646 -0.23307178712214696
P 7.9637802624688705 6.451218413502395 8.9098623933408 -0.0010040157844821418 -0.7352614563567209 0.9893352996518318
P 5.392032246018337 2.692993310330103 12.089963940955087 -0.05497918444935693 -0.18671865377890423 -0.011630642260392872
Ni 1.4357805581031278 0.8313400440863133 11.465936155422458 -0.8614152040683746 -0.31171077708228895 1.8491654186212734
Ni 1.3910946972756018 9.137685406549867 0.34744689625099534 0.8064758717180175 -0.5460891988310015 -1.99894657594388
Ni 4.230606603823389 8.501249298512317 6.733755260610088 -1.8405846189307977 -2.2996324626705746 -0.9530210386018297
Ni 7.643759613733223 3.8029294521507593 3.643558817805539 -1.0804945335661713 0.5711222305402293 0.7266397761259809
Ni 7.920739847075209 6.307177229510977 6.681665819737719 -0.5734362233853866 -0.9066434797785546 0.913342489065285
Ni 4.497085567430153 4.937806109592572 12.420181729342957 0.4813573058702549 0.13351301629020232 -0.2910871872946664
Ni 4.951163798648379 4.000549297572946 3.492080775097583 -0.34929773419712745 0.34506004196669604 -0.25588904212697866
Ni 8.177336894003316 -0.04871720214049339 12.92807064828628 2.7357990309368043 -1.096197546123725 -0.6668623989570321
Ni 0.5732436081167864 7.144579538291268 5.746943733212283 0.15376122501627712 2.536179352825516 -1.0504817892541651
Ni 3.4779724671135184 1.9904528185983794 1.8926745347098657 0.8583933865229153 0.7186230764690914 0.2887073742085802
Ni 3.0226740179331006 3.0708541392887203 12.41466116747159 1.7081769198896324 -1.2145068580902956 0.5405829243007916
Ni 7.915951415981154 6.0183923117923355 4.2538536048182305 -0.057012412829301806 0.9294669054309733 -0.45060202696526913
Ni 0.3807533001735391 2.7361169224030055 4.777681158688905 -0.08894937074721454 1.9084298607095456 0.5004598310276607
Ni 1.0447284334471834 6.218258467554011 9.369545307517184 0.15202495905146077 1.0019550452983712 1.4239095837302769
Ni 4.803545157449627 7.316232775715003 13.225100356917638 0.5658275578001932 1.5296469725691075 -2.290985585628855
Ni 8.730363709064704 4.992900799400609 1.6266004616087386 -0.10155857487079285 0.21714560281019377 0.44359757062297794
Ni 1.398406760973279 4.492260160034213 13.393570859156656 -1.2493401637193966 -0.2938272119336488 -0.040023591580789136
Ni 3.885497534259047 0.7412629994728127 13.535727176159506 -0.565605157376742 -0.34908870351011495 -2.1983847341719818
Ni 2.0165673318043704 3.2218191358080266 6.699782358846074 0.045909103827288675 -0.8266158370010022 -0.5486420471598422
Ni 7.8529807738717 -0.28957990820916035 6.096266252376374 1.1536012808541745 0.6379703985130303 0.6434265365315951
Ni 1.4154435920666038 0.820789780751093 2.378794580326183 -0.06445781336375352 1.234281212503745 1.4509676162893332
Ni 8.77407894196776 5.047625726189802 10.835738873920386 2.03925170332083 1.304455616636302 0.9476448618915807
Ni 3.085256408872768 7.314827676243388 8.753649535176523 1.1316026650958961 -0.11002470336027503 -2.118542725042674
Ni 0.6751244126993952 4.45830667082869 8.107229825630135 -1.7616880044338952 -1.1871827163540458 -0.4593826013713766
P 7.67161201312779 0.13098762501861014 1.4376192047143388 -0.45884601214161624 0.21518693642192618 1.3397411793114733
P 1.8611189586815573 8.412108678744044 7.0362103171354615 2.324342820933061 0.23516543642638207 -0.5935515060780229
P 6.5112217073856105 2.6289780876924076 7.888333816103555 -0.2832188402901832 0.8471921184904571 1.1507208739825858
P 2.6353842319939127 2.5778675944124343 9.65657662411895 -0.40722443131058256 1.1282818282527796 -1.0625891140406603
P 3.774688801586404 2.850040908509424 5.158350337775657 0.5383180395260149 -0.23758407317020372 0.8788403415233574
P 6.353175749055406 7.586030362415907 5.712673172218098 -0.8855951437486878 -1.6504646527798288 -3.4190681533866343
P 0.27707267409669806 5.087486179621389 5.7020387877960905 0.4437448948341196 -2.0343768917270317 0.1966785932050935
P 6.459676742558495 5.783879361164799 2.528825000815357 1.8576940249175748 -1.613719989060627 0.7302400918827294
Ni 5.6141858677409475 0.8741789386347041 7.177865605247776 1.1587643131123528 1.2517629142282765 0.4566310067681685
Ni 9.32810411718003 7.996134526617887 8.064557324440225 -0.19297234799809992 -0.39231229008544044 0.2921572804303936
Ni 5.811186360106568 5.3535491598319505 5.420203566016657 1.0249232240587705 0.5996391070329995 0.5640182725055964
Ni 7.226103039871316 2.115081444100387 0.1383597752068501 -0.17118919068473742 -0.10679154113495802 -1.3424053564071978
Ni 1.11197908249978 3.0784157930241185 11.201012045309943 -1.1129894208700832 1.4869437772736265 -0.5087076728587496
Ni 6.790771793708577 5.1922492869359 0.07312156138432227 -0.9594133152814186 -0.2694492973099166 -0.47765234621484187
Ni 8.277339302450187 2.116625204704069 2.3016083989571974 1.6041038061271018 -1.0063372335264669 -0.5179865270575144
Ni 6.718002431599706 1.6733532977116135 10.463173051391642 -0.2958401285986196 0.34486772345023187 -0.6503721146114928
Ni 2.7112041390082635 7.948730907601844 4.7788717956095885 -0.30937158742615106 -0.3639003146016507 -0.10409085437434332
Ni 0.19495385405630813 7.95603372722405 2.798618889886073 0.38681218620281765 0.1899880685587954 -0.5068562214723078
Ni 9.25405907265614 7.546826238342772 11.038142528398891 -0.22187231886190178 1.2115153795621394 -0.0464624052275974
Ni 3.6094509525396465 0.952324655037595 10.574576178117079 1.9421853598934355 0.2700511925599736 0.540949563611591
Ni 5.945308651117445 2.5599803083757644 5.288857270869768 -0.2993964784913101 1.608386492662856 1.136276930643114
Ni 2.60877053871248 1.0751044654453734 5.4895156438993205 -0.05933720430773652 -0.47313414662951414 0.16707953939173806
Ni 4.8208408226561446 3.427878822135371 10.045960193152352 -0.7458425743066768 -0.6856679616993094 -0.16236824995899776
Ni 2.447442933590017 3.431668893078541 3.5251745652842907 -0.10594821929805626 0.37455856564644524 0.5158190870925504
Ni 5.000453209060536 8.945695203089608 1.6737378512512129 -1.0039548493372195 0.8106549427963716 0.2595176400185014
Ni 0.34124689483249687 0.48833492609920426 4.680564750604126 0.030020714731806362 -1.4471533847495657 -0.3586213255908985
Ni 8.694977388161151 6.29503975841736 13.012969161820843 1.142678977514716 0.5797521383010854 0.4406078918670347
Ni 0.33856703735341126 1.986856873240103 9.080146583187258 1.128590874852766 -0.5347146384454727 -0.40141836615176674
Ni 4.548584311879914 5.971386188021551 9.87194139681555 1.1549660224121852 -1.4630248045641836 0.9266605463304299
Ni 3.383035812024836 1.0115791788076491 8.034562148351446 -1.4010995278142966 0.6346009678201652 1.0630218307027048
Ni 2.8505770648867506 4.884070298878791 8.73753526281522 1.423682298210819 -2.8046215490271567 1.4592149438997901
Ni 6.60821979130436 4.715402897832238 10.968329421625693 -1.7399020189070549 0.49574211383701716 0.953051634729449
P 8.614905206430073 3.6214959828785513 12.641202027412808 -1.0926000585804538 0.9242663350666405 -0.04811151079524617
P 7.6510624333554285 1.704385659068255 4.45660853416464 0.25933226348057276 -1.227528467160944 -0.638069643095056
P 5.1931644504075445 9.245739404732108 9.100860707503005 -0.1144256606414481 0.07453525220441357 0.09228794820214427
P 3.018523428046555 8.41739628991354 12.080045972382093 -0.16773131404312405 1.2633575610444112 0.021385407654311555
P 4.5323609594280505 5.897073065308998 7.476424283962062 -3.394109169448451 1.182384266524138 -1.535205954714124
P 0.917428270134014 3.3039435022936994 2.050444095183484 -0.4705622721372799 -0.8992605570509222 -0.11344169946162398
P 3.2487841039573633 6.013123188773781 3.4775500128644867 2.308422035937747 1.202820937111935 0.5486243065480293
P 6.835938346460602 7.206145080929109 12.1652828190789 -0.47808249177372497 -0.10981772955579151 0.19626593114770716
