# total energy = -381171.53897772724 ev
CRYSTAL
PRIMVEC
9.22307786817062 0.00000000000000 0.00000000000000

0.00000000000000 9.22307786817062 0.00000000000000

0.00000000000000 0.00000000000000 13.49890674306165

PRIMCOORD
 96 1
Ni 5.5478288175346915 0.11204471506004278 8.648479055285975 0.3371688121440774 -0.11214637768896815 1.6224560833820447
Ni 8.597836057835863 8.483266986403988 10.31216548356612 -0.6807880078991888 -0.7630869632094213 -1.9009093839627842
Ni 1.2231184517741227 0.4383369140056715 6.573413846866542 0.6585693057103046 1.4618518673020051 -0.37119144894642525
Ni 1.853515813903303 2.6185055491934364 7.601112805611706 0.21960614853554436 -0.33243001190751137 -2.6312242949475073
Ni 6.012791834608844 4.512602905062627 8.158712415300716 1.2981826391433964 1.6046383384743332 -0.03696089349506537
Ni 9.166964514674273 7.621019896561518 3.3773185893348074 -0.399429360746196 -1.5153246424091646 0.6992685832018796
Ni 1.8152031490564178 3.4776167926112698 3.1426401436849414 0.9048874163193964 0.05068544217000948 1.0563030239216324
Ni 5.457239748173568 1.9514095608182864 1.777468771182546 0.4279819755729081 0.7899583336789686 0.22595780178518504
Ni 3.6159998507149456 1.7414646426888567 6.361292282395305 0.005315498675642458 -0.09418130857011522 -0.91799104358089
Ni 5.782316345475764 5.547155532861166 5.144824591964729 0.45945073560515065 -0.08804562798602256 -0.8543768091643543
Ni 7.814427836339849 4.822203177951469 6.314721273758362 -0.6774669139457559 -0.29642042658212175 0.06481159715874643
Ni 6.785575070571972 3.1166900922133 4.70193885602779 -1.7171487843709397 0.6574483047319839 0.805416834325884
Ni 0.5674775259266163 5.560362980155519 9.380768368521549 2.5034345542943273 -1.7894294362132213 0.5508956190807093
Ni 3.930174770152669 7.354279265835285 4.8031003393787985 1.225820997551534 0.7698502500751838 0.8382451937098144
Ni 5.700111053761683 5.944919205670898 0.9521601076067531 -0.3402258538028463 0.700077195146104 -0.24858299538386863
Ni 4.202532255210089 8.142179126180705 10.81144941745015 0.23067294787266726 0.06975762831011212 0.37712504082204085
Ni 5.8120884403543736 4.439842044933335 2.9046543023648552 0.011554537606818809 0.4526553099498721 -0.06271460542040166
Ni 2.5842787077762983 3.9253418774276403 5.587602417892349 0.5035029887293586 -0.4606797229162453 -0.4036855649193886
Ni 4.136218326406742 3.262313266326799 8.27397967371596 -1.3045224653184953 -0.6405065346713228 0.9880137526269307
Ni 3.394968793166653 6.802969795150987 1.7178710875745529 0.0972550623994325 -0.3681914857778369 -0.9758881730079901
Ni 8.45308907610572 2.2603918874999205 3.4453802913660043 -0.055919436875439175 -0.026823290840431228 -2.061267802580605
Ni 3.8790696965088096 5.4519918169511605 12.810880777030663 1.1143878438795065 0.9434279955967558 -0.9951249097504153
Ni 6.710462325624203 7.7763734176691095 4.876209831845888 0.7001142190316265 1.0486871592475875 -0.2685095591044666
Ni 1.5487576568172092 5.895594186026906 4.826614576024715 -0.4639018293979688 0.823810249231407 -0.22764367412804018
P 4.7548470413658155 7.869360487237309 7.113397378111269 -0.6898573171903086 -2.004118607063123 0.4674723203580466
Ni 7.721837359113589 1.7541279283977573 0.9511298898254826 0.7395569984082812 -1.2699622108451225 0.5669135917755204
P 7.563071299249774 6.040497960078282 3.7514536593349015 -0.12373948184320624 -0.5983278444207437 -0.31360696566373736
Ni 6.85840971532302 6.9423581687260905 7.10734980605058 -0.5208417371181224 0.14250390693490297 0.26511390315935635
P 0.11990831112370538 3.7900577734377237 10.964851335312291 0.6928359402026584 0.3702648233670978 -2.1972884157840094
P 8.395933663477853 0.6022393058514864 4.666504713737166 -0.5219519394631656 -1.8236371924431818 0.7942996413667998
P 5.077811553870242 3.655068807934831 6.173846140054872 0.3456475390390499 -0.4808811375647847 0.24202976764638318
Ni 2.747794652665666 4.701602213691028 1.306414833582422 0.09952431804958344 1.0704456339706017 0.7281492707919718
Ni 0.7571491969207695 5.436847523335709 2.23784884093787 -0.6399560614844914 1.1851800841017202 0.31630868086561653
Ni 2.5105033090978592 7.343580495680642 6.460914434074926 -1.516193161057047 0.9291871694070256 1.7335508798780466
Ni 0.7483808169328221 8.187704237804255 8.185763702252068 -0.2419480065658543 -0.8020741431058961 1.4030484240105514
Ni 7.562462576120286 4.886561814278278 10.174166105495576 1.0641973390680446 -0.12965173356258317 -0.9271814518309065
Ni 3.0830350816147725 1.475102158149124 2.4404669461269135 0.3976383302840442 -0.10453848343472319 2.117599387292798
Ni 7.82285772937549 0.23545502879384986 6.958835197072012 0.22568372218819194 0.2972629770880751 0.09866197004928814
Ni 5.476230065198059 0.36782371791662655 6.362696034824215 0.7194694836297867 0.3154532748438567 -2.3364277771220534
Ni 1.8082581715336192 6.339002870470542 13.198137519702316 -0.09137237836641038 2.2025910589438458 1.6027074400002075
Ni 2.536955095997442 8.230628441510902 3.122688781962076 -0.4187887391094142 0.6493590999659462 0.9414775567386044
Ni 4.26552587603441 3.006594213475392 4.24236857249624 0.45556348473560254 -0.6886355289680657 -1.0909622658667146
Ni 9.071902252619182 4.295602332477764 4.336307463685093 -0.2501071453378789 1.0662434229637958 -0.4760628902405349
Ni 0.11385704983192842 6.097948511193172 11.501014667765595 -0.07795404807797542 -0.33673712392329747 1.3469042727188159
Ni 3.63434455229907 7.0954335896369605 8.81062814005731 -0.11880064978069216 -1.1833306895978073 -0.21367487065277393
Ni 2.799729803304282 9.147393143753453 0.8163060174137698 -1.7201482333188953 0.9105880662485996 -0.4210567092079845
Ni 0.4212382502214537 3.0724746576259223 1.430074170414656 0.4070871344017699 0.3547996378519631 -0.9688145539906605
Ni 6.1754223640371375 2.7298649895789193 12.442779444474677 0.07013738024703405 -0.5837620307914269 -0.07887244612718673
Ni 4.265738006821959 7.891292966054327 13.377862101375968 2.055031848973222 -0.9597930672183405 -2.121206645028082
Ni 4.912607785758202 9.000506407992379 1.9439776047918975 0.2562983617502554 0.19889642679201874 -0.8066213961569462
Ni 4.8497340649442355 3.794835327696435 0.569593299955474 1.139285635562451 0.3047410306326752 0.04243451501512692
Ni 5.3804207338476875 4.648117585995532 10.5485040832055 -0.7451576324245103 2.354330111323771 0.8361060358796246
Ni 0.4650847617000509 6.089168141204188 7.159927805206247 -0.1856362193480029 0.69251506652813 -1.1721021678718395
Ni 1.6815791990560145 1.9732129165472314 11.992860189468834 -0.40775305012054286 -1.322255106711568 0.160567192194517
Ni 6.1769718410940175 7.036267546066241 9.692727904691047 0.27409296672951505 -0.1430831764771407 0.2992692088848265
Ni 2.419563762783394 4.79969886831584 7.938572307060129 -1.2966651740576056 1.5358399887536969 1.1331211586229517
P 6.758496114387462 0.11190083504761826 0.1320320467860142 -1.3684760853523206 -1.2048479948442927 -0.5681626336912731
Ni 3.6111208426013195 1.205825181050023 10.453107945736964 -0.42118629280731334 -0.10575281545779854 -0.40131397936341856
P 7.521788803377205 1.159091846245216 9.671507447473973 -0.6288021017502009 0.1219181123637513 -1.8528238413094669
Ni 7.8588000632484585 7.507963409875644 12.453766896961941 -1.844956008525616 1.3331882086843039 -0.12224901334060882
P 5.674646136178088 6.590451638337811 11.9232739126906 0.055638415299910635 0.46980559647691345 -0.022434160633800073
P 0.8879960782198255 1.1105231189742244 0.5125633211845951 0.10719597566222828 -0.32831856084229905 -1.2290983827512252
P 2.8179269356448944 0.12263373058982349 5.008108144004971 0.6149510547997216 -0.48417549204534027 0.45339501632937396
Ni 5.74129209577934 2.557992936275667 10.032414779408734 0.8287645079128888 -1.9014685989003641 -0.4630286827643961
Ni 4.388404940491572 1.2378938222807934 12.912257158092535 0.20039383727315163 -0.6189645468344889 0.2029492567051537
Ni 8.706972736490942 2.458512819992926 5.950250144592781 -0.36301071290784576 -1.4003171411223172 0.6692308991892087
Ni 5.248337037826444 7.160908218367831 3.060647905066182 1.7550982670315192 -1.657683539125771 -0.24398843403465081
Ni 1.8854830012791588 4.236159596575459 12.258262551617962 -1.2707723654512435 0.42310099333152296 -0.094630737402708
Ni 8.365930991656256 3.3479403198748208 8.265231584498995 -0.026213168060258082 -0.03278542196113709 0.37742843099507256
Ni 7.308145431082246 3.94531906376812 1.1763380792729459 0.0393982992919644 1.0610045431623598 0.24871515008635875
Ni 2.917379382694477 2.7367085132468025 0.611315736635266 -1.3346048865261726 -2.59384379741652 -1.4501985993337927
Ni 6.098787811265647 2.246114563190104 7.6289342195526375 1.3487603520909481 -0.4902906038041427 -0.8100571613113726
Ni 8.496963256817475 3.1082694222553786 12.682169038223673 1.358031492980229 0.11171057570313019 1.012807671742159
Ni 0.5787453599765536 1.4253436538523145 8.800314894551342 -1.8407530261878622 -2.5142491284113277 1.6114792726555667
Ni 7.920926714767145 6.837500998132869 1.1259394933824018 0.2061299684259805 -0.8434290519035991 1.263718801038572
Ni 0.8847763017879411 8.733784223421585 11.99211773171241 0.8991140041707291 -0.15773152251793482 1.98586994526558
Ni 7.050664770386411 4.909287477779174 12.492589598006717 -0.3483202007752066 1.8147044087299264 0.5082790699617633
Ni 1.3914949586216767 1.6310828485416433 4.556339661916362 0.4643152627863036 0.9904120776557781 -0.025315595946653176
Ni 3.892397043813516 3.33662360351297 11.637258894146115 -0.13720332065759597 -1.3112836953017288 -0.1543212112848052
Ni 0.07700070895695522 7.970703665219393 5.677734944906356 -0.5750164233883129 -0.8309769421831753 -0.22899401750834755
Ni 2.4013020688987443 6.795748125296603 11.028606782356245 -0.9245059618812722 -0.037753307489373694 -0.6320483766016405
Ni 1.8378734740909974 3.19679252220733 9.695738317258696 0.5172668752826705 0.8632787396396745 2.6497331523849725
Ni 0.8513103642826635 7.9603184797072135 1.3146086158284433 -0.15168737320638392 -1.5102379719148764 -2.1172936831269213
Ni 3.5247651659134553 5.293308764786822 3.717720252575758 0.223466402821899 -0.2515770450151861 -0.5847403355442963
Ni 4.095443099808745 5.52520460788871 6.7643832048958314 1.2434713636434456 1.233276939608947 -0.4099688268249391
Ni 5.977033962290266 0.949414397369652 3.9152232388615555 -0.2553781639288311 0.21810848094409535 0.9124878543744737
Ni 7.996223921269304 1.0507852445848944 11.705401759261242 1.3843025108616158 0.23790597528599675 1.9903997148151333
Ni 0.7706499380866028 0.46196736143085326 2.6273191222622096 -0.5705211066211207 2.286033383829902 0.22882535314096722
P 0.6929408967607884 4.0923441456949865 6.498738275802677 -0.3872708710067911 0.5381331772087183 0.175233278847124
Ni 3.0156697219513995 0.1257723439377761 8.129068521202408 0.16204557651225643 0.3568102405240887 0.5663284086960119
P 0.14037708750663574 5.148829252310543 0.147095177317534 -1.642172330864049 -0.45514876579568714 0.6073043368877412
Ni 5.94394155943263 0.25097470167248587 11.22397647076552 0.06945578079897716 0.19425044337957514 0.34044311201997496
P 8.204481016176063 6.568353144121842 8.761424865039215 -2.0596161259097947 1.8231911060446988 -0.025924433175245672
P 1.7832636309137204 8.976461844377592 10.07223633977053 0.7755419011433224 0.13861691317567093 -0.3271510228967592
P 3.3219220176280557 5.090760754988446 10.043334903428644 -0.4649374697513347 -0.4916273203376953 -0.44257272890288946
Ni 7.46558336775445 9.035415757160763 2.597095096575343 -0.07161962121951536 -0.027982601255855034 -0.8425916436039681
