# total energy = -340869.82291806326 ev
CRYSTAL
PRIMVEC
9.15988180061386 0.00000000000000 0.00000000000000
0.00000000000000 9.15988180061386 0.00000000000000
0.00000000000000 0.00000000000000 13.40641291023965
PRIMCOORD
 96 1
Ni 5.2314374871804645 6.831659675970904 11.271374688499217 -0.3388883659383454 -0.3758618578389011 1.2486719340077785
Ni 2.293039007841228 3.131864342620897 6.517085519617665 -1.3961583817589374 -2.045100705902439 0.6834830382328487
Ni 4.833275745542889 3.090443357167572 11.931358827262764 -0.4348447641310124 -0.0037373555552451766 1.0543713541165582
Ni 2.9581563443597623 5.138547125950441 12.54421995415886 1.2910689109167508 0.17784706232088726 -0.6024223262050915
Ni 6.760505714227997 7.104083720280353 7.280285038364662 -0.5803964567533036 0.2602218651743776 0.1187865087133051
Ni 5.670736257935881 2.638165033916055 5.143960616088194 -0.3543576652185381 -0.37874046493827673 -0.8686965682211361
Ni 4.582652219893084 8.33746180327243 7.1946859430392935 -1.4386813427228127 -1.0385379866287274 0.5096659230069609
Ni 6.787600644562126 5.474366712126865 9.381124078587575 -2.0007939135652637 -0.15053243366633431 0.1655222222069472
Ni 6.438334351918325 4.866443677503634 5.997788005263141 -0.12846465523301748 2.132777380584817 -1.436450653620081
Ni 0.3012511082900238 1.6743439522332313 12.713060391236912 -0.9223133251053277 0.5964535102161663 0.012410972069843141
Ni 7.870069675067797 6.145483771217696 12.777022013798495 -2.3704694400877946 -1.5150881009183261 -0.6380161641493013
Ni 3.949337992948619 1.5265126200281878 7.047657016479032 -0.1348337919841549 0.26583998269210346 0.34107303229449004
Ni 6.989612677553639 4.108582537863712 11.675657979136894 -0.7253681085024088 0.9973412006754437 -0.47566565480211637
Ni 7.21413054010261 5.833498197458245 1.7488394388530453 -0.10519360052021884 0.8160532309938074 0.44987594743252207
Ni 7.001117489081587 1.8289169574355433 12.465202233899438 -0.0014099929736491844 0.2314036553911047 0.5967661563605787
Ni 2.953622202873828 6.195918080352151 3.882469939895144 -0.6601333077633147 0.9267001413191137 -0.2524751313494233
Ni 1.1030879244144358 0.7483394425194589 4.340446625608075 0.129379453737803 0.6522485056985994 0.8591251224826172
Ni 8.688037959012167 2.018819626700985 5.806371207537851 -0.8048221381646785 3.6185489919272134 -1.2738052387402965
Ni 4.46857505208333 0.703319539510935 3.4666571060486877 0.9136211966479685 1.6903892568889083 0.6617317625986862
Ni 4.541102996094702 3.8276489633715696 6.797748877597009 0.5119218089206732 -0.9957538015836657 -1.3676422765971155
Ni 4.7053671562305865 4.923354023063454 10.23633277793642 -0.6311564609149903 -2.703734546302092 0.21048001786456008
Ni 8.80332423121817 6.417468141201236 6.040702051448198 -0.8250073548633017 0.9818305066343541 -0.9344659013074617
Ni 8.719987626694873 8.605562383377109 3.183995977850995 -0.7244314556207524 -0.41068616460693785 -0.0054371118551712816
Ni 7.458470386844635 3.8587834015749864 4.07462410810451 -0.11992550741375475 -0.6910760200887581 -0.5159407002720792
P 1.6401959129209813 4.5258884324419 2.6778777014155883 1.0065866305331117 0.5499754212592851 0.9640245888011849
P 8.64116684389393 4.218739276267446 5.822834263078599 0.795243750447624 0.08730283628272706 0.0984889348065336
P 1.6240928407345716 0.7042437715835224 0.7947278318673741 0.7508192015856617 2.149114427181944 0.2246318838849099
P 0.9840644204382082 7.692688564208967 4.715718738641202 0.5766616723012197 -0.023252285659721244 0.1151568823805178
P 2.715996549483702 0.5334760953769032 8.507066174491747 0.7270298124755479 0.691277337466287 0.812477340717091
P 8.274945610057273 7.601749257800163 0.7844009811375912 -0.23830758159978957 1.447300194740075 0.9490803087865267
P 8.450558863730677 5.643586368311014 10.597206472784213 1.4640717577714593 -0.48328383346900644 1.3604246758027538
P 2.747424103904392 7.309668107169875 11.679613216093713 -0.049585010016979125 0.03227402954235732 -0.7164299254725146
Ni 0.29592005708837954 4.248508892084187 12.173948220594767 0.12745189769778695 -0.9673310274665986 -0.16522243157834127
Ni 1.9030387208783346 3.065162083427816 0.3175465379940186 0.8667232465448492 -0.8248551455561537 -0.012005509101308355
Ni 3.03086748600693 9.002515020618436 5.4582737158104235 0.03866270667752051 0.9391586787974405 -1.3449862297604966
Ni 3.2470132166000534 6.607041054722247 9.448772553569539 0.052327862869438906 0.22645171070246808 0.5043735642597701
Ni 5.976126716806701 7.649133326298626 13.29615831423352 -0.11583488228414889 1.30976211645088 1.7741825373564801
Ni 0.8455312842379568 3.065125443900657 3.983728769128298 -0.41738234568019084 0.12198059017057059 0.6701541823344265
Ni 4.770090880957078 5.768444716987322 7.852779482201434 0.6559485802580058 1.6703405657681492 0.49198933166280434
Ni 7.799923300321765 0.6347459164682051 1.1592288399039152 -0.08350994489919811 -0.8050710209506908 -0.6854396477385873
Ni 1.6007168224070871 5.0488444035832565 5.652747166088958 -2.2898879816893016 1.6749497824053863 0.5797737355676402
Ni 3.1191321069331215 6.681346015800834 1.3845335362986262 1.876521184926407 -1.4475020263382363 1.2027494604440512
Ni 3.387599082309391 0.759442135236835 12.270340404633018 -0.22086136109888413 1.4156658556642456 0.7783418324859628
Ni 0.8288822830968768 3.7967893216218456 8.191573281994996 -1.7117060160888133 -1.2877293050205565 -0.5842721376586261
Ni 0.30391022197359296 6.70344881055954 2.2692095753651502 0.6276489619823642 -1.0069478705272723 1.3188049433794384
Ni 7.423516277934884 3.8898720403694544 7.682853599131294 1.1352163505890835 -1.1136476232793724 0.8358995762957734
Ni 1.28346431661852 5.330831364481222 0.7805629906676789 -0.6452959856401661 -0.9170883292609626 -0.735817585970507
Ni 6.887388396779844 0.34109384611097165 4.327884763721588 -1.6037258539623929 1.6682253191973595 0.7429649956485657
Ni 4.352253713235084 2.214273184331025 1.1538877128323024 0.4377825066030976 0.6090997382252671 -1.2825395332895007
Ni 4.018018786608289 1.9633657023457376 10.01154744683919 -0.8380677875916857 -0.16503139861345772 -0.6381416339835719
Ni 6.479691218199122 2.171771332826508 10.132928704388103 -0.29284556474666984 -0.03961967127415113 -0.32153470515124627
Ni 8.390497518835177 3.3636001920202023 9.866918409307848 0.9780651260546511 0.9961343248515361 0.17972011097388402
Ni 3.5511396117838845 4.474767132173213 1.5049768219522675 0.20132251973500814 -1.103425431330732 1.162701957603862
Ni 1.4968529227929235 8.02302138119332 8.695238542087104 -0.9829890457188296 -0.38563179274147136 -0.5800195330298592
Ni 6.493614238519566 2.4113480410378543 2.150093556582846 0.9014935601464991 -0.4770190835062172 1.0307866248180828
Ni 2.6754549126821954 1.8317198812632118 2.425837142052907 -2.6737490556835954 0.19331353338760254 1.684952916364685
P 4.815844490496963 5.915030305268958 13.599197431448905 -0.5937659360816742 0.3985886100124555 -0.6036400006622765
P 3.1194985022047117 1.9035150347314025 4.9302486660866105 -0.6628491640325811 -1.3736553155604148 -0.7927970886793443
P 5.49928159059503 7.532711228750692 9.328543609149778 0.46387329015287854 -0.7118808726492514 -1.5970407286327333
P 1.7537509674687182 5.595222192461046 8.247035450243853 0.5469003818783872 2.1213783947192564 -0.6713065507713148
P 2.621723046103424 2.8786760500699575 11.630626168282044 -0.3370716244445808 0.61846703837278 -0.4934265783299631
P 3.915986863352079 5.76342510176653 5.865613659001346 0.6615697830995252 0.12778562688812187 -0.46544783372885
P 8.510702647562285 1.1911693477048315 10.518952686666058 -0.7621315412746874 -1.0184558711668719 0.8894322581065907
P 7.036969266406733 6.841927903457232 4.209425508463611 1.2604061917255713 0.7437874915498609 0.5469939700334581
Ni 5.621675931069892 5.405786677166882 3.6405519658983336 -1.6122364625365655 0.28326357748518954 -0.022660160601677103
Ni 3.7155961294373547 8.796646677393431 0.9418840807845118 1.372078457991598 1.6887128976277497 0.31921274188628895
Ni 2.419326298076741 7.195966494513502 6.475176312464945 -1.0006286131774638 -1.6294409993403096 1.45011709536358
Ni 0.7952316253658112 6.547538462615924 12.281520956345606 0.9296934196194828 0.5830449501197443 -2.665576804285448
Ni 8.756379837045616 4.063030445723203 2.1350915021875667 -0.20123973021321473 -0.5348804745993755 -0.396092325953163
Ni 7.777912104380955 8.675882795877147 12.281547520002796 2.341293589854787 0.1809382996517013 0.2339765583246035
Ni 8.373038784143883 9.109310082405324 5.9333702205884284 0.6461418785802291 -3.2308790857097907 -0.49805996333691643
Ni 1.776641512061345 4.968054246197515 10.519127640408243 -0.2545615815648068 -0.7070222590053694 -1.371561923366496
Ni 3.907193376833903 8.708253818122182 10.381483928729779 -1.9215383730670457 0.05153390621323382 -1.0357753362819258
Ni 3.1625316268530352 3.868621114617196 8.565008838729275 -0.09620116721362143 0.1312805274152578 1.6649471626667198
Ni 5.014797122970694 7.672756661434434 5.152942796171239 1.1886081359466627 -1.3737923553589113 -2.462037479404779
Ni 0.9035902789742134 1.2227617799977366 7.39564733758952 2.27642825663997 -0.816148104700459 0.17728579050077856
Ni 1.1038756742483555 9.085008916017074 11.519084455751697 0.9588762118310259 -0.8951838158783872 -0.4843971211378432
Ni 1.2729762519692374 1.9549660907445217 9.856206843542896 1.3457673309008953 0.2231218749982867 0.37319433830906695
Ni 5.47887337396743 0.43506598938036645 8.683440614341883 1.477643840028939 1.7459729076914834 0.7123866086410764
Ni 2.107276605144761 8.40926611662241 2.7751941175264268 -1.5583129730452325 0.7352701981074692 0.2838132793410725
Ni 6.261264677040346 8.166987243283081 2.5845687335877727 -0.5225108972904292 -0.7727671666116628 -1.2624504758491095
Ni 5.816698974255813 4.202425526799871 0.7608719927842177 0.7364603617608284 -0.635416521742925 -0.7022919434092356
Ni 1.571203683280459 7.846501299222728 0.46691947830427993 -1.597075952746043 0.89758445490008 -1.3189309274343415
Ni 6.047353957603926 0.0399993717995529 10.964139429435937 -0.04390158647895665 -0.14151377510749177 0.685457131240084
Ni 7.915548488153989 1.3196275299245188 7.933593455279829 -1.9786891112464244 0.31106851551259973 1.8005849386094086
Ni 3.193263030257702 3.9634808504320187 4.63069579988041 2.255236710164019 0.05768295653376518 -2.742400338303406
Ni 8.848949602412997 7.774385549891895 10.201851318927021 -0.9982549707389647 0.65730046630021 0.21924953652707405
Ni 8.699011497396308 6.189451203808576 8.425809779122908 1.902044526008492 -0.3308598392069141 -0.38960980355261293
P 5.500902889671819 3.354403670703277 8.652900652466624 -0.7227841498253165 0.8381732028212984 0.7004492337735421
P 4.860123359068694 3.4559226405792605 3.159288112711279 0.39862229146386835 -1.0190631657335674 -1.2160742025774154
P 7.958123618712824 3.7710866933197607 0.19240514897040595 -0.7102348524053962 -0.5500055031662721 0.03951271338264163
P 5.930263188685339 0.925193860175378 6.380232305737657 1.3920258476478025 -1.5512635223976188 0.3333648650169549
P 4.102875931508687 7.916794232077397 3.0247147934087435 1.1869122363014786 -2.0250090773588867 0.00016737881579971176
P 8.366791744763262 1.5945430620807846 3.071945891881317 0.4170254765614044 1.053341370190147 1.048235930642782
P 8.430562841783617 8.367606974242552 7.842858414234938 1.2742176436873667 -1.053426730815102 1.9074646685827985
P 5.450001426566086 0.7683666080646047 13.593432201850426 1.3379928291617988 -0.8513295376975983 -1.1504863893742767
