# total energy = -340860.6555674678 ev
CRYSTAL
PRIMVEC
9.42670369200871 0.00000000000000 0.00000000000000

0.00000000000000 9.42670369200871 0.00000000000000

0.00000000000000 0.00000000000000 13.79693371906621

PRIMCOORD
 96 1
Ni 9.329872423187103 1.1325712946221735 7.229814036697273 0.9639076036073464 -0.7180666897449891 -0.2796241809603894
Ni 9.112897988226692 4.380381739085624 6.204549736274379 -0.15222550509804106 1.900622705960301 0.06165145426320995
Ni 1.9037416296270104 6.965966261145248 7.854194572472278 0.9488095716236434 0.47269371665798593 -1.04124612958851
Ni 6.9168719892039086 9.081186557579482 5.898686200455508 1.5643648356662672 -0.5935782455509003 -1.9870043159803392
Ni 5.197186745839314 7.346079227253284 10.95657266301303 -1.3309685753251659 -2.1370580102380425 1.2235280877522992
Ni 2.121045999210683 8.817050324899693 9.262612893559327 -0.29444376247172516 1.3289178634437242 0.027043891491669556
Ni 4.3969633105804045 2.5875264229851074 11.429297335200271 0.39632295390673034 -1.1045325483519817 -0.5578849059143488
Ni 6.734465276057802 4.575118580438197 4.903167862995538 0.9795702498452679 -1.0289102337309763 -0.06798125313597969
Ni 7.921409796593502 2.539817876461467 13.322470687509034 -0.7919018305585847 -1.4894071512124543 -0.8729088065302709
Ni 1.628415899866889 3.6227858571521256 7.46329934287605 -1.367075348350052 -2.608469774859811 -0.11655916204468313
Ni 6.661738258387403 8.679015105230523 10.083240428591091 1.653684959489339 1.4525236479225434 -0.8021456197737798
Ni 6.315872506173931 8.127694349760235 7.806290893185736 -0.3523195517425868 -1.2066829911705024 -0.6637205108939408
Ni 8.17339500843374 6.577274994832409 1.0058056990132702 0.4957739955162172 0.8781212039691457 -1.288368481266452
Ni 0.5119925483774947 7.146110565446134 9.709399048336085 0.07418043996815611 0.42272098428428495 3.375532177777212
Ni 4.7296693846774955 5.297373750868607 6.344491978066003 0.11705667050639196 -0.06194995934023524 -0.5440911945643663
Ni 8.325476016350336 2.8417646169670463 8.34481301328453 0.9563740142344626 0.7505386942307655 1.6979323593434887
Ni 4.251669529199477 5.253926074336803 0.9302516129566948 0.2720643663352605 0.565217177909704 -0.06736958769390979
Ni 3.2550595794716863 7.805800704602605 1.2793224443675655 1.2940048536166229 -1.0910090599442501 1.0099534901228155
Ni 4.2817407134339 2.4970017890656213 1.6544873337970276 -0.8204184499410386 1.4833930838078904 0.791428747576908
Ni 6.607167071699919 0.9729583505916882 7.621384218265658 -0.2880946803252458 1.5039971332114872 1.4629242744305773
Ni 2.450744954884332 0.5861307435651015 1.2188152624724276 -1.368527507415546 -0.29349014030920423 1.7618972922312237
Ni 4.929487219228298 4.3342568787536395 3.139105470131893 1.5483345216762818 -0.11108734029683448 0.8231291640039825
Ni 0.9637955947685349 4.519350202403449 10.861000972027993 0.8688685750226263 2.073929200098357 -0.7244080585819846
Ni 4.408284781510042 8.121218204440783 8.853092383144801 -1.4662463968252748 -0.6413897086072244 0.10412453582575616
P 0.9502682752148056 8.11773032413773 12.03323040836622 0.5340662062281963 1.056316393658071 -1.0401528965243314
P 8.248026220215534 0.704202090515883 9.296070149698766 0.13541357574702484 0.5766310761736004 0.12496409827892674
P 7.364904354186244 8.669409294341847 0.5291548048092158 -0.886255660150822 -1.1040530376124018 -1.0901559679153354
P 2.1991085310743994 1.2353694965269952 7.652827930532849 -2.3691774607492486 -0.5496357785316791 1.005371527179088
P 1.6060840392238331 3.552811436910081 4.690777633957759 2.8290799391798376 0.6909965730010744 0.006289432553137556
P 4.74268766224105 6.666149955635587 3.260422431105217 -0.7760494369073602 -0.8428901486809934 0.9776213536490131
P 8.08344540342908 4.627153983878327 12.850560482506072 0.6658367859059953 1.185719501544958 -0.9759637634409322
P 4.172400379284975 0.10825720591427444 2.5798191501857146 -0.11273130365816068 1.4489891524067238 -0.49933934426997234
Ni 1.2719639595984777 2.6587263146849813 2.386013667141092 1.1597099648550735 0.32697670210242397 0.37473160088919977
Ni 2.8038221352919517 5.315416461409262 3.070369718732608 -0.84922149021566 0.11035663277839705 0.161676880318928
Ni 6.193447907536799 3.394744472257165 7.6366715033669 -0.3562787935006509 0.49892616799195366 -1.0625353779845896
Ni 6.590981421753052 5.756378798750275 7.608374424735273 2.100173221396551 0.8178087802323335 -1.125208074423462
Ni 6.66333137128258 2.206433079710809 3.389768115468027 -0.25191643063247576 0.3234434921381849 -0.09504931299736534
Ni 5.896572733525929 8.631523372887882 3.480649078780636 -0.11491597001430533 0.23898429595184004 0.35105868275229213
Ni 2.380864801677505 5.056766570179137 12.985853474120763 0.47043243142763497 -0.9932531466489991 0.3351661798917518
Ni 1.5303593298335136 2.5184004060600222 9.55514895593913 0.4929871767996994 -0.8387563290182781 -0.12811112854834067
Ni 2.043944991106186 1.4315957570360065 5.4191460216220335 -2.3823566784436845 -0.09122659681716547 2.0782082870896854
Ni 9.184201573665305 3.034050515403961 4.355470732359014 -3.336699006960099 -1.6824118951103864 -1.397891305289644
Ni 4.032394978579756 1.0544616292408482 8.901215704623398 -0.07258481334626209 -2.005958231375023 5.755654310463423
Ni 0.6038972516925676 5.407845289440144 1.2394050683046616 2.2118804546655713 -0.8944739342955563 -0.028562899239357262
Ni 6.317701286657154 6.903297536132571 5.174015908582822 -0.34944917217332716 0.006704408603369099 0.2376594064928294
Ni 3.4944224352962836 4.573610307874715 10.405481919108674 0.208278382227551 -0.8967182502450426 0.8491798383444473
Ni 0.12083808443441887 2.4253399888931817 11.538485899422495 0.48416289363985004 -0.10911324728959916 -0.013309058404080304
Ni 8.530224016843022 3.1164210507771233 1.6254992777972554 0.42283925502970404 0.06063998227956007 1.2033498130322116
Ni 5.7721119669280965 0.9321350683203429 1.1355303368576546 1.3016654554856746 -1.7008130233253935 -0.09314129734137508
Ni 7.847051959213838 9.3900807785806 2.380854432303631 1.3326999561939759 0.8555985973865975 0.8015900043806259
Ni 1.2863396824691657 6.725349653752257 4.686390446138732 0.16787195338604638 0.3416312187908052 -0.12488619385313976
Ni 2.7308311699229435 9.065481669512225 4.180815597518852 0.3431612822820864 -1.1348273426807811 -0.6295592916311997
Ni 3.911525786023715 3.9450754238576686 8.222213077961891 0.0012996926480300197 0.048283774707052335 0.0059325634343510725
Ni 8.275571047906125 4.3077301350434 10.303122058917614 -1.7256462803189894 0.7000018618234783 0.2997512907275677
Ni 8.707389482831028 0.12614531851717123 11.772923302656972 1.2692672416606272 0.4890927268412997 -0.5168629549760324
Ni 6.084578908563962 7.132187324344489 13.190461959401327 0.8995153533742057 -0.7001671837567489 0.3390590871882548
P 4.638833669541791 0.053382479373389705 11.028413570552384 -0.48490157157808744 -0.04091396460554244 0.002986593432149695
P 7.551223149293883 6.31805950139098 9.554279813874425 0.14312277146582447 0.8706896873917651 0.3635352179527481
P 1.6389455277006975 7.146185979074307 2.5951620528377357 -0.940315160999387 -0.8006788054202663 0.1254433519081904
P 2.023027135991395 5.112516094806843 8.848097172948618 -0.15422890868131503 0.006006354095079979 1.3501009252792424
P 5.508711017123005 2.5569839035745967 9.491848641790494 0.55726321316995 1.2809331080343296 0.19823513905893603
P 7.189492255053286 4.406927336202908 2.6639392817325156 -0.01455321522382655 0.29164537379098154 1.6618703235136087
P 5.490366652069655 2.4620475724069255 13.371119076373795 0.9199247702684931 0.7176697114168865 0.0029161452055304618
P 2.603269017866451 3.921348411093392 1.091175811447057 -0.32057979743714465 0.1815484224318744 0.8723331365324588
Ni 5.6416746702974665 5.212090364107222 9.565178968486284 0.0399963378872795 -0.6472441105054724 1.1850749259824236
Ni 3.3967617868108224 2.1564055641208144 3.9046292097271937 1.6788259775313408 1.0813537962426731 -1.0280993077939067
Ni 6.60840196986127 4.384623755670417 0.6128375373126072 -0.7703809257676733 0.051242343114744 -0.010460790322007791
Ni 2.2752574421231984 5.108349491850223 6.034337406804024 1.034474100971999 1.2757813886300609 -0.7962999596262802
Ni 8.558994315991441 8.308771897709773 8.154581193545006 0.9289130898100326 -0.5298236289017586 -0.5698323080842123
Ni 6.513418505175989 0.1452852973477581 12.459665252909845 -0.8512526617130759 0.40189736267071435 0.5252282962215922
Ni 5.2097336882267795 0.892405283657522 5.26170876076437 -0.18723518840400658 0.990569686279565 -1.5801395820020208
Ni 0.9685843601575903 8.10868068875684 0.7800776271625506 -1.4577918383000183 0.14314591139427604 -0.7869681407023931
Ni 9.273745830418529 5.734461713062176 8.176628367741705 -0.9808519447711689 -1.3484250802387163 -1.2166899817845434
Ni 7.456305671533255 2.0241583404140067 10.898790741106035 -1.9826149286633918 -0.0825727777969094 -1.1353456770780963
Ni 4.098655277634226 1.8740380868299364 7.090823891961347 1.6294836796527872 4.382745643261045 -4.921486886367408
Ni 8.566516825401807 7.860447304918263 4.504132674908267 -1.7852722195117383 0.4994871827017462 -2.1874778574514906
Ni 5.842067533763097 4.542813267469116 12.084374988323546 0.20878283266779527 0.23060147120478347 -0.021288477065131078
Ni 0.9496366860788474 8.589451995070256 6.248300009989232 -0.0031110348251559322 0.22943367614892746 0.646487691955422
Ni 3.6781300335283937 9.219466871540218 6.576943174868443 -1.1050020317892324 -2.7739742564549448 0.23293269044112141
Ni 1.254081503017694 2.744528170140065 13.64691896932106 -0.06323088293518787 0.4358924886692364 0.36709773849302585
Ni 2.7489492940917715 6.557676878210665 11.002019743361801 -1.038743160660998 2.0516307937114733 0.3256590117322649
Ni 9.091103449684377 5.417913008801386 3.4176381644301177 -0.8246196325065798 -0.3666169422018654 0.09231340212344101
Ni 6.131043130222731 6.696946996041187 1.7467332837795884 -0.6664129701244393 -0.05098497568829929 0.326036963896974
Ni 8.02563143073011 7.283212541466649 11.602268860791446 -0.5249490744182767 -0.6738360020613879 -0.7068330258126989
Ni 2.208224153379944 0.8574850031315046 11.711664812491149 -0.3241150642839128 -1.2117997435717776 -0.959681738451457
Ni 3.4688760687523064 1.611806048261543 13.483853023790553 1.205114361131802 0.5973505681091389 -1.685672311029213
Ni 0.4097844581131354 6.222425594162698 12.664081433438565 -0.9010539015059192 -1.0385055907288954 0.5415961960566543
Ni 4.266648561095558 8.683426802478706 13.186212401453716 -0.18639340922900158 0.5285923275978187 -1.2896126380861983
P 8.462521432149721 6.714904866250143 6.116098034459329 -0.21244048402504057 -1.8555574381905462 2.447487349504746
P 4.1034440430232815 6.35223130165737 12.829796282658686 0.0838830119679007 0.7786758187866137 -0.6480933458796452
P 3.856436130642534 7.0508442996552 6.78448996363674 -0.6551703073310845 1.9919081810398598 0.7133728838137456
P 0.1624550951422966 1.2280166677800202 0.8758736736914069 -0.278115714735663 -0.8616478889044707 0.8948074063755751
P 2.2498524761320478 3.1237455994135326 11.741894365344738 0.8276018550633554 -1.0048526785611405 -0.12909251862500348
P 5.021124204163353 3.409082488313766 5.650575363762715 -0.4872587589563543 -2.7672816749261178 -1.6653896495207767
P 7.892988285475387 2.613167056564302 6.244713149299201 -0.5270972311095309 -0.5780356698306109 -0.6335540146128895
P 0.5550490167131457 9.293023439120534 4.273890154740975 1.1221507756543772 1.6341036949233019 -0.3158661940115592
