# total energy = -340864.08653262595 ev
CRYSTAL
PRIMVEC
9.32082404551594 0.00000000000000 0.00000000000000
0.00000000000000 9.32082404551594 0.00000000000000
0.00000000000000 0.00000000000000 13.64196815394518
PRIMCOORD
 96 1
Ni 8.220957586870218 4.157954411285837 13.21086825672023 -0.268272503392996 -0.5908672743776405 0.34157979672757943
Ni 1.0128380363466007 1.2291650442385267 5.2415440275714795 1.3928488577697302 -0.44369321566057773 -0.9784348506892441
Ni 5.931157320000899 4.49147214132112 5.41829015567483 0.15060365322390193 -1.4240072856504056 0.32039776333332565
Ni 8.227379634715346 3.202141177140227 5.236428759273359 0.5394230996647356 1.526354932081397 0.5730081347090326
Ni 0.44051053846695376 8.31327102933485 3.9479450580084627 -0.3701956606920592 2.003602843768969 2.7734690346837523
Ni 7.448596813809917 7.64752184299814 2.2747984003864006 1.4828536663646528 -0.9996695916983042 0.48677642000329713
Ni 9.292190586569093 4.403120049123801 2.0858708871904588 -0.6332511386604901 -5.424563071971993 0.4562121740631949
Ni 6.086069417513237 2.872165360285129 13.074925900535037 -0.008887789407933082 -1.3685799579200364 0.4825808938647108
Ni 1.9511654043710824 0.7025440717843456 1.2310375978119459 -0.5581034496830583 1.5982820572390024 0.39254934579691103
Ni 7.190214247315364 7.174527300256804 8.694380887522842 -0.2873248920387568 0.7652873132948497 1.5214793491566505
Ni 2.292167756205548 5.903987117579211 10.842281859487343 0.16968946621075937 -0.9303755332881719 -0.5096029309795094
Ni 4.80978760715408 7.223899705823762 7.550365300300813 -1.2534102200237123 -0.09084041712234033 1.3060281033297443
Ni 8.40687074553334 2.1328003047455044 3.17317671606805 0.3175703211868595 -0.49731254364793054 -0.046906177633235346
Ni 9.022073102459135 2.130917498265511 0.6730772182900316 0.9902966351238364 0.1747545394384926 -0.31798041214108463
Ni 4.774843837384299 3.0760211054531377 7.817393863284681 -0.12111232863300433 0.32739759168992644 -0.4894786494258086
Ni 5.264149822402808 6.277118350287626 10.51812130482466 -0.1257068899822222 0.5450191056952742 -0.8080015643339246
Ni 1.3443517891878318 0.9162155768735483 12.46215627871458 0.02822094251890624 0.6622040742494144 -0.3733465476162151
Ni 1.8181292811584728 5.734105776468511 1.3057859471501037 1.1675567145930021 2.0452935386395357 -0.3402029709847109
Ni 9.053269900917245 6.070913757431705 0.8932975344329146 -0.021016197240350903 3.701219728754568 -3.393964416340471
Ni 8.868866715767783 4.888809554368857 7.848442460638673 2.636318935861595 -1.9603435188597014 -2.7208953743520943
Ni 4.425238364851646 0.6406733731034109 5.204587891865904 0.5791656696699962 -0.5340700628829383 0.9641336035752233
Ni 6.837383769623909 9.064725193807899 3.8460805670287352 0.037585671563257844 1.1884214738571532 2.445984025486342
Ni 7.953757520721835 8.99649676096853 6.804068347834598 -1.6319578522248925 0.4581160759541272 -0.38212120848505154
Ni 7.632440749509875 4.611962435216546 9.599648224339953 -2.6994875981002795 -0.0329142342295175 1.7474410075965776
P 5.126928649143084 7.737561004368126 13.193133524594074 -0.5974822085909968 0.16309998591869973 -0.1375218803392793
P 5.347263611423115 8.295999542169366 9.466653112753638 -1.6116844466878375 -1.1015210152191675 0.07041351672655614
P 2.1914655719983713 7.0712525685819125 7.926011291367158 -1.5100981039029027 -1.1771050204030695 -1.5361089261443674
P 7.2881295050991834 0.5245927611173168 12.963758294962826 -0.5499828774584528 1.2956434176613105 2.3929964175457172
P 8.346723467239288 9.000318298873466 8.947398387631829 3.0053236615693466 -0.381342164227182 0.2579479815385364
P 2.0910616541642626 3.603933944135671 8.241877244611295 0.01611953126968192 -0.060840528326140376 0.2889135766821153
P 2.479674775799752 8.666670077299967 4.855476423013646 -1.1166588993018702 1.9192184666846173 -0.042088187419301704
P 1.0908440137281135 2.3798673907117798 2.563216390648929 0.6379413450473078 -0.29593885896001293 -0.28093518646232907
Ni 7.369658754012565 2.6082462242404962 11.04884810032061 1.5085657264187762 -0.8717875484416342 -0.12803810921856013
Ni 6.939773023003753 2.069763570962356 6.911757421830899 -0.27108169070701704 -0.38130822566545297 0.35155953364811066
Ni 6.023293666806522 5.879389462625237 3.677875110101713 -0.29317363751004993 0.6177921237929426 -1.3278012333407778
Ni 5.386364468767534 4.663366780450032 0.8845956129986475 -2.7480914751509125 0.9729877115317437 0.30073679456928853
Ni 3.6716404108221696 6.08010409005187 12.958150887149143 0.4492498838127489 -1.9691652309163896 0.9849379419150844
Ni 6.104580574291786 8.81912147723449 11.49627748656033 -0.5076501781285129 -2.1314625184281355 1.4207131882801662
Ni 3.559986258228892 5.089375048608956 8.910224144640946 0.10120633373769668 0.6825283876290632 -0.8739074229981143
Ni 6.771699921779779 3.273986089753048 1.7708773630875467 1.6434247152139116 -1.5847230876076448 0.8039587617231186
Ni 7.428286737968798 6.097179839910029 6.828023798004059 -2.222384182410373 -0.9075577640627078 -1.4365879505288937
Ni 6.621056761731982 0.6024896848561765 9.580726951298434 1.6362001724410142 2.5801537015239373 -0.3256656966004843
Ni 2.882418266859351 4.296685558059219 6.28492267635544 0.18568918407312535 1.7166757013892628 0.24985646277965357
Ni 3.8779754952163086 7.2186054777018 4.418783694121966 4.604338226098999 0.028787356545337518 -1.1101565794069785
Ni 7.4454929793651745 0.6070792586717645 1.5623052808953959 -1.1258079127909901 -0.1912851901036641 -0.5649459265261884
Ni 3.429569286604788 1.6600667450806028 3.3780652085528073 -1.7232708381082775 1.1400747071226496 0.1268757134793428
Ni 4.933446981263356 0.7085671883554931 13.603115567695074 0.042328585564881935 -0.46949295033250116 0.2971609042925721
Ni 9.215536128690546 8.866294168300069 13.662294412359069 0.2769967706398713 -0.7832971196087091 0.7938633251603295
Ni 2.285233063031711 2.8045614226643725 11.075450664551052 0.6778116988796843 0.8580110634828321 0.4817511988745638
Ni 1.0618655714196987 8.004854278758094 10.678632421408938 -0.38870888900489836 1.8763640905232524 0.07908764746178638
Ni 8.435998321028288 0.27978131459737027 11.30028385656992 1.017174690461603 -0.1521959374116863 -1.3579636158567712
Ni 4.902623015771581 0.6813708876261614 8.195562069368286 -0.9422578865480546 -0.33787200885868907 -1.735899068395249
Ni 6.0916619120082665 5.1631586926467214 12.47454365402107 0.5611088121682853 0.6318105495592216 -1.3376503582207158
Ni 1.0754832955150972 0.19193161482218857 8.028707199861813 -1.5179957614834243 -0.6108905115771028 0.6405936950684904
Ni 7.800830758755234 7.021479367576143 4.825641396965075 -0.4180009531007962 0.5431655974263032 -0.5258055088813008
Ni 2.970061976420632 8.286324526692963 2.45416274799584 -0.09880260939221049 -0.6999404124579236 1.741471163166388
P 7.458122696099784 6.726503245435777 10.907354261266683 -1.4308438489562647 0.39420410779151466 0.15085407867181114
P 3.8495656231815554 4.314646786212424 11.594609385184032 -0.5250763440247602 0.9492821403846877 0.1149861611306084
P 7.20510892432046 5.508299490407509 1.6232988900230267 -0.7622197301131195 -0.16022677813596276 0.5980686772220861
P 0.11533774230067093 2.860132176296656 11.692135032518031 0.2949258443144662 -0.23534772764051726 1.455389399506113
P 2.739651203225389 0.7138642127247027 10.834110292947688 0.5790419996079383 -1.8177102854357854 1.062296522500906
P 4.741838799039463 2.169570956050328 1.8001531396866142 0.6873198954804357 1.403703026875415 -1.9838703983370476
P 9.391755630228946 5.431300162035101 5.383052779944061 -0.8358522679976057 0.21358925291750314 0.9794594352990165
P 5.3310267357392105 5.149279985474887 7.323949432339851 0.34529349813374083 -0.2501523967535175 0.8102654206674367
Ni 7.319391549326402 7.259346800098095 13.600155273942372 -1.6990651873963512 0.29834104064360234 -1.815717166265157
Ni 1.28317922023636 4.098263853375547 4.080325927282738 -0.9349119877059446 -0.8561285017481384 0.4096469247091461
Ni 2.6471233818051143 8.012124521601633 0.22856804625913132 -0.5171570891776835 0.2935719013897331 -0.2262848461073006
Ni 0.18489532466502476 7.4150511676638935 6.81517224565448 1.8232749240077568 -1.8706680685797394 0.20586283080752288
Ni 0.6532108136788527 4.13826883066333 9.934749562399745 0.6829608471807915 -0.27081738130203686 -0.3821016681010258
Ni 0.432660540360763 2.4202918050866895 7.3865527477996356 -0.23883825729227898 0.3183622209605356 -0.9667869820376704
Ni 5.040543250843184 0.1922093753821084 2.4430858805660174 0.3209220112679118 -0.7062162181643064 0.03660762392070469
Ni 0.5719537328308958 1.6820825317427048 9.781209490203523 -0.9165643384366925 -0.6238822958510803 0.6870627851643071
Ni 2.5882623772449214 2.0618129079552547 6.660554686185549 2.0580824628740877 -0.5459051078446534 -0.033635171555942076
Ni 2.9419783332314227 9.069767759677584 6.99044475145839 1.0582825162455063 -1.2482903822986438 -1.0721291923206115
Ni 9.334712186379639 6.30540705160832 9.518342675206371 0.5790116605906351 2.11623515995542 -1.0447603133893555
Ni 2.0336174148761446 6.463441625213715 5.067145815073626 -2.9549652637214527 -0.8546753142413797 1.6194964865330883
Ni 6.127752143149528 2.2767045089267897 3.9808904430786853 -0.7520466462348596 -0.2994265603982972 0.22247215722942978
Ni 1.3770865236320753 4.271603220249008 12.838469640790667 0.3612901306723133 0.4725769885744635 0.8068993324086813
Ni 0.11219196414721644 6.221482350886234 3.278696834282695 0.40597076140913957 0.0101946811448147 0.13788209189217543
Ni 2.584217139560183 3.704468353507997 1.679326364039071 0.9362790432568003 -1.9344913336832876 0.21173420198663534
Ni 3.4313402431948807 2.859479718605569 13.171006820124488 0.877246000453044 -0.39673253064032316 0.7514180115119253
Ni 3.0382810884358427 8.235320976898288 9.326727036323152 1.5581545930904972 1.049453862210283 0.6263641817326696
Ni 2.9738741935014112 1.722003621613062 9.056002766560484 0.14566996336771043 0.011416469367057758 -1.8164363038193685
Ni 5.192509967921471 7.159138619571312 1.6497234265120444 -0.2681876569886736 0.4710230138237823 -0.5590935815104694
Ni 3.401849155557755 4.79462262624839 3.988720867454144 2.0185108712290525 -0.26770274693245505 -0.027485092794146213
Ni 5.072606885948024 1.632477105571787 11.168229216141187 -1.74351519017961 0.27809848834448236 -0.4345933102418386
Ni 3.4318435676994334 7.9508680652327355 11.640514444164072 0.8497051147202979 1.7732055181551911 -0.4607445147159097
Ni 9.083879487453377 5.7503426521524155 11.709910776270485 0.08856164839049264 -0.39904729481642887 1.191983737287115
P 1.329149524985508 6.92467328786717 12.510421370371523 0.6019685264971246 0.3177839798595624 1.4192224626672525
P 8.327019244968467 1.034397102624942 5.142503746311744 -2.33749992714031 -0.25716868017035066 -0.33025511574337957
P 0.7555618516796477 8.13496366318497 1.9795584989223507 0.18762908140831558 -0.484588668323359 -2.62069305639888
P 8.154844981114802 2.686401334808543 8.656211180511844 -1.6147399456847094 0.5974564975593839 0.7627473204818154
P 5.652846831455722 7.871491926699941 5.793580091258325 1.3698472546682343 0.9026515850103424 -2.394094792816219
P 3.76528673114145 5.635584665114396 2.065558015102093 0.29136358088450465 0.2187494569622039 0.5501371436481299
P 5.697204633625471 3.74268373255737 10.592197622740999 -0.6023526493094207 0.890970292017672 -0.40176160842379843
P 4.292603037077846 3.0370973437677278 5.19233753267454 -0.22122954307158027 -1.1189944894135826 -0.25288213697985484
