# total energy = -340867.92709890846 ev
CRYSTAL
PRIMVEC
9.27083466202726 0.00000000000000 0.00000000000000
0.00000000000000 9.27083466202726 0.00000000000000
0.00000000000000 0.00000000000000 13.56880363820408
PRIMCOORD
 96 1
Ni 8.758083067427284 2.031193457399852 11.818238088362122 0.9061711681278264 -0.5421207011015566 -1.3901078046894833
Ni 2.2733291096072015 1.7932296806612709 11.51606080440825 -1.12788330726278 0.8153469489554023 -0.11932412638432999
Ni 2.5778296646554604 3.6446894720321814 5.100268875170356 0.6962187406319622 -0.40687398994969926 0.5816601539570757
Ni 8.048715904386562 5.800965026820101 6.891282826415991 -0.9114879523550496 0.7025107442882611 -0.7147250269662658
Ni 3.810359282314184 0.7647947005187867 2.1939800381912162 0.8139194724802563 0.5420546237503115 0.14577820681080056
Ni 6.735557840168097 3.2625642207616954 7.441090586111302 0.4943485759236003 1.9735425340484787 0.9942247665336489
Ni 8.962579132071964 0.4006678471040076 8.310037548333062 0.7442528612220537 0.8191053875565699 0.40873084065278
Ni 0.9825601104044633 3.4516985128469293 13.097680909208872 -1.0578528849072557 0.5543846060705742 -1.298039685807629
Ni 7.389884059524194 7.432131251771262 0.8222942694796728 -0.9444842047754121 0.009055425334048921 0.9308527300349065
Ni 7.755785350638356 8.82540786665884 12.40035285168758 1.397372970892329 1.0794486088001602 -0.05279554653447681
Ni 1.2232216999461816 8.62695638602669 6.570571290379535 2.4132253429980826 -0.6833285149328554 1.1660963279973917
Ni 5.154157454142163 4.478832794926595 10.969563659668268 0.9941820862211718 0.10514963465616084 -0.3831208533941595
Ni 2.1528824294066546 4.800512206071807 9.206745097007447 0.13289929396560338 -1.1090900858156771 1.8448233396024938
Ni 4.772931473806056 6.783469512218315 11.549535006086215 -3.430723221127059 1.2732421671479748 -0.17873126469805348
Ni 0.2091796901709502 7.563619495712484 13.359667271980063 1.0572764435784954 -0.8521368640902421 -0.7444876029406791
Ni 6.006935154130413 0.9804649018357039 8.379916462434942 -1.3505164155501066 0.2818029337792631 -0.060264601218012345
Ni 4.591362182570857 2.527414867323981 12.005107515609534 -0.4289800778201192 -0.1521709977110218 1.00718775445222
Ni 3.5734616515287327 2.98952887758233 9.10122075181697 1.1665444712784039 -1.1014191995339806 0.8299045350546029
Ni 1.8495221869865268 5.177343810914144 6.8040897020352835 -0.3988922572958033 -0.5573920254383303 -0.2828871679823773
Ni 3.081792221282749 4.4285663309451175 12.299834757059623 -0.5116572424053768 -0.8455144736777181 -1.0360566149677706
Ni 5.614398755856754 9.267839895538975 6.110100071972443 2.1651521973710968 -0.9488373395377854 0.5701490679936826
Ni 8.556692732298245 5.062793381376123 0.511491401223261 -0.5362734982921603 0.9251289401772519 -1.9421581061999262
Ni 5.067966506957396 8.03723861143026 4.138430933760987 -0.5891451494802111 -0.5160108913883823 0.7249870710139062
Ni 0.9788146933169463 0.557386666796907 13.565207232575371 -1.3465677153150035 0.2920037855716649 -2.046764723868423
P 5.664173865616355 3.0284849236262574 5.004201708125857 0.29464765095241513 0.1931870351120673 0.013281033379622286
P 7.722651388581956 4.862237421340837 2.398394519493395 -0.5209358394938254 -0.8504594763878192 -1.1080382475123949
P 7.194927683451434 0.46516875018492554 0.7073526107310257 0.2834787788197892 0.09673261423705921 -0.34660964584200304
P 8.839620055755779 3.839043243870564 6.4066054594556645 0.12228115213012489 -0.6845202212481115 -0.16164705552225708
P 0.7677075966794249 0.16564199777887745 11.330900919019596 -1.8978433434429505 -0.8841419562419289 -0.1966253713696549
P 0.8578321588895218 1.9505835525088608 1.635542985859617 -0.26181543491374265 1.7463004662342312 0.31182493406265005
P 4.91988346948485 2.7322910361780366 0.7134750697523036 -1.6156380320189465 -0.7838563345462888 0.2891398337603085
P 2.9214809532695214 8.969819653718872 0.4442639457526431 2.7071582272716603 -0.4892367086183317 -1.4170226268024564
Ni 2.6664773829496125 8.655325139214318 11.917398005754135 1.2877470456323694 -0.4907819416182644 -0.28641909239503577
Ni 0.9215468952154362 2.4367182946329438 8.878013362153142 -1.1526931672176084 1.7134091148228492 0.7538914127530824
Ni 7.592590853134491 7.1923503914951725 3.8634997049519257 2.0847165205218485 3.2169439636859374 0.21211909612987984
Ni 0.9950479243076451 1.7216681101203208 6.166708713749888 0.08632864529491584 0.8223737738951966 0.536278897608799
Ni 1.7887147843206255 6.751299716936919 1.8172022041882547 0.28184844230521783 -1.3711729154581933 -0.11534688690413682
Ni 7.069085377644612 8.329585102612839 8.482876494837285 0.010122690256298696 -1.122274702826751 0.7236644955477408
Ni 2.2300157714070052 7.840817443526243 3.7413805662301205 2.388979325966524 0.14945282744891036 4.226847574407423
Ni 0.1585423928144702 0.07682740446597398 4.619254414871608 0.4129271381223147 0.4091303900840437 -1.1084092576985682
Ni 5.4805928033217715 6.720316588455527 7.649874411654438 0.21850417372061723 0.5114376701954031 -0.07459644445965218
Ni 8.970357362112624 5.290475802792782 11.351931806799378 2.491348055443438 1.519162785208332 1.6283889039267114
Ni 6.700857107102315 6.194391425193763 12.077767680023927 3.3363771048443054 0.11111279421813122 1.2723996166420215
Ni 7.837452130648103 5.009819833757133 4.383767805078039 0.5465304001334781 -1.142213093621891 2.9282543300891697
Ni 3.852393245370625 5.079341820735574 1.8113541618644782 0.13724831496291848 -0.17174660585010423 0.5348488500304918
Ni 5.253383194458238 9.346484383542457 12.73737456664005 -0.47265540722088273 -0.4261168973397113 0.4425783853298442
Ni 3.9191247112021776 5.971075566767749 9.45991211503766 0.6534191289679327 1.828934179176063 0.3296987290192773
Ni 9.491480233168117 5.010023792113383 8.494179496107336 -2.479068723855453 -0.09704397482989094 0.08764556433412647
Ni 7.967744436954945 2.6448948805245145 1.613697191738268 0.009981279582427971 2.170664385438578 -2.218557866685747
Ni 5.7006731405508955 3.413057675171754 2.6763786340621576 -0.5712340735277452 0.033897166968077104 0.9163427093441896
Ni 1.1018201238050052 5.078461091469944 3.727065470871618 0.5552253568043147 0.25691259829548657 1.114982797151028
Ni 1.0152119890733617 4.179486823790861 1.6962224510111428 1.1460813183280456 -0.5353425018374588 1.2180326118553668
Ni 2.639332379899489 2.242327439457061 0.46901243811681803 2.4376796193857047 0.010599115672084974 0.2707140229549531
Ni 4.306163504691436 4.859140962659573 6.82065761014692 -0.6222550446603026 -1.6961968647096206 1.1136851613855272
Ni 2.2007662889537474 0.6869030042665578 8.404543506868803 1.7332706296334666 -0.5511517009555733 -0.007852149054567121
Ni 9.182659469301088 7.529002200156076 10.362060716406758 0.12775425942955418 1.7309280975432189 0.4929010448437963
P 7.354043013830281 4.202154013837839 12.192451609576947 -0.19760830410821453 -1.9411085818894893 0.11845483640549923
P 3.660255202947877 6.2412184096221015 3.7755741846555884 0.14905173535574975 -0.34505541398100575 -0.8355177674763223
P 5.329626536358585 4.591213849220856 8.800319134673101 1.2240057987196662 -0.6934262654884896 -0.8050964748719877
P 3.9773733635805675 1.0623727235392009 10.518563525658719 1.0980063171976895 -0.3399803134509435 -0.615094008135489
P 1.3030528547496694 5.7174069965978465 13.667855764942713 0.20641458954593483 -1.6328004027308458 -2.1018621790631995
P 2.3995144362858998 1.0451289716016225 4.21191898368507 0.13861228518998062 0.4017053012645662 -0.0346201611770307
P 7.134064655779282 0.42345926633161113 4.308556307043634 -0.3069159267968069 -0.27103438240884936 0.9051332137816153
P 0.26401760258276186 7.84914265279503 3.0566172705373225 -2.134140836591247 -1.8977942353725703 -0.3065086640560592
Ni 6.067807452636939 9.191902491173005 2.3816504655286312 0.6852357592578973 -0.2226174245580424 0.4289582234432483
Ni 7.854603174241931 3.9804420097587063 10.069110693906364 -1.4332740556643122 -2.6159174893871078 -1.6249955619744467
Ni 6.851026082309246 2.194174725713092 13.009279795109096 -1.5081828891580606 0.28305737501165446 0.5705676435883399
Ni 6.275687371828508 1.234736076239984 10.867973856586556 0.43886931190937317 -0.5136961272122765 -1.2331663821730117
Ni 0.6469169685235637 6.717850546511766 5.336270943355178 -0.4737560964842293 0.16838128892229712 -0.24539405613292578
Ni 1.6788832094795014 -0.23019667169917069 2.0348183536404933 -1.4145289138463253 2.829137274780334 0.6916907708546217
Ni 6.029899010877391 6.278116330434768 2.7322687861755366 -1.498955714132838 -1.4974778440357308 -2.3567058106447996
Ni 3.3294347491088745 6.3624160274070265 13.405462412542459 -0.4550055553496035 1.923516579839339 -0.5025923039896312
Ni 4.761092618309128 8.365713544172376 9.75004009555429 -0.7901030867869488 0.8446732087233454 -0.2752221952379518
Ni 4.765162514599771 2.219660249410083 6.87141820960059 -0.7982005190831027 1.3973305476901676 -0.713253841737378
Ni 3.1537617085362015 2.9413298096664864 2.893791752241583 -0.4501307437558054 0.05260991288623198 -0.036512750214053244
Ni 2.042680021190529 7.3785365582491425 8.768323631077957 -0.9115324324397398 -0.3929046722538007 0.31573506775033366
Ni 1.9134075066649416 6.493932083851375 11.199527633424625 0.7127419350979661 -0.7037728988301363 0.2601609300294551
Ni 3.3075277674806496 6.955424948206596 6.137589950061318 0.027684610399461997 0.6620528933835308 -0.6993675706735891
Ni 7.693188676938072 2.5586946625053733 3.820648981387043 -1.4681343578766068 -0.062393474635557056 2.239913706653704
Ni 0.7199220079767078 2.6016835215024434 3.8086543758726137 0.984657434560188 -0.25517633233067016 -0.31033369422910423
Ni 4.254107769675574 7.66755481989108 1.702939170515861 -0.2004761125743128 0.019679223596482234 0.47617781855184443
Ni 3.5038562270409166 0.5729329289604151 6.09406152850362 -2.8134648583503994 -1.0331350704456015 -0.5273504847709177
Ni 8.5635067955639 0.7179018931663861 2.466930089694331 -0.09288213014271746 -2.378686171570632 0.20282327265025066
Ni 8.319489163978417 8.448205428441502 6.390933113944657 -2.7712751123562276 -1.6968039021660004 0.00538080469593912
Ni 6.248616535453386 4.413065495870047 0.5223151003561226 -0.5312361929785689 0.6928035443028263 0.12394028500010267
Ni 7.749407016588328 1.4883397505692608 6.270415048319421 -0.04088182581602637 0.300297907259657 -0.38964194234212896
Ni 5.294517886580301 5.230141212680008 4.794197840778965 -0.21511031754771984 -0.5196587725536147 -0.3590280741110139
Ni 7.402279165083626 6.241756118015854 9.57420203412974 -1.0792251799354446 -0.5403263282052952 -0.21330334624596814
P 9.168864467751025 7.232715604364105 8.2166162774192 -0.47435310663827984 0.5578825919215038 -0.6768351938990279
P 2.4746545488956166 2.860719904775495 7.264534035022687 0.7622510975716872 0.60674589328111 -0.41945414060755504
P 6.527334900104651 6.842330039665456 5.686034493072705 -0.44879299878098833 0.6563514721233793 0.5714790996590158
P 7.6437195047128474 2.0060973087466127 9.127679713123339 1.11403431719483 -0.2670635706865594 0.12906063694580353
P 1.0308055324921825 3.5018351851471574 10.888380817212898 0.2846352610217356 1.1757773027305816 -1.0186571885444007
P 3.735571461410719 8.260415407340648 7.870706613551379 0.34476822175789007 0.545522527694254 -1.7040914369663491
P 6.508172085451439 8.13729872684009 10.933171926412477 0.332049488639641 -0.4483227440127892 -1.5897030573207396
P 5.430465401855918 6.438900411001124 0.24661161104362025 -0.1014665293776188 0.26882297657982734 1.2235049478238478
