# total energy = -340885.1210673225 ev
CRYSTAL
PRIMVEC
9.10947672375504 0.00000000000000 0.00000000000000

0.00000000000000 9.10947672375504 0.00000000000000

0.00000000000000 0.00000000000000 13.33263998523621

PRIMCOORD
 96 1
Ni 6.409719240641189 2.5586697880586686 11.776080934845412 0.4838245364638248 -0.9699458393816263 -0.6235927896351195
Ni 4.794800338059115 0.4112172599387923 6.032045806395106 0.3065058358425818 0.9006826342094295 -0.3001187013693154
Ni 2.7217658571465435 1.9236026267281712 4.995233418896905 1.7582015885471913 0.8600509767309963 -0.11011109242649424
Ni 3.547457925857117 4.803700296699578 5.055110008603933 -0.072138726947779 -0.6642959237814365 0.031508869241558636
Ni 3.6162071457747995 2.9612084496384337 2.7162318501106366 0.9589723710892581 1.0000783971009486 0.9368395437459608
Ni 5.179293126489691 5.307636542339729 2.7334442061507134 -0.6683783213809263 -1.7350043244951214 0.7000969926404459
Ni 5.25549389826807 2.8902365174297855 0.6246850908468371 0.42692190973950994 1.3870062829460243 0.11243408413271604
Ni 5.766408002985595 8.046163836434536 12.966885380515132 -0.7077097719906973 0.9262910788061531 -0.7997519227306226
Ni 2.562313578699595 5.462069499178801 11.420019733838325 -0.3130161261572738 0.69393097303905 0.24682950302787166
Ni 1.0422425465008418 7.866780023181717 12.037000940322583 -0.6140149161386974 -0.009508967931699754 -1.8108963478377456
Ni 0.7987070661715308 0.624865458483563 4.9754612999315775 -1.3044851843226566 -0.8834986662309752 -0.11094207296822184
Ni 8.45817635368071 2.468422203359519 1.6647267878005594 1.1536280203270517 1.0788757670158258 0.09454511966743717
Ni 1.644615796305625 1.6190819333893318 2.815920496360427 -1.4026578734403519 0.3998042275871115 -0.6155115552888819
Ni 1.7907318010067823 6.927319701184814 0.8861862809312367 1.6050769686736486 -0.3735769184594663 -1.7081193271788198
Ni 7.7015614460455035 4.222788973769854 3.9900054086742562 0.5164646910963492 -0.2900284070128489 1.1842151490852895
Ni 7.856039950267587 4.307862375758887 12.576025978887197 0.7615633274760433 -0.42701421234300013 1.295018639593118
Ni 8.162564728458936 0.2833229412852489 7.258768918307761 0.2171016369461358 0.26622102018060606 1.3154000314629475
Ni 6.791880003061572 1.1070564725263239 0.4906865119220813 0.21227953296714408 -1.2042191030110423 0.221028997025
Ni 1.6420195954739647 6.877818805327825 9.586047980243327 -0.22853096182899996 0.39627410294666593 -0.18727658316490328
Ni 0.24544938136345765 5.226298025757645 1.2662992330114191 -0.7308885241000057 -1.147293850578908 1.0631478147576077
Ni 6.58518597895501 2.193571075314424 7.092591113285323 -0.7077347116913617 0.7610583628151667 0.7611846039803858
Ni 3.669360941749317 4.646734905365062 0.6726464851580336 -0.10040363533074322 0.7006037570735353 -0.5777150532663985
Ni 5.933667102880729 5.944971963344203 5.2859113515908644 1.705661095446314 -0.6416540180122046 -1.4146456419298477
Ni 5.450527792323666 2.984273644395499 9.426216747569722 1.2006396131899 -0.5067682897441917 -0.12238733869068598
P 0.3902162725798118 5.969011872097717 12.544374191484788 0.09452737905562429 -1.35766613922101 0.07549401657325708
P 3.9810052457911675 6.4418939120005705 12.724791019384307 -0.39438537056438533 1.6693946569151121 1.985988216010999
P 2.2797467239723384 8.942636538345107 1.6914321294079102 0.4757062782320646 0.10754873101595672 -0.670195319985007
P 6.720525472835627 8.105758032366891 6.047658538343817 -1.089749476505536 -0.998001459967262 1.0712339341998518
P 4.623533068458962 1.087461988354741 12.73667068782139 0.7321002850199199 1.4523691246225503 1.50070355006188
P 4.081592086433947 6.289046004090301 8.273582830759027 -1.069174737677978 0.6250223229927946 -0.40485567396808986
P 4.853346944182204 1.4109486119796035 3.885718298635616 -0.9897595316734438 0.2884605483050967 1.5804632838900265
P 0.2500068525075966 5.793973279184204 3.940328699918844 -0.16387260241866616 0.8488152559161769 -0.5487631461187388
Ni 0.5844813268101733 7.796518630148051 2.5981712114492934 0.06781721675428966 -0.6428873761986734 1.3865393706119347
Ni 1.941930893652032 6.9404282380155475 4.734993891321926 -0.12840963362536595 -0.09578490561180923 -0.11660081391589595
Ni 5.909782055229455 5.9091717202971 9.203614844472533 1.2609183554752994 -0.40878560515011536 2.114121713156843
Ni 9.096003686421708 2.7353754151904046 10.792518903773711 -0.5922142753238382 0.4238725813902249 -1.2892771091236506
Ni 2.3607481899201375 5.792843704085517 6.882348948042158 -0.003067326071414072 0.15816089674586956 1.9063470100385882
Ni 1.1515927036350495 8.990351976788041 8.533436116526069 -0.3918420353172413 0.015853679202804956 2.112067144620659
Ni 1.5733705797989075 1.439689010659912 12.064372184669564 -0.08792658590965502 -1.5856682251297336 -1.4743687688220928
Ni 4.108474151887383 7.253165679249676 1.7832538316639404 0.11666611993619264 0.9668175781652897 -0.32730554619675245
Ni 5.892364735965826 8.145356927157161 8.572354533414146 -0.7162864579161148 0.7187937977190008 -0.7772547700693712
Ni 7.3532332797261235 0.8952456554122404 5.267699685967513 -0.9158529141919646 1.0138906203936926 -2.2843958482264783
Ni 0.40663246036484646 7.572826322701566 6.839910629394946 1.1138157734261203 -0.5543864058427872 -0.9175138468341553
Ni 5.329754351530154 4.679437926367378 7.362630615789073 0.08986931145832264 -0.38965659763014826 -1.082031024815356
Ni 8.116634747430055 7.729700619270059 9.116832504672907 1.2096137916640524 -0.3323870744847179 1.0280378584283523
Ni 4.942100574718573 0.5239944021707915 10.77945227053535 -0.16413074117605927 0.318684894407277 -1.5430311071854976
Ni 8.293149075553144 7.772387626628514 4.628052279801372 0.6172943582209176 -0.5703385582966694 0.22506845720169624
Ni 7.503794709009211 6.306554418119954 7.206598034858634 -1.0380620754335734 0.2811413889358642 0.18693076978971032
Ni 2.6442442112608298 5.459609940496176 2.8033339325390068 -1.3609345255596368 -0.3032348784007939 -0.03398227048271567
Ni 3.606059188839819 4.340938885301899 9.435135836111051 1.248744953337559 4.070747416845324 -1.2655630533361624
Ni 1.1502809390043158 3.736479565355185 4.287403402257745 0.5276099090798914 -0.016043169505791724 -0.5402677070532179
Ni 0.4117082607276572 0.05748899588955943 0.5322403003912085 0.34336568498340864 2.00746001273153 0.6511015365783496
Ni 1.1789029144887944 3.8337505565147207 8.45338659088321 0.13104964235137428 0.0893553479363816 0.11897805589882088
Ni 5.359879390654015 3.3322920885104 4.915090976592705 0.5461676174774207 -0.4707859581123118 0.3426120946468358
Ni 4.276890155311011 7.110292648218944 6.163092914900711 -0.9984141220246483 1.2804960204969107 1.0024741510266346
Ni 8.198556270514688 7.317150642904347 0.5366866359207991 -0.6031787447551418 0.02964224834646508 0.4554498419758737
P 0.2132218750397822 5.921168900982351 8.351778577913313 -0.1185725929302861 -0.05001824089965579 -1.0069010764497368
P 0.09108110180826189 1.8912730942665497 8.595952632552446 0.18271441771551758 -0.17804966524999657 -0.7083965136450767
P 2.2467704186719524 3.3531892278361144 10.60258176187711 -2.6532046558733406 0.6755311303756237 2.2732827690324524
P 4.122448088995336 6.683704968409062 4.055068934358642 -0.4004781137256845 0.2296984997745399 -1.0210974225547769
P 6.895281671974467 4.427815963658191 10.662485680013946 1.2887975983840707 -0.5551227697881794 -1.3959462657481314
P 6.6653038256723836 8.379971497049823 10.671617930307768 0.8811643616708437 -1.054193176667481 0.4610332496009221
P 2.328127154207242 8.663549503679937 5.991208022786921 0.8287256842551534 0.515732440916015 0.9678357350171589
P 7.002236036762265 4.33500861603379 1.9041274767000786 0.09256665578482769 0.011092767479051864 -1.5563301382872485
Ni 2.813480067578667 2.0375166316401394 0.5334737235231621 0.346399586713726 -0.8489183571529444 0.38269944958602475
Ni 1.9346888597531902 1.50731776495551 7.238717138410742 -0.1865733864502916 0.7555014375526795 -0.59436526022857
Ni 7.531496627356855 1.1888413534619218 9.633459162167743 -2.217116249143214 0.07950210929138567 -1.186749228361053
Ni 3.114138342838124 2.242151914034578 9.195041916042094 0.48343527144520615 -4.815316266645901 -0.6261795765256892
Ni 6.37413762503254 2.4427516982941904 2.827065940983361 0.562105885974232 -0.3991020593137643 0.08539147819262713
Ni 3.747820863725069 7.543102100548206 10.038104845685625 2.7842694677333664 -1.5073894467224878 1.039050150378456
Ni 7.552676160457241 6.494637781527983 11.631395117970817 -0.7657591107249457 1.2064652187327416 -0.9939979952348235
Ni 7.683005442206585 3.898090789756883 8.57696757236556 0.6155688908893785 0.061176571509320446 0.5687367610271883
Ni 3.1096018234901703 8.490806498870208 12.657034732416276 1.6420872273494107 0.5980990162393893 0.49606992949008116
Ni 0.19681297483602944 5.175740430614788 10.35511463144624 -0.6438050029169364 -0.857053327555253 1.1236612987616326
Ni 8.982545155339857 2.6066129634166604 6.372415023007042 -0.2540946692307172 0.3044085869939209 0.11077572259368663
Ni 4.094864593843522 3.235704308096038 11.808466035114307 -1.0191498119101028 -0.9880114386340856 0.008407764447721004
Ni 1.3772890959340438 3.6913056708842973 12.565426191912742 -0.6664093705800136 1.190553946819124 1.489760420786815
Ni 3.4739262307232175 8.759526949161943 7.8796571793067525 -0.2892475629827663 -0.48959974838470527 0.8634090945699519
Ni 5.723083332264977 8.463714915454918 3.9960459026092523 -0.20745897165004917 -0.7292695004393441 -0.1506653596997728
Ni 3.171846877113799 8.95106280420225 3.6806749116893935 0.44412696076388675 -0.6202668105856801 0.5716536775636671
Ni 4.053024767809082 2.783309481071794 7.0415671129404265 0.8435833180932762 -0.7893708366066147 -0.05252943735728373
Ni 5.256004028957799 5.294209173827915 11.636461808857026 0.00016866436738035466 -0.39847856679715243 -0.49713745152264704
Ni 7.965408326354999 0.19170802414809124 2.6385562540703438 -0.6556084233097677 0.896814666613591 0.35717893671741713
Ni 4.6499687695588845 0.9165590978186805 1.7181374710152615 -0.3440465131005172 -2.1686848931147034 0.48078523541686874
Ni 6.177145193507444 5.98015276198235 0.62599412263459 -0.2504596435812912 -1.1149594001122605 0.06940204474290629
Ni 8.453740038575381 0.378353001200615 11.523280205863884 -0.21508923450179734 -1.2970073878883728 0.579857296420382
Ni 0.2610548257308861 5.05486678557865 6.132267357026133 -0.39442959353875945 0.07812091267314288 -0.008159395882340787
Ni 7.315857097226819 6.322596206416633 2.932967250275932 1.0864978023374579 0.5258877841824621 -0.5463391100582785
P 8.61225404093229 2.1967229542188256 4.048243203540526 0.27823269992950145 -0.5707599621048042 -1.2484973561031274
P 1.8715875153289436 3.7070012990700887 1.5545986813645138 -0.586685632196125 -0.18312965087606525 0.5920888054895674
P 5.115262615452009 1.0292524328659385 8.395696275560741 0.04229413278252071 1.7530889499109743 -0.4668709393286217
P 8.491198206364107 2.0303748019839234 12.831732630904863 0.5515353095472372 0.6509819802813498 0.12509008233382973
P 6.3080392628061315 7.986970457472682 1.9438985405981324 0.40465487081119345 0.2815103422395087 -1.9761244358430419
P 2.2075176839925708 3.621782145455417 6.485782459322871 -0.8447261734484678 0.1817152870270419 -1.4062098524576685
P 7.283709754297244 4.312635741498501 6.362402797273436 -1.1098344201808692 -0.9618406937759887 -0.9224917596647211
P 2.377810239596276 8.954433310545108 10.511732951722207 -1.8610691120373946 1.4216904645917707 -0.33056621922589524
