# total energy = -340888.17653307074 ev
CRYSTAL
PRIMVEC
9.05089279211354 0.00000000000000 0.00000000000000
0.00000000000000 9.05089279211354 0.00000000000000
0.00000000000000 0.00000000000000 13.24689647952401
PRIMCOORD
 96 1
Ni 6.704213652540716 2.2016478194412956 11.769033628876945 -0.8880358919796966 0.7388715423054824 -0.3326840368998464
Ni 4.492455985639519 0.6045734035485922 6.308450685691448 1.7550118779653001 -0.5345670571240149 -1.8038427834250739
Ni 2.861159238295935 1.9275324746153573 4.870711810195422 0.10223708899505618 -1.220054784491718 -0.961563528855202
Ni 3.474158118120644 4.686896319552734 4.992317798111038 -0.5984530571446983 -0.3141422693419171 0.5457179315345116
Ni 3.765497312289637 2.6598040221451518 2.5419604904417836 0.1942591851303235 0.23630854889188976 0.8270812066731948
Ni 4.954386410716498 4.848047469081421 2.7966453782158722 -0.20320328169748875 0.047392373241034506 -0.10479122287547758
Ni 5.408487813364816 3.1267576928266476 0.43739164402659036 1.3445082616828135 0.10827378210743933 1.3996738511113638
Ni 5.775012775527901 8.371632513771914 12.501652730697215 -0.30078564552935294 -0.3564335739109603 -0.1154060222768464
Ni 2.6795530706299364 5.431712404754348 11.444948303902292 0.6520551587408706 1.5093967069605037 0.1509625792252174
Ni 0.8534548587431919 7.745030141796596 11.634894869450385 0.20126004192818886 0.300289936839857 0.19589774917501102
Ni 0.7360720174925627 0.3713219354430738 5.03548965254164 -0.584635948755948 -0.1926897837606746 0.22037336571887206
Ni 8.404125219574103 2.7426558964942447 1.5945293047864146 0.9596377725873989 -0.009995163539498914 0.6734657632061627
Ni 1.5098699671089935 1.2124214201777503 2.8567731755572887 0.5402003441503923 0.44864696012142735 -1.1686851717704905
Ni 2.0730708337516277 6.575790532031727 0.3189914824048843 0.2985750110312793 0.022482497373232248 0.2994594705187617
Ni 7.622924544588422 3.9659021846774043 3.5186667894445574 0.7358039591237521 0.1378090725623949 2.0242266906669073
Ni 7.7115327868735015 4.194953133350388 12.939873436520875 0.9568093019996682 -0.5539228359428073 -1.4404353492994417
Ni 8.260740972967339 0.24303186306090732 7.051071024255846 -0.5878577981273554 0.1697210907796432 0.3089733235464679
Ni 7.293272920430385 0.7706572897519853 0.6065474033077726 -1.1041024027930986 1.2370430915195987 1.3132469896756866
Ni 1.5899703699918288 6.9129091428991805 9.415218576280015 1.8903706892149896 -0.35155130611799457 -0.35058945642535755
Ni 8.969027654097188 5.259075672032631 1.5937337312933748 0.4499245412822702 0.3868245274979919 -0.03204905801574481
Ni 6.418793742381369 2.141613246297584 7.180546763618538 -0.15447316348163717 1.081867502654298 0.10085203572207146
Ni 4.064719834245178 4.845042572611692 0.3736887439576344 -2.945943776949133 -0.37329229733951197 1.207034203862334
Ni 5.762260067317515 5.581948177347814 5.005935771690417 0.6760749186942356 1.5446061649821012 -0.31574303817013366
Ni 5.409447208020814 3.1579832736114817 9.596383060368535 -0.5610990419762724 0.29557556208332325 -0.08448927809333191
P 0.2053846737059747 5.925728245449367 12.574391137229213 -0.47711190033033957 0.5100204781329023 1.6420928837763655
P 4.283860055103846 6.723292934944898 12.841873082589295 -0.7919077440958555 0.6730448736186603 -1.8613113099551881
P 2.7411987027242857 9.052431632918127 1.5774665613384238 0.1889961369591713 -0.14583014309465853 -0.05803519766686134
P 6.60701611281656 8.153913283111281 6.250534926594615 -0.7603219988697745 0.1568028400560783 -0.8319290216837995
P 4.9205451218601235 1.448124775191852 12.65038877032371 -0.1929360954435258 -1.6786413723243607 -0.6137719468899558
P 3.9306670583019376 6.415408708406433 8.347306428706581 0.5802802428904136 -0.3560736194683803 0.7822915611623301
P 4.913385865512064 1.367571827659961 3.9692473947232227 -0.8580439736032965 -0.32105930817672446 0.9539036983170992
P 0.2863277147253515 5.942943043899441 3.6373457185700815 0.19333410221289285 -0.264913357112776 0.6920928913890467
Ni 1.3423107853496794 7.509100514457965 2.4207111077096237 -1.1692695835190507 1.2110083580187336 -0.051393009759995355
Ni 1.997495877359348 6.871962903052633 5.132655514140361 -0.22180058508370187 0.4488709032067753 -0.5742425213367659
Ni 6.01793874314093 6.207853630563589 9.316370153676104 0.9428050173007763 -2.4049906137931165 -0.940905229174902
Ni 8.755987735107787 2.443813512043911 10.75516888874022 0.9415132950725462 1.4263048234353306 -1.344229811210446
Ni 2.3066743815941115 5.636452654880068 7.196614813927905 -0.4661122067857263 -0.4389263903995538 -0.3563387002043089
Ni 0.5916369622106898 0.03581528861555568 9.528228026042171 0.08123631837367298 1.6707015486519934 0.34483507044008355
Ni 1.8161521855898013 1.749139373957653 11.74946740843038 -0.8948647419760718 -0.8981899496945627 -0.6908132533456748
Ni 4.147254927339932 7.222902227502244 1.8345761833421517 0.3229961201881211 0.31589344770506883 -0.41603508762367714
Ni 5.682250173364491 8.326432354224245 8.30078393369437 0.6476714278508781 0.6449781972894311 -0.8218657239105265
Ni 7.0522928948082955 1.0939814346269277 5.167124029880328 -0.5125283321564206 -0.3082253896368498 -1.6891736393142525
Ni 0.970300982040041 7.8786032204118355 7.23671389019142 0.14557380410947832 -1.2951276543671566 -0.013952091304717907
Ni 5.023318011660642 4.686117942756358 7.246741374525193 0.44175280410475537 0.7193931218658964 0.52427210295591
Ni 8.163489127885297 7.363372086569092 9.118050607031185 -0.2693315407851297 0.6582152648049955 -0.05620688620887094
Ni 4.738821292585369 0.8436907553951689 10.57079857835779 -0.1933479861699638 -0.8141968945113591 -0.5992938078784389
Ni 8.310575189721337 7.407033594309973 4.848960704183216 -0.3793019938687016 0.7985296202877474 1.5161965034911566
Ni 6.96217315339537 6.137383377812655 7.06325895674421 1.0627796327849115 0.4917070245356951 0.040439853182601314
Ni 2.52256533187256 5.7097648880270695 3.0697434026707326 -0.15169020141986134 -1.647313765855673 -1.2648488008779573
Ni 3.245161474805546 4.228631506133104 8.979607242902807 0.389669967366587 0.514198777880308 0.603036819860639
Ni 1.267668070934454 3.4027194198207322 3.745997163361833 -0.6036816525334894 1.7413084123362785 -0.03743886157274843
Ni 0.9140949366273396 0.3370842174741258 0.574910911981596 -0.444671263303131 -0.3224361339195931 -0.7039305074539232
Ni 0.9225394197787166 3.762085125635758 8.132481673621308 -0.15958554500753805 -0.5993087202767743 0.06143239627386839
Ni 5.453868990772108 3.268576134947681 4.876672728312783 -0.6003682718895402 -1.3747030400986389 -0.8298441141303128
Ni 4.277687346090728 7.090007965860586 6.281678144253321 0.4094862307615657 0.6794093823841074 -0.2188798118924811
Ni 8.190976689868931 7.7296888781936115 0.42487425903371334 0.613290379267847 -1.9973483782188246 0.05673473368788293
P 0.09907378983913906 5.847972023848639 8.09373480076917 0.2777591027271926 -1.116124109844323 -0.6010159327758682
P 8.822013999404996 1.7557103222619397 8.469761390383825 0.7521348350732918 1.9309948904942549 -0.6053204736884931
P 1.8780693444735839 3.714468377662131 10.645073826517981 0.13135663206883183 -2.509721158633987 -1.0386480298440306
P 4.258218875288357 6.7627910319144675 3.971843190830206 -1.013762065235628 -1.0863607625389613 0.5593303801116238
P 6.982854443857209 4.279877662192157 10.734424242027512 1.5198546690690342 -0.4732305629980624 -0.764996007306676
P 6.564730340808809 8.266786969478721 10.293885602511388 -0.6554839819167614 0.4749915115532271 1.0416881022219349
P 2.5091157049026287 8.840595482695218 6.042082000168044 0.6776224656870137 -0.813867021975766 -0.21801155035491487
P 6.735104350285249 4.446070159111323 1.6636247268935167 0.8224316237163256 -1.7874352886013283 1.302222870651041
Ni 3.0765795421393665 2.0658572720456823 0.36402872587889423 -1.0757724455001536 0.08052206591546777 2.168133391486608
Ni 1.6177475605508598 1.2565354725676874 7.376640695679401 -0.4516332964432609 1.4347508973201548 -0.922121777919812
Ni 7.042816609857072 1.290747848036288 9.371106334068672 -0.8775203371603533 -1.0272575286189016 0.8732985857695218
Ni 2.6699138696050526 1.8304525964999572 9.416198787989869 -0.13323199471467376 0.1319569846569921 0.6787619786080955
Ni 6.280477995844026 2.050108718258548 2.5597373493459847 1.1152149677664922 0.8606438731199887 0.4025367960269261
Ni 4.378514293900308 7.202193784361461 10.39505195880776 -2.131748682209987 2.0905871203700124 1.0978795618118382
Ni 7.306840209009071 6.511456784721988 11.423713098790008 0.8535861949422591 -0.2195290154407058 0.6152616440616049
Ni 7.455130039611599 4.080242115707784 8.56716529046795 0.6440777969623488 0.06940538717701596 -0.147510616120875
Ni 3.2706306876543936 8.88419363418523 12.699243680457155 0.1860807630845892 -1.271782808993629 -1.0261110737192844
Ni 0.37325611127313724 5.229162470730057 10.594178845106596 -1.5177579344410055 -0.8506705639573608 -0.9923098088991232
Ni 8.770921708526622 2.6647639114988007 5.945154177054726 -0.025056428747995556 0.3651614407022615 0.0542541333578743
Ni 3.8140825058122427 3.1803570810607886 11.721913774927982 0.5292549008824821 0.4155604619801037 -1.4744533581160992
Ni 1.2263054900107753 3.957439599740065 13.03746287991111 0.3793989244578821 -0.1801587411731994 -0.4411156847413887
Ni 3.385848555303941 8.763771503071544 8.164300992985702 -1.6247469362987503 -1.3127006302539133 1.5660975020866577
Ni 5.7736551415807345 8.424978477002584 3.8950508893319666 0.020541571596777528 -0.644825987982283 0.27408036832402477
Ni 3.1007363755059525 8.828793118247848 3.7862012299839294 1.6038667504156312 -1.2533510846510028 0.3456773638357208
Ni 3.8679534208358177 2.8574121686017553 6.683589382704657 -1.1607067815507044 0.48708546660328367 1.4277464409778637
Ni 5.213051881223679 5.135386168552762 11.309551470351357 -1.355848112175665 -0.051612067749336916 1.0736829099609768
Ni 8.42868029223186 8.889913798549292 2.9584690090930557 -1.1097248911861985 -0.13749154132197614 -0.8452787035178282
Ni 4.8682671640012245 0.5070418858734346 1.4203982696335156 0.06919404249715824 -0.13319137128472547 0.3692746915396866
Ni 6.201970550125866 5.842966880030085 0.32355584773525875 -0.10264666572864901 3.308118367108928 -0.23119591025567277
Ni 8.009298115059083 0.23029273118999313 11.773537353224347 1.0010813844441662 -0.9001884681818304 -1.916217217964448
Ni 0.0334837785836214 5.365514173490499 5.871236439167288 0.3313321508576423 -1.353740836024675 -0.10275850871616496
Ni 7.104625158025081 6.389821833948831 3.0629081682913974 -0.18908535423886788 -0.39810138596339184 -1.127346975143336
P 8.762142342334943 1.819700135638397 3.6986790948565824 -2.2526288402275267 1.1167828264742445 0.5465532829516135
P 2.126090964834978 3.8448555419480215 1.7462458034715918 0.5974359287340936 0.314274166934091 -0.20091474277362817
P 4.538986626455412 1.5806660520072464 8.287218455294282 1.049860096509766 0.21629379633285975 0.8105371862715847
P 8.891153770887705 2.0164665490477574 12.915393486274862 0.16123645034739975 0.1435750285118947 -1.0532123008114505
P 6.54194019228237 8.087642644703584 1.8247469135646646 0.1585532470882818 0.14600652077152274 -0.860072831107867
P 1.7916242656109895 3.4178615637781316 5.92357503800916 0.18757071736655437 1.4834097959784387 1.6060534736543048
P 7.006024729888854 4.125623293115076 5.961262051293209 1.370548137390001 -0.2868692925585769 1.567429847744836
P 2.5216149881095435 8.741542509909936 10.443760244474909 0.5947139018172403 0.5865267380207576 0.388536367982776
