# total energy = -340859.09101466613 ev
CRYSTAL
PRIMVEC
9.35992001663991 0.00000000000000 0.00000000000000

0.00000000000000 9.35992001663991 0.00000000000000

0.00000000000000 0.00000000000000 13.69918905956887

PRIMCOORD
 96 1
Ni 2.0640963073976293 5.287063001424962 12.119138007629168 -1.8439249961579405 2.2430249985891755 1.29507031876666
Ni 7.007013778699495 7.889120697634194 8.633036825084712 -0.8897703581722999 -0.8734754776670183 -0.07059786482322035
Ni 6.913686018667471 0.6475323536134151 13.424834647723353 -0.12389863312888984 -0.5729829378980519 1.555662679906579
Ni 5.359068864219702 5.54001483322372 2.356233443315739 0.737601417343807 -0.041001896333658416 -1.2428350156110273
Ni 8.850272139031079 4.430826900736025 4.106496320767155 3.8632840743199015 0.2750262771770618 1.0441316786664212
Ni 2.9224009503558546 2.23271526206385 2.597393648187574 0.7073739859178334 -1.0254567279647373 -0.6193556116253204
Ni 6.675616459303868 2.1538860177563888 10.8108383738468 0.11209469851542629 -1.4945239036137294 -0.4230025200804457
Ni 3.7919468569584946 6.844862528594715 11.764547743034129 2.2493835938173516 1.103419517793461 0.986674722100533
Ni 8.393049418160125 2.1715201066040803 3.140758518682708 0.392545232031853 0.141996114060549 0.44007053130632595
Ni 2.353289748547905 4.076881534613176 7.2397472478019145 0.5578676795231683 -1.1715424387136275 -1.4808219806466045
Ni 4.97666934199442 3.2089080945319863 2.015383540943848 2.0510924047095 -1.5836599364504533 -0.036110886789944265
Ni 9.282859551065977 6.655389672679738 11.06969818700472 0.6653853001908734 -0.45673076557082626 -0.19934765539682442
Ni 3.1415353920236626 4.515768172653647 1.9289690176543437 -1.7503520105957857 0.9348687931728351 -0.8229728409317761
Ni 8.297774794815831 9.489367460963331 6.9640919946077435 0.7078221291988455 -1.86135964669462 0.7448902376957365
Ni 5.399522437467962 4.510189660470407 9.104384600881382 0.4345586003491612 -1.3338924338401803 -0.25780811352656247
Ni 7.46462961620081 5.346236414214296 0.6965923730906838 -0.29630112739543807 1.2324747554226259 -0.5303347642102221
Ni 0.799036694979209 7.610045329755869 3.544692408324063 0.8845368776875023 0.7014774179277403 0.1240582986352057
Ni 4.199749201441013 9.456514142568748 9.873676406821803 0.24461835430916584 -2.5979706751007003 0.2693647080159103
Ni 2.258595440229384 8.096770517743554 9.20753934068049 -0.8444682918013908 1.0679220962177993 1.9732609982523177
Ni 1.8625865946577427 1.3032190693309218 10.151920613824503 1.3023596533392217 0.032752768950988755 -1.47382703738601
Ni 2.0703861734834303 5.951888742806421 5.369808436164415 -0.36750037324808327 -0.1092250902771151 0.6893814059951547
Ni 8.110173922854962 3.0696699280254807 1.0254278824451142 -1.8331860124738815 -1.438584155023316 -0.918364881980541
Ni 4.094627942498114 7.202982418935224 6.152606606333721 -0.4400553617976744 0.2050927854107178 -0.8835292623585945
Ni 5.371714115829697 9.081799114475077 12.056108307894373 0.1396137298713015 0.1704836799772806 0.5137341795390635
P 5.297920508358785 6.263761269560708 7.700300228127225 -0.02703617818218569 0.29585195567316147 0.5469841998414451
P 7.323042109831899 4.745881800212294 2.7693728140514176 -0.868670085858575 -0.9375856778833659 -0.7515103141154155
P 3.905613722651893 5.217153760658823 13.301062812645682 -0.09401984329158647 -0.9297605254119924 1.1963422713661267
P 2.2510232651350197 8.5467205809528 5.012067622574613 0.3562327707540639 -0.9014837899544861 0.582620460987816
P 0.20850063681650088 0.29482998483609296 -0.12486039374698396 -0.6583237653584018 0.40969603277952665 0.9142161499194901
P 9.335499739855477 9.001921559153317 9.338750439991784 1.6637392584015476 -1.9977286443763789 -1.9035715041759793
P 9.50574732056177 5.901972290670147 13.665612031876572 0.47310046517810134 1.7353683927027594 -0.2089414697328466
P 9.409340146925242 1.7840381479433975 4.983354196694537 -1.3248807172598729 0.8165844209069292 2.4847151235079528
Ni 7.507170451557899 5.9663498188519 5.088303233113659 -1.2742742079569152 2.452589446618002 -0.4059589343345976
Ni 6.285906839737797 1.524506292545953 4.190759934493389 -0.7108308341181822 -0.7907918853238574 -1.265776197788233
Ni 1.520930803193608 3.187735956011032 4.20892473079207 0.22309102176035128 1.3385723558143527 0.6168737257437312
Ni -0.2586688707946011 6.490495966082191 8.275049845604945 0.4970086392542666 0.6578177722562606 -0.5283462730252836
Ni 0.4558954842474904 3.865815343787571 13.363284751304278 -0.2052545077995626 0.7866197562240388 -1.7330826819923766
Ni 9.56396602153451 3.109449587050262 7.668915481144638 -0.9584555793538396 1.2912262624302215 -1.6304601846334434
Ni 6.982809026172886 3.7547879754694637 4.773455187864318 -3.638667102833327 -1.0018714844456293 0.45796412375729517
Ni 4.334045330308674 0.9894558387829869 5.43398847003901 1.7934645255145436 1.8340822990359056 -0.3455076710270759
Ni 3.737762281406857 6.015994833314827 9.674311987693322 0.657572489014674 0.4645955130308838 -0.6693535408100021
Ni 2.3802556774068218 6.341607722292262 7.8633612624337 0.9804696217310856 -0.23501759799460814 -1.8851714044022372
Ni 0.47689540024466676 9.383413169160855 11.52919630437189 0.3124857075751005 -2.4677838949702533 -1.1092577217417927
Ni 6.225525997298065 0.8541656864356939 8.26678878041547 0.13339191733130573 0.0434740120232348 1.161436460627877
Ni 6.900104775080423 4.84711869245042 7.031724902885688 0.3941876527312824 -0.4511463295045134 0.6639987042559921
Ni 0.5012967110864562 7.826381155412286 0.9160787477418637 -0.05927575494218179 -0.0068095667226656924 0.8181821044113521
Ni 1.750585794683499 4.804989693563234 9.2496103080651 -1.9585100651953884 -0.32592769201261934 0.8688120107530779
Ni 7.617898302443349 4.164958379653927 12.246704354181816 1.4123025956189676 -0.06988721190944093 -0.14115562043712465
Ni 7.631797783302597 9.253226045072457 10.526717073220178 -2.735163968455967 -2.4122100143596907 2.1786191215092803
Ni 5.106884545842129 2.6640578047692682 7.105015882664923 -0.8079802241776859 0.356886859398295 -0.4053909776462695
Ni 8.611360186888126 4.359382633127518 9.206430190187682 -1.0601493942509161 -0.15449193253471458 0.8297584963950418
Ni 7.523877908348307 1.9997374990554184 6.12733201497734 -0.15623359781616963 0.658622270435427 0.4317141889218306
Ni 7.04320858845216 5.6890809154892885 10.498524058879344 -0.14555066418102675 1.2319402230753946 -0.6823275844721668
Ni 4.3320984669964036 0.7319260702244602 0.5263588322640456 0.608837485702816 0.8388365474369103 0.7104461970852539
Ni 5.712546234354024 7.98738113538529 2.849362688410425 1.039196446148333 0.27655711199929145 0.17090611222667984
Ni 1.453380262209644 8.194591039265434 7.012491203749212 1.4837255274466448 1.9027189263676973 0.9669615599423219
P 1.9602667173830648 7.5254035752709045 11.49111266280953 -2.9858768656986445 0.8016149440812904 -1.1623108928130306
P 6.978203945645782 2.901865286379297 8.158962504658884 1.0933335943123688 0.03754787634678695 1.0247450466096932
P 5.08634888186557 6.383362324388626 4.286435162403862 0.4126432883333087 -0.08255040919940622 1.7069031953835314
P 7.952814951672697 8.251143674519017 4.368822112216105 -0.4783645417905181 -0.1726567763691994 -0.28565624608708223
P 5.718676981803727 3.8566707021717566 11.303789780465845 -1.3797233761313656 1.8438224091418052 -0.2404955903900439
P 0.3749246902965306 4.201808383790531 11.02951792341376 0.04975547415657238 -0.17285500842293458 0.4671337060717052
P 1.4002439976723065 2.8484482242488434 1.1480989909577695 1.3576208878053715 -1.3128690375109777 1.1091263383702512
P 3.075173560850556 1.9509442372916102 7.960489149892561 0.2379309149866612 0.6705203074245936 0.7034900774823949
Ni 5.808466692162486 5.954546960021254 12.506482375469226 0.5986505178674851 -0.45627208076685294 0.8079992503410794
Ni 8.131561339530638 6.84338366127097 2.65598487396718 -0.8160797133563688 -0.044313991426026905 -0.6545344735192986
Ni 4.425313907991179 4.785829937792945 5.939393249912754 0.46291221179118985 -0.005137835447197603 -0.42666917029875556
Ni 3.6529894880451055 9.235863393898113 7.358368319029859 -0.27550578791664165 0.3840557065036031 1.6187634650218057
Ni 5.738332813321853 8.929017144060605 6.430097339794894 1.8346808518518531 -0.7914323471213338 -0.5581615566145033
Ni 4.31112288679063 2.209240583279344 9.883073766271421 0.20810843230858997 2.2856001529472247 -0.16773594202881434
Ni 1.3707228107160332 0.8079604424884389 3.8116485520834975 0.011675893676031505 -1.9019681642446018 -3.172686793639775
Ni 1.2537986929424874 2.091670631041631 12.2003465435423 3.037657340705046 -0.2523308924620751 0.5066898710977726
Ni 2.566256003086929 3.622485509512926 10.934624248804127 1.4287566274099328 -2.6943621039482566 -0.9214363218170131
Ni 2.2253770849637493 1.249951765916797 5.863705194680285 -1.260351427228236 1.381869218829775 0.3685498975585201
Ni 2.4839167888655167 6.676243573928494 0.4711119058184521 -0.8668577152401845 -1.5524930239293455 0.17960621110383906
Ni 3.7820347019214964 -0.08173737138016678 3.587160236306943 -0.45331299813852893 -0.5732768149893869 -1.1463836800598126
Ni 0.2685978736871865 4.5279547881948865 1.9599428641590042 0.31085459972958074 0.7695427461370941 -1.0341452568776706
Ni 4.487164257834887 7.663359432768846 0.7415003321577422 1.5619515982390841 -0.2739464138493218 -0.3059759314810408
Ni 3.461335770823594 6.720450475004739 2.918653238479732 -1.8698671699449991 0.9514069000371744 0.22310824815153188
Ni 5.908964150738739 2.736297665558271 13.240580883072427 -0.6572253900879005 0.33166356605513203 0.1660662676358753
Ni 3.261127086931811 2.905178697978067 13.41716325747942 0.2883325073676647 0.6935296238355734 0.17954656151049725
Ni 8.53609707201324 1.8093848106820114 12.396053106024455 -2.3524832879230195 0.9094588377401627 -0.4127584737549343
Ni 9.327731006445932 7.4337980404766615 5.825388491115639 -2.158222817241115 -1.871928423349402 -1.2625258091717353
Ni 7.7347569007785015 7.849846474277022 12.694449220293123 2.2890150921660446 -0.21323418357092955 -2.6474569547562856
Ni 8.415138828818593 9.433114343142405 1.8025801490088311 -0.0971373058746456 -0.3601609021638765 0.6145011117464966
Ni 8.492367526845293 1.517392753520345 9.457728124162985 1.0687060255716754 3.8151527660303133 -1.6924921621645237
Ni 2.4811181728541265 8.906740535006726 13.20538758473521 -1.1485089539329316 0.1265512402603885 -0.5060704923462188
Ni 1.0644755957438394 1.145354662481048 7.800386786225551 -0.3093397057469511 -2.0179886801769955 1.5230140406336223
P 6.650934350868963 7.569544956908756 0.5608407766987031 -1.997374860581386 -0.636350089300788 3.5909826522731705
P 5.748975042100954 7.522810877494466 10.767315682905782 0.8421558416181304 -0.78912143959997 -1.6270930679334237
P 2.737973091197197 8.691181582691264 1.6994525529770566 -0.18725087213329042 -0.22091895380969695 0.22956428818952077
P 6.731064624024528 1.4235408379811725 1.7879225146481703 -1.380833064255777 1.1000431451220605 0.4460707147538188
P 3.6555541060622323 0.9785983318491643 12.085342145313692 -0.7532229259311479 1.78399566679216 -0.804039494362383
P 1.4334717128577121 5.4918112464054545 3.3916586560677633 1.3287062616535505 0.15107853597779142 -0.20252245358038024
P -0.09404660187039975 5.070923734083726 6.332724222438046 0.11583385384288437 0.7400853601079255 0.706965180515189
P 3.7020916271613413 3.0882025691711434 4.558514926245689 0.8820454787242165 -0.6390484620685575 0.4461959274777735
