# total energy = -340894.34619503294 ev
CRYSTAL
PRIMVEC
9.05351639968443 0.00000000000000 0.00000000000000

0.00000000000000 9.05351639968443 0.00000000000000

0.00000000000000 0.00000000000000 13.25073639440551

PRIMCOORD
 96 1
Ni 6.391673733255051 2.130763124116901 11.41558842516077 0.13577661551339842 0.07316022623375787 -0.24053569959935994
Ni 4.742729683131052 0.4492409016135623 6.167608262985969 -0.24134482576421662 -0.6626753574588781 0.035184261210616824
Ni 2.772168526625425 1.2816338479224174 4.826156928756434 0.20558489455578788 0.8419897483539113 0.23409431484939036
Ni 3.4401097848597826 4.60651953321799 4.912472246021713 0.2558643595366303 -1.338520419530495 0.6074997407279988
Ni 4.939833782417011 4.452021280757612 2.7946728516263484 0.9300392329946757 1.0343092932593605 -0.7185384871750851
Ni 7.227068825506823 6.042633526568562 2.6950542977853122 0.09019481311854144 -0.6719403277005718 -1.0027459166307828
Ni 5.093535325459486 4.669522951845109 11.26735248979543 0.5613150146418204 -0.3829899842432501 0.5191440377007253
Ni 5.477078482050841 7.9924711846926 12.507303044184134 -0.3603411364954826 -0.6020320327452083 -0.09022463791521236
Ni 1.5868550366242473 6.410695170607483 0.38505962054020354 0.441748176119065 -0.3671828420076644 -0.45563907516854435
Ni 2.6042076957057096 1.505608783030375 0.5271844325295827 0.9667031640746124 0.5995272640454836 -1.5239290962487237
Ni 0.712609496030374 -0.0035390194483892073 4.819795928335767 -0.09454049168174686 -1.197378940160757 0.10569470852635346
Ni 8.25651698211463 1.9871471980237878 1.4426343356548168 0.9149738540211209 1.429996413354305 0.3681027827187725
Ni 6.914930750495017 0.6152325927788013 4.885440257612912 -0.6509133318269434 0.19716350326131207 -0.8535406864163043
Ni 1.0583741405873501 7.254455711747236 2.5621885167242207 -0.9741151402679674 0.5348707044073627 -0.11138455982227913
Ni 7.780365409208174 3.85940527657953 3.958339384602459 -0.5865632476856478 -0.02221073176908433 -0.8029285206863913
Ni 7.6574820350127615 3.808642211736557 12.755755065453934 -0.25238411429751373 0.9330283975299867 -0.1920146120705209
Ni 8.048820268977007 9.024209880876878 6.861084963415727 -0.23131829476615004 -0.7403668959040862 0.2136401607600966
Ni 6.643868478085776 0.8018726381418947 0.1100029368221115 0.6178497165037553 -0.5575321505606204 1.319297823855457
Ni 1.878975787511242 6.55099750980341 9.445111466354989 0.43325736503923445 0.6068029717712905 -0.5677432867656674
Ni 0.09834381877239132 4.55916059043333 1.7735584566001283 -0.4561810637149434 -0.2054617387143623 -0.7447719669503173
Ni 6.4228902568110655 2.110519462089277 7.150136572340572 -0.23394364820413904 -0.9163581359631572 0.10682470836573861
Ni 3.3804652207104144 4.311718941561686 0.3499555171654675 -0.4086573071023672 0.15320715228502002 0.7821270105600079
Ni 5.930044000193099 5.517991321363378 4.788232655112644 0.8114710109397637 0.3075466184022704 0.7992780684179976
Ni 5.241180066222676 2.6350620786172225 9.456413875869874 -0.05558673612636878 0.8327533173573077 -0.1277141502202381
P 0.01248751477401697 5.464475987622194 12.28031872032037 1.6120662555072884 -0.3795331360429012 -0.18102725982108178
P 3.9526564925386216 6.145137435994662 12.54811538946782 -0.011986482937914841 -0.07683793219566122 0.04440192315414288
P 2.339491938091353 8.465336331250207 1.2502570771312114 -0.49093363670478035 0.3028702959725236 1.0413132353810195
P 6.231779585191604 7.780754710401013 5.937217101009058 1.5557693806877722 -0.27750636328643824 -0.6460614030512809
P 4.636323708260449 1.2706338258456897 12.5034869871427 -0.029019527160801636 -1.5182559571233467 0.7060421544802872
P 3.866349323437843 6.226419903652984 8.33806562314666 0.8222539604878808 -0.32822471557691213 0.23143965083536272
P 4.673126251257897 0.8889104259929544 3.7207533933709187 0.847955736129359 -0.5649042746549755 0.5791443295137575
P 0.306858064414976 5.563023510507118 3.717838161182683 -0.8493811557219759 -0.7924116803154675 0.20925128766378154
Ni 1.4338777748707747 1.109725683977638 2.5292210431520425 -0.22725569466100218 -0.19530716677886362 0.639645472222608
Ni 1.8910169639409111 6.617984475520043 4.725874752184349 1.157507043666484 -0.46211105604613323 0.3021007647963507
Ni 5.971074535215099 5.564444912536785 9.083630823178265 0.06844610858754019 0.23338571881814002 0.37480847687372226
Ni 8.587803243704442 2.503052760180377 10.251683784710899 0.762684328454364 -0.04378922927080845 -0.6856029127893289
Ni 2.3001091430018334 5.216645037557711 7.2146410639391485 1.0413263480071422 0.7136379645496742 -0.9720988811688871
Ni 0.5693593319882071 8.914562747237989 8.752601681446048 0.5997972298774186 0.2645832274668669 1.5487667241176941
Ni 1.3271820874845717 1.301578743918328 11.540768676393931 0.7541701203357657 -0.7749142948616525 -0.8546210639646765
Ni 3.9047181247227587 6.8259165800765915 1.3791900107930182 0.3574977535094166 0.3453243513716762 0.6771496398156532
Ni 5.892607711067774 7.862182034317136 8.122118440775685 -1.4393328602638824 0.4890037666719191 -0.3834203869124493
Ni 5.350093865056451 2.6659798361415232 4.893430890933834 -0.8382809320437563 0.691163694706558 0.30513492363698413
Ni 0.8649077440754067 7.430845366167719 6.780044224637609 -0.4219486248946346 0.4038076923195497 0.16966915449578523
Ni 5.033257015182241 4.746450678253303 7.045919737665981 0.23830783871010572 -0.5851324287763923 -0.3210775630091696
Ni 8.050286938587236 7.222958529191733 9.120866124245893 0.11844866575791213 0.21749090196475446 0.6358075865337567
Ni 4.447557897314134 0.16167044792472693 10.434013451052815 0.103978240055879 1.5067731532947275 -0.03721774670087784
Ni 8.014172462814342 7.102917959055656 4.666604098250428 0.7611138986434505 0.9209858645431559 0.5318486297515873
Ni 7.577050597869017 6.162474919350163 6.929406417407346 -1.4783719764442151 0.295963027329729 -0.3644790699232561
Ni 2.466530876182418 5.144488514140823 2.581084110202689 -0.04750704444202786 0.20546970913416227 0.32451435660486044
Ni 2.2519625443153823 5.184939624131621 11.442726339708088 -0.04086768474863929 0.2643299738054803 -0.14870669331150518
Ni 1.2285530829546354 3.325899679100177 3.8236982090316998 -0.5071791520293653 0.1416572426638915 0.01249324737100429
Ni 3.724707063857262 2.5616833305251414 2.7930830541969875 -1.3659088388457767 0.00789791469083801 -0.4996453055461654
Ni 1.2610733128308547 3.3988348049027444 8.181136501610068 -1.1479991041760487 -0.46546891677477253 0.36103610567997824
Ni 3.7586305887309237 2.6867304950714495 7.10704545705136 -0.3807456682937636 -0.08277923738076065 -0.3861287869825479
Ni 4.239145956403621 6.896896146398851 6.089230163296547 -0.17310543387084382 -0.10408339817517559 0.20563863061185872
Ni 0.7925991215878269 7.488434782159542 11.478980239629115 -0.4905914228740131 -0.6455245567112043 0.3724392053105973
P 0.3466057162038303 5.8177170257849005 8.042626758604422 -0.15487734089859134 -1.4410166757242087 0.22177975914809547
P 8.65634741419243 1.7573146379910214 7.979182433742624 -0.6797911912035582 0.16678103431471278 0.7399784022164159
P 1.805361648000235 3.2854576226254917 10.377327575969023 -0.2966392274611472 0.13147181749045744 0.17773470511273906
P 4.122074939552455 6.3256102261818965 3.844118414623518 -0.6386149740755647 0.196337664925907 -1.466992788072996
P 6.953082267393231 3.944390632327879 10.20480286757698 -0.6269591350041912 0.6294114531994257 0.40401980833035583
P 6.324596232377293 7.913443042546298 10.31376374469454 0.1764470966495671 0.9363731456325035 0.09503877147440407
P 2.6239896284115947 8.337229078257863 5.857872085798818 -0.5124303731259755 1.772221042754735 -0.3975527125487734
P 6.819226031669429 3.99507221552584 1.5837542073557047 1.5601428271651196 0.4208463929693913 2.142682041293039
Ni 5.446676774944954 3.098475354353344 0.34783699439513477 -1.4282084682159468 -0.7278541081490562 -0.5703133614856887
Ni 1.4368111140912356 1.1879480631899244 6.964626405788324 0.8988391532427876 0.21047230455507623 -0.5557467765254235
Ni 6.914722519624429 0.8407538684387795 9.177393562797716 0.15424202130743758 -0.8334817108829 0.37365328022335653
Ni 2.6948333919921663 1.64898026418845 9.21654911463281 -0.04434175934016879 -1.0587586845509767 0.4813688758344806
Ni 6.170994278012056 2.0560172950918276 2.6418522157016224 0.7529316199429742 0.07014869310094371 -0.2685985192738471
Ni 4.29439956523841 6.90317928658095 10.485996024516146 -0.48482212449040374 -0.7764559283171596 -0.2573077768513762
Ni 8.173070724105411 6.669145895071967 0.4242857898009759 -0.054986383538208526 1.582279511163159 0.9269767920192681
Ni 7.746125011270574 4.0121743074624145 8.10768804144392 0.6668428585730064 -0.4866044132018071 -0.10764180495039527
Ni 2.988040564812665 8.335563231293156 12.525854604050327 0.6121112713580813 0.01868883465875491 -1.2877290479102403
Ni -0.05818423200041677 5.054541831562807 10.132188236244795 0.10219363735163046 -0.5566942280403574 -0.06268040974835656
Ni 8.570447653316716 2.2591238755603964 5.618192921642061 0.634708439932307 0.04963386097704355 0.7019530720125782
Ni 3.5904072058439453 2.910379503599356 11.689454571510064 -0.7225805184549426 -0.4883401649459912 -0.8312934449823297
Ni 0.9984217568901556 3.348633058058748 12.609480121678573 0.3283571273897184 1.1231339655032528 0.9540528223004536
Ni 3.084107424282754 8.31817142684098 7.998594982991118 0.3882046956749701 0.4410262103513759 0.861803954866361
Ni 5.846335190216617 7.8984232593156065 3.5540066389618947 -1.1863599633424342 0.13216884355748204 -0.340335125687201
Ni 3.0668876366367166 8.461923155675782 3.345797496812302 0.8461863029337621 -1.2638015905603655 0.2596073715188303
Ni 3.5848302399186247 4.163929344540695 9.209182268572041 -0.9206526495734532 1.110905798868177 0.17564928333862007
Ni 7.040276681073039 6.279075153363477 11.403795315072584 0.7636706036270332 -0.9820410799832635 0.3014320208641002
Ni 0.44432755841929056 0.009332364408799167 0.27499693051174934 0.021889343873923592 -0.35736534169661033 -0.5325443702670313
Ni 4.646110559178098 0.35416902356424046 1.4880838918913444 -0.1187692823221245 -0.6170647587086147 -0.16605418345101725
Ni 5.945507405713306 5.650054960896899 0.4380217844469112 -0.6717071286438432 0.3397995648987051 -0.35165826400950406
Ni 8.086012113167293 9.026491366937236 11.302136098699783 -0.7568522951536192 -0.16976608508496568 -0.48189698042380874
Ni 0.30840621567021914 4.806194831079909 5.921846946704812 -0.4326421000527388 -0.6127324498818479 -0.7428071299144626
Ni 8.221090573566286 8.713484154378628 2.2180408301449432 -0.9583730469423625 -0.8318829989372124 0.5260659616315392
P 8.611604937564291 1.2519564221055337 3.604040895757809 -1.1028063096894942 1.7276118886857923 -0.2099118040659159
P 1.8367320813301622 3.1675355752597474 1.692754919944159 0.09247718139481492 0.32410400854031923 -0.8757858709677497
P 4.651053778975541 0.9902916994211006 8.322508966410496 0.40063289413599384 -0.42927601179398334 -0.9742256977039027
P 8.425618556064522 1.7919081230570106 12.442891803801515 0.20500433946196953 -0.8043572827131181 0.43671549879116395
P 6.42329766503613 7.811853538247564 1.3571537525751125 -0.5418471357251958 -0.17417835522004843 -0.35230618200614805
P 1.9383940137577969 3.1672549162602586 5.844329836397692 0.24620395362873082 -0.1881186194502244 1.2987469962872986
P 6.87887964933491 3.7934323046675016 5.998210639059194 0.36574456689924106 1.9857059088838898 -0.4851134304785774
P 2.192263659069339 8.69426353967172 10.382813101381608 0.43763441106100764 -0.15659689469285937 -1.2124975409697507
