# total energy = -381168.87081922474 ev
CRYSTAL
PRIMVEC
9.24900841113385 0.00000000000000 0.00000000000000

0.00000000000000 9.24900841113385 0.00000000000000

0.00000000000000 0.00000000000000 13.53685871378927

PRIMCOORD
 96 1
Ni 6.314584795644048 0.42388298267230623 0.3005909251835239 0.13252108469057822 3.0863756318463555 0.3160104328989074
Ni 0.7710833610946146 6.118746290489065 6.048200403352997 0.5279724346256326 -0.6990896344218541 -0.502693862564502
Ni 6.371965644136611 8.833071301580183 6.953978924468063 0.8309700002046398 1.0102537949720538 -0.18331245631083268
Ni 1.723913438052906 1.5713047984450272 13.076213016047802 -0.9687032252237768 -2.962120129598679 -0.9515693937569677
Ni 7.000805729405683 2.667127320914209 4.951336442531097 -1.1686527758706584 0.24621552359295662 0.19282708066948726
Ni 0.7822570882164498 5.309374809068103 1.5992442032042684 -0.8467550309530386 0.48884358694497104 0.24180659589198353
Ni 2.7268851645812697 5.8716312824258345 13.184332075156178 -0.42438191692647553 1.171363232823286 0.8473289011786376
Ni 8.2848733210833 0.9221575901987998 6.922086493492555 0.5768059111885679 0.7286907451177385 -2.1063474685280625
Ni 2.2247657442375037 7.712156219156082 4.543795532908679 -0.21280789466678834 0.11387235924113938 0.3497145100195719
Ni 3.4992883591832813 2.713224379084249 1.7784862875766836 1.9610330887275578 -1.8968974345899139 -0.4928074566887255
Ni 3.8605546296732056 0.30282826033026 10.916691627296476 -1.0847633361448543 0.39536033288314487 1.3570328765123856
Ni 5.484255061050272 5.389498969366469 12.815343807502096 -2.913830698464672 -0.7819629741783178 0.7236742657397537
Ni 6.540871036652919 7.506523014040811 0.4821397122661334 1.4379501209837429 -0.995422643496492 -0.4656283251707723
Ni 4.125399986956333 2.9420818444453016 4.0477240391976155 0.6375651926548117 0.5855240077878562 -0.35699330306917226
Ni 2.7205403447769667 7.199687158344363 2.0923245675790176 -1.128520940846779 -0.4628528193081642 -0.40720206271307935
Ni 6.925639037642457 4.833883284083797 4.992326198228928 -0.4687506728498379 1.9920295371090726 0.34108434514839964
Ni 6.115444394468459 3.1494168671174116 0.44771027826974974 -0.2810318599411934 -1.3036655166348388 -2.3764727088590814
Ni 6.701850028918079 6.7629027337696925 11.610658605644268 1.0998914500355443 -0.900476174625578 -0.8634090945699519
Ni 1.9691693954154592 4.233724374052545 9.217734788774111 -0.43021626422006554 -0.08176545140426562 -0.533939450842345
Ni 5.6220190420781115 1.1350753143780203 2.655024993342881 -0.40613454068051347 1.04584120515836 0.316199666091578
Ni 7.692141364846297 0.6918942755516633 4.547422994027116 -1.0374897478698712 -2.8040031987168677 -0.39927278056367366
Ni 8.722314425258707 2.9320189232396423 0.5466450719762685 -0.36299965716425225 0.4681899152503614 0.2719710352905058
Ni 1.798478944266162 3.5326402836939486 0.3059451761816452 0.5919990739892386 1.2736414594689227 0.6964758509480908
Ni 1.3813486626712927 2.909155374323844 6.840486191443799 2.6331263970662264 0.12855721494682373 0.8940998387855892
P 1.825282570786382 2.19127508459992 2.8716552695183806 -1.3541090179973712 -0.2280861609820975 1.1643369221041238
Ni 2.865666536539829 4.756034379866857 2.5444965675303943 0.5856240237008301 0.8840460540940129 0.48509131899139035
P 2.711985011950464 8.2997272286718 13.531335449698265 0.18408070193542492 -0.23838754290810557 -0.3214974241554076
Ni 3.5115432953942167 1.8593281709316305 6.017201426594829 -0.5618690873730775 -0.6857481801179417 0.4237357987020445
P 2.467099014926354 5.030683686118732 6.94351552119604 -0.8774455180583599 -2.8977793014287645 0.31116313210893504
P 7.271117250689312 2.324211083211074 2.1244066032279783 1.1397000973920501 0.5216341511124306 -0.10486758463936778
P 8.190588928831014 8.553436779767782 13.087895438634998 0.7419787204758963 -0.24338782433617437 -0.17070042397377697
Ni 6.054104970354553 4.030236938900245 8.082154478534116 1.6104801419670909 1.846989236905561 1.1555802589574165
Ni 8.695825265026164 7.755478574787798 10.682124749012395 0.17292648509081832 0.16596419484037225 -1.0931335624864205
Ni 5.419918958194973 2.041182175293456 7.398354010286746 -0.6970558918212769 -2.40749409694126 -0.6298017466593089
Ni 1.8861965405110785 7.826140999430477 11.226496414708931 1.3316128937773841 0.5207658895748644 0.5895716954946685
Ni 4.3021577876561015 8.496370397562897 5.9115869989777154 -0.45825260153199143 0.9151435468297658 -1.398496542973811
Ni 4.09540545251704 3.0374576196959953 9.201422312551298 0.7031067260010472 0.011589504609812298 -0.01839521467773606
Ni 3.6000100613244816 0.4081393204698498 7.962650814910993 -1.9414435966314048 1.8909221908430855 0.5700027722238055
Ni 5.367255104017564 4.950966482192654 10.57912316628554 0.9865402534051977 -1.230497834201913 -1.3672255007746712
Ni 5.460642342449125 0.2893145340677708 9.46360488029848 2.101191892469052 0.9462227847330738 -0.4824734217525691
Ni 8.911956094744765 7.509020246325303 1.545773835489052 0.19331687582171223 -0.22000878329060175 1.4796374734202002
Ni 8.125503656290368 1.4010952957357061 12.376614316448057 0.5845027656121934 1.3822679969300904 -0.36381186865290244
Ni 4.404118856931087 8.898360052306973 1.4500410485117605 -1.0107153079895046 -0.5431877089134903 -1.6486525392717544
Ni 4.076796447493339 1.7547588812706199 13.185996896679175 0.9456874810548939 -0.8440039505704626 0.6425289644179901
Ni 5.784921828103176 2.085651407974346 11.465949544163 0.571047668548552 0.34742391421318225 -0.5081692838567765
Ni 3.1440986872522885 5.404445367039581 10.967887663831112 -0.09402447127727677 -0.21156168096451305 -0.12023172580026391
Ni 7.439060746325668 4.509206091065919 12.058444725783398 0.7534196153229864 -2.695543525850867 -2.2828099917965976
Ni 7.425011502473281 5.272767233579134 0.4682698991778924 1.2339192011786362 1.0052393724765978 3.256334806778734
Ni 0.45027502831600824 1.7892391848135394 4.983513742967206 0.5817876806738754 -0.77021046162808 0.24373209504947055
Ni 6.844534482447216 -0.2853522588430426 11.53862917755104 -1.710133529395371 1.1867553990086401 -1.8135715806770638
Ni 1.590200522731021 9.2697262400364 6.54160540792473 0.19196884643425002 0.023499882894153074 -1.0535023212480437
Ni 0.5540165317197521 3.1980666516227116 11.424107029885057 -0.07628900167072666 -1.001415113634501 -0.4816064457665835
Ni 3.1454675405045287 3.0273207064226475 11.491980878476719 -0.20689512872677918 0.24095761762812695 -0.42440094308986914
Ni 7.8263907226589255 5.602512883233686 2.819199518031345 0.10154494802403803 0.797557229072149 0.7535008621828829
Ni 5.788158981064555 4.200649919795709 2.3184581999482803 -0.11003961575861049 -0.13364902764743433 2.4475835087629783
Ni 7.256614805422333 1.9253938383691507 8.58184048475177 0.6090632285603769 0.13841173914340035 1.7483488641228278
P 0.7021227540087757 6.546383445695725 3.6033221312543953 0.5387713250133496 -1.1278601673343287 -2.108343673022485
Ni 8.989943734088623 3.6649473497297493 8.221178174514355 -1.2856299992893665 -0.20618241893047073 0.6378372153692757
P 0.2799064426611566 4.699439697093486 13.010356376201504 -1.0576772785613398 1.6513989916686398 0.10328249954043504
Ni 4.8413194868865075 8.208060305814001 12.575890678048024 -1.7022243018506233 -0.38800414962838986 0.8603181143494538
P 3.8346759039990936 4.144674920589232 0.1983662591673977 1.9045248692281849 -0.34663098599824177 -0.20519228710305953
P 7.750095651863447 5.724322324666156 6.96174901647622 -0.13846598942010346 -0.4221118899453763 -0.009561932656822241
P 7.649873396179146 9.009847600296874 8.971824001612514 0.2509494387335162 -0.7247834396435324 -0.024172740591461597
Ni 8.630212799003237 7.55875216482055 4.813720445638634 0.42618683134569824 -0.2117300882215773 -2.8416793731114027
Ni 9.119041394188427 3.2458285313157473 3.139807147326346 -0.456876032899439 0.08897611022009193 -0.2956382970004586
Ni 8.587056925523822 7.889062003991228 6.829305065115195 -0.2283962360233486 -0.22491650500486424 4.046982710325559
Ni 1.8089395728356474 0.17881385528066704 1.7027063865524876 0.6141846089473423 0.7871753716171928 -0.1600581137685824
Ni 8.927031978536332 3.7639487362971877 5.764671124077633 -1.494005312106098 1.7263183666853494 0.3039059363258895
Ni 1.158706530996089 8.223302671757866 8.674757873553508 -0.7599628157581428 0.6409868167418509 0.17176846022697514
Ni 3.0115973920388055 0.7067750052647007 4.03812634311755 -0.19276691685551317 -0.1780506936912611 -0.6677286036120693
Ni 5.473581705286181 6.218071392352642 6.800471281237767 1.3716038323480249 -0.8280317435119223 -1.5960200006777028
Ni 4.424577663647003 7.965690039091305 3.5247675276918744 1.209554913401659 -0.8039425637732025 0.9894121756363539
Ni 4.791865038645094 7.8738936301150515 8.11051378827749 -0.8306702095760339 -1.5137747814235414 1.7103001368802222
Ni 0.1804685028943549 5.938362878472552 8.486568298395841 0.8133165487889348 0.8313263551027941 -0.3321600460755763
Ni 4.081245220563121 5.436252707137247 8.349588633285501 -0.5540092250090265 -0.827529092843891 2.036105187272048
Ni 7.8717756071774625 5.1096887163933085 9.916398413618442 -0.04761425944385349 -1.468130501221865 0.3383918859179011
Ni 1.840765410950236 3.7029237784709585 4.683278904609435 0.6492444287649528 0.3445707610351033 -0.7234546935297799
Ni 0.7189855462350232 1.3264372994378397 8.33400775363196 0.887585177595523 0.10491643559943221 1.9183764303992963
Ni 5.066791815150803 6.219061036257978 1.372285559280277 -2.0550477898128223 0.00472105962475316 2.0092268748239652
Ni 0.42246973417945266 -0.07854442965321393 3.7181014013555966 1.1868410167439107 -0.022149539513845722 -2.0206561997068295
Ni 4.630331105872269 7.203016801390354 10.475931053984382 -0.4585315662249909 0.6646160261250167 -0.5796516081674791
Ni 3.2761282830342564 5.653604405972711 5.101053842094041 1.5667024826605083 -0.1047230886417035 -1.148221761709816
Ni 0.6920339355794256 5.573184277403589 11.097299790218594 0.24030018654978613 0.6914637424454801 -0.6975824537487082
Ni 6.573483040486701 6.678302053376161 9.053640730459259 0.23495229197431147 0.6714294495024243 -0.6574773581977064
Ni 6.548584709709463 7.342787817254249 5.013186411912054 -2.1653018355750837 0.3301412158733346 -0.6699893746217881
Ni 0.5383403872790615 7.17106147715731 12.987072922301572 0.4886998622782551 -0.810509932578075 0.08716039716759182
Ni 0.743652651800733 0.6931308679829101 10.79117795797534 0.43019286718129784 0.4517232850539059 -0.18687883350585235
Ni 6.887144664427427 8.409919915477149 2.6061569322378997 -0.0124384828736689 -0.25286362503709353 0.7360430717177517
P 2.617709868706639 1.611584230293046 9.80649337097623 -1.5796569859386471 0.00946191674384822 -0.5984566566891242
Ni 2.854207015056546 7.0611370115973315 7.182697654702199 -1.0480089022336403 1.9225169349302311 -0.14194726310048456
P 5.3993121673436795 1.0817640296083346 4.768724019475463 -0.954783272708575 -0.3534732057310558 1.606969557710671
Ni 4.895315198282313 3.7808466747555873 6.148129465469082 -0.8311872584217685 1.557010709294041 -1.1018362324667412
P 2.3335340837398464 6.721605910990954 9.485303979049029 0.7545377880878296 -1.332634393063363 -0.54052790269314
P 5.38651153963354 5.915305100379071 3.713038494123999 -0.17708498734388214 -0.012037390780508302 -0.19794049063665264
P 7.800974447407868 2.8135946189039283 10.427970320609436 -0.06477303061132715 0.5636066388894745 1.0275048687430175
Ni 8.80426988923237 0.6029141896518089 1.1212646949439304 -0.39305919555379404 0.7967779277039633 1.0252137587159957
