# total energy = -340889.7965641697 ev
CRYSTAL
PRIMVEC
9.05467529988785 0.00000000000000 0.00000000000000

0.00000000000000 9.05467529988785 0.00000000000000

0.00000000000000 0.00000000000000 13.25243256199074

PRIMCOORD
 96 1
Ni 6.068479410817192 1.7785826483109448 11.368015899447558 1.964051820949224 1.9643205012295781 -0.8952249535289679
Ni 4.6423409326195975 0.2241575345628949 5.898802950325694 0.6463627363417835 1.0658089065295386 0.5039043379328353
Ni 2.815677960002264 1.640652783874179 5.024195592634942 -0.23391947983442293 -1.0672775206552652 -1.0564840295841869
Ni 3.531504347641794 4.504900020633405 5.0963948547671185 -0.8387257328906589 0.12643399795623386 -1.686719778457121
Ni 5.0519019926999365 4.361111781464769 2.899804040058428 0.35486237276909854 0.4213693553523969 -0.771454104227194
Ni 7.410753489066428 6.115409791397232 2.440143463144332 -1.1692353878470056 0.48384613373037966 0.7756676280879093
Ni 4.864569821405231 4.722936594889122 11.376510995542521 1.0774256648328606 -2.017657779200138 -0.03808446557654731
Ni 5.704744060965598 7.821437328848084 12.182669537490494 -1.1408437240781901 -0.20552601629339443 2.216860424378666
Ni 1.8372931610798013 6.36679473371706 0.6120091058377722 0.013953633966614677 0.37964986412642354 -0.9540710771328988
Ni 2.577250257622633 1.4329023204305265 0.4053596908754111 0.21439349398635335 0.6905610281255525 0.19962302054539813
Ni 0.557700976059079 9.062099844128149 4.675524505598516 0.27043274426910846 -0.5222620145044166 0.6977760578167531
Ni 8.703715807207832 2.4954141048766543 1.5310133460405924 -1.0007751660576572 -1.3791767595992763 -0.3770347951010797
Ni 7.051101797644624 0.8557582407211444 4.816927743369355 -1.2489953787854684 -0.9693483150069434 0.07867292852187097
Ni 0.5218091497844846 7.5711751662295725 2.469922478319257 0.8186109644186548 -1.5340895817214935 0.3022455179043311
Ni 7.711513574219164 3.800228992606958 3.710535192886764 0.27595907340397635 -0.05389109359150074 0.49852096213373503
Ni 7.5848748895206395 3.7857958406400307 12.521666609745575 -0.9638268709680821 -0.34575475404087547 0.14698482552439204
Ni 8.162780467398417 8.593384592203433 7.2091511499549865 -0.9077043169429013 1.6079416918159533 -0.24587485242408624
Ni 6.34736340114427 0.6782675956954811 0.128809090298569 2.8073880560287003 0.17031501560990023 2.0013528713925277
Ni 1.8489374731434578 6.761995079230556 9.209777971681348 0.8493659862133244 0.40043260519972973 -0.5541771180454584
Ni 0.0497798868058825 4.819187790252006 1.5987332604450153 0.3981368671870175 0.6089966369884996 -0.7937656232402006
Ni 6.5058021044800896 1.925739226583532 6.922686585709017 0.716386730939405 -1.04663284782172 0.997757976497888
Ni 3.46200971693529 4.410115682622241 0.4888202523182948 -0.4348964433045543 -0.685683131207961 0.18790316100530866
Ni 6.135800919521147 5.477526046249114 4.835653716758817 0.13959753192138538 0.8200420404382265 0.16083690091613592
Ni 5.197935791271207 3.1624176848589247 9.184545308829254 0.15382627392625767 -0.06542660503492603 0.007876831644915466
P 9.366427471235069 5.578657711442722 12.344693892130518 0.13920621002023767 -1.4546574064360946 1.0712899842487678
P 4.163221859107681 6.156137719594998 12.739470478853518 -1.339744521745583 1.1022982597048243 -0.25201567521450147
P 2.33616953546489 8.383461006757232 1.3947658402207994 0.3072296013824838 0.06434725592781822 0.8367727229293461
P 6.4300959667163005 7.7712382105892095 6.002105926586848 -0.38634321698619917 0.832687754226695 -1.5731053008630584
P 4.490041298940979 0.9675554076097616 12.564657301228493 -1.120784748544786 -0.5292063070327337 0.46934999699673363
P 3.943392459199862 6.190554539310363 8.189937248690265 -0.8296417683115196 1.0330175710311305 0.434420017888768
P 4.670365151777466 1.0793444252908693 3.8098224207807094 0.38437863706066056 0.3507000138612928 -0.10170821307477967
P 0.27581536096597986 5.737476711128988 3.832457297372256 -0.9270068739262552 -1.0455033622029672 -0.38816072981091215
Ni 1.3450900821775391 0.846266224907512 2.61628224519091 0.8534234441121497 1.3650529186033844 -0.040291243419879
Ni 2.099127198361884 6.584876581347829 4.518933861432365 -0.5808104043622707 0.4302460890167365 1.6550234757951046
Ni 5.951139877354574 5.638002051462323 9.014926798257823 0.4375565066352206 0.1873190063670645 1.7395310087208815
Ni 8.463450005801045 2.497532898829139 10.072802589098515 0.3158425398624754 -0.2685571245129504 1.2287929356956642
Ni 2.278536529022297 5.396206009978741 6.835405856879152 -0.5540526766524523 -0.3143888381350844 1.410807242020364
Ni 0.6049672850820136 0.11134896047559151 9.058978697651987 0.9013606341130606 -0.21687743675047164 1.2498991215466604
Ni 1.217681750103113 1.0613980594198216 11.46383065947493 0.07231664728653998 -0.08554908681641395 0.36439448062924984
Ni 4.155570658723708 6.7442116975097 1.7963406769417716 0.2557556018729079 0.3394182702998864 -1.2982937107999641
Ni 5.669113914798811 7.786522502007135 7.974943045238118 -0.9592320525085479 1.040608496004511 1.224122012582556
Ni 5.143308936932139 2.877367460849614 4.998433231294728 0.9345078102889907 -0.804867132470001 -0.4778516067098416
Ni 0.5218544231595377 7.084477329733767 6.364215056806534 1.278916848935249 -0.20672055082212784 -0.40185133992412725
Ni 4.983140790669292 4.807751735713594 6.952742673939268 0.627124714047778 -0.12146302710420372 -0.0038949641790320014
Ni 8.452403302288088 7.077604831400707 9.361929108689793 -0.9875290996810283 0.32308610879876615 0.0015568029641586092
Ni 4.6969044042335915 0.17385790941140283 10.260179128300772 -1.1316013795443156 -0.39066729828284974 -0.36030616949248917
Ni 7.88746401902552 7.340588812409138 4.512705150492559 0.44391741585624195 0.015334316364225203 -0.10523602372238006
Ni 7.449054764361349 6.28494047162106 7.1802603983986035 -1.6276527970916357 -1.179021777809808 -0.7886581268103062
Ni 2.3385780790177146 5.242475737648444 2.6238229785397538 0.7367724936846085 0.016751765537042117 -0.07424188933371084
Ni 2.3336885545119803 5.432488092746293 11.364570595606017 1.85132205995296 -0.5514509773635471 2.70015171404684
Ni 1.387139992926856 3.486330574013814 3.783860856590261 -2.187426949608897 -0.4762660073902765 1.520544496047207
Ni 3.332862887258825 2.6877444567772217 2.8362592363014016 1.1012335658857357 -0.3807796068554926 -0.7972438115967883
Ni 1.2983317404227004 3.158578502654422 8.264163852557319 -1.4776736648256101 0.7632710541957693 0.08784173950533258
Ni 3.6601531701926753 2.9336151020155823 7.0204625883436895 -0.07493608718725804 -0.5514432640540632 0.2967502991177147
Ni 4.219007711848107 6.990607513898675 5.998514842477637 -0.3133886790053441 -0.7315323283315918 -0.07025693654403385
Ni 1.0747627597354958 7.408227234738465 11.623602210972312 -0.6522150813575026 0.8459399912509109 -0.4586161555189972
P 0.17765000730585026 5.590700429206847 8.031769280137263 2.271423861446843 -0.15840823686998526 0.3247416421243181
P 8.55605216713465 1.6552217559662656 8.0232741840423 -0.8916338937435999 -0.20353366845371398 0.39373873811932186
P 1.7802124898128564 2.91151264031466 10.533682830736542 -0.6280014602257764 1.3986474667293782 -0.6664278825227749
P 4.180796983303294 6.270090804603645 3.8636669511988586 0.7230548869881999 -1.2752304012225975 0.13015181312745328
P 6.804135536729978 4.0181840747875786 10.409494341095892 0.013760544119202108 -0.03631657504284713 0.44115476550944027
P 6.423793912908909 7.579134225563908 10.32157706861278 0.2557090649056887 0.6008308133482555 -3.2198487960375575
P 2.3194093320202334 8.379277746902327 5.932517127260233 0.48223430915856946 -0.26403866781730656 -1.3435626099400926
P 6.926708672348734 3.949015412381457 1.5917629716218402 -0.3824503096896961 0.5481347685061205 0.18059891403441156
Ni 5.226711548454955 2.878698498076175 0.707295978312026 -0.44323144553281085 -0.1276825256513543 -1.0893111034165368
Ni 1.3803399319938807 0.9549694093450006 6.926767527736303 0.5408336068590169 0.31783103104741395 0.6484463583436898
Ni 6.9537730959554755 0.5114859148048774 9.340155331691756 -0.16856409435706454 0.37666918423154483 -1.1763419169848
Ni 3.05096369015321 1.756833318935437 8.986208990994143 -0.7198806030252763 -1.01388547818737 1.4495776779203422
Ni 6.271892684930758 1.8512283059211447 2.523408443606986 0.48496122117142926 0.65703281446112 0.9063724855053551
Ni 4.202582531378844 6.714068684399347 10.454592055453782 -0.45409564194082436 1.6682093783577592 -0.8792380911824083
Ni 8.024298267786001 7.069482787916181 0.10768000616128852 1.4455739560775878 1.1779686539549454 1.4214199845392037
Ni 7.659376755508017 4.053678400829207 8.322765709226047 0.341552800144386 -0.9466881544052664 -0.5017173575838456
Ni 3.047486694949132 8.226615926223284 12.581845790801152 1.4531576819621168 0.14335031409559829 -0.22756782658478225
Ni 0.6059460954506615 4.942856541547046 10.141516706819104 -1.9443173186347738 -1.7569767150011546 -0.8751634068924026
Ni 8.785624397353894 2.1676620335172623 5.880952564009758 -0.835874893705425 1.1464775253251998 -0.7548095536919774
Ni 3.687751819625044 2.4943184892003694 11.37933333774333 -0.3711477401926834 1.072893324180146 -0.035654001758183756
Ni 0.7855211266637694 3.2724682049379936 12.726907117276282 1.4790440628105754 0.22170956803179237 -1.0046629311478374
Ni 3.124143573589036 8.60271090746437 7.896130248478185 0.8894392000851262 -0.7016329696689981 1.165301085789606
Ni 5.721123968059809 8.14296883847518 3.5864390609312227 1.0229198204754963 -0.9882040142608658 0.11989799660992898
Ni 3.391347033152416 8.334638199099972 3.599479603881517 -1.7901634861657685 1.0030279666475759 0.3238661814979003
Ni 3.104848061141406 4.5051988249087564 9.37930321910017 0.46577693493349465 -0.657790518562751 -0.6624982084510654
Ni 7.436686078296842 6.073803559723436 11.487419898812597 -0.7617031954880172 -1.7962755126007772 -1.8607780631595372
Ni 0.36986536483378296 9.111628916436237 0.48013591351560964 -0.19504542847704473 -0.1151126594061437 -0.6525390403558246
Ni 4.586265330278831 0.20061266313278114 1.689009275768392 -0.7708730349127433 0.4877899488694761 -1.003832207716426
Ni 6.065237837163391 5.649284176525554 0.39714347877077505 -0.25755228876201447 -0.48661572605571674 0.11166532428749155
Ni 8.262264181740091 8.64303137528666 11.151563893318698 -1.2669643045590633 1.0901464548336386 1.3116678181140249
Ni -0.06101854942906335 4.659553869814785 6.017968811737953 -0.08111599074572481 -0.264733379891486 -0.9246432587900849
Ni 7.911169158203323 9.13489943121353 2.4307084917832666 -0.5306618085323377 -0.5371134776949523 -0.12806484869143753
P 8.593384592203433 1.7026682530219115 3.6241952447905037 0.2764833213385625 0.8874435098113361 0.4048764999036963
P 1.675078658264554 3.3627070960938266 1.5212469735741383 1.5543411328816779 -0.7419077580286448 -0.16546977170245697
P 4.942575846621717 1.2391232205282598 8.159668375597265 -0.3011592268186878 -1.598439665862789 0.26318917533281766
P 8.236820544960251 1.5272429793661706 12.53110248657414 0.2123075579916021 0.25756694405003383 -0.6212173474244075
P 6.4805123971754295 7.901969608392533 1.3350629350707792 -1.2444985193563793 -0.8218834645223393 0.8814749509327271
P 1.7045697347741418 3.0669361368719428 6.117839160702581 0.38181036211285213 1.7307599473964708 -0.7986507192466439
P 6.775395998246273 3.8431843708573368 6.229319413965827 1.2035555012851142 1.5434170297700063 -1.3291729168773239
P 2.474262384051847 8.62299337948816 10.345047691707807 0.2883381637946195 -0.08555628590526555 -1.0595780951284786
