# total energy = -340894.36286159744 ev
CRYSTAL
PRIMVEC
9.03634319997894 0.00000000000000 0.00000000000000
0.00000000000000 9.03634319997894 0.00000000000000
0.00000000000000 0.00000000000000 13.22560168074038
PRIMCOORD
 96 1
Ni 6.294978764528912 2.00640254703681 11.38617202616391 0.038794090049062216 -0.02498315230789891 1.1488087445615376
Ni 4.5701125279064865 0.35636897980181137 5.869601038566727 -0.36460839641226883 -0.2535187421225892 0.3023859001369373
Ni 2.5799663623832045 1.617270497499813 4.695022804337642 0.9485905136343017 -1.6582185856936347 0.2025090838439416
Ni 3.5119386602037856 4.148015898179745 4.809847618063268 -0.38357439599181037 0.3598811661399286 0.11580531459779411
Ni 5.145682411455218 4.397202099745642 2.642197851103252 0.3666573085214976 0.540360009656708 1.029959243820781
Ni 7.2625904001423525 6.380679443947644 2.678171533596501 0.44518085594969775 -1.1762933231350514 0.131842827676631
Ni 5.086394963367248 4.5390997978595555 11.510796754148247 0.3992558112828092 0.27511857978055204 0.2249193332183417
Ni 5.676160942167648 7.715970850213637 12.340042094591347 -0.24377040448657375 1.0050097729642948 0.882992673128834
Ni 1.7744938337721166 6.385613287364201 0.6251116354375124 0.5428184984995297 0.26098111193790535 -2.5623439270360255
Ni 2.766368051021924 1.5611096241776472 0.24356017425610124 -0.02643325449086415 -0.7489345829684392 1.2380931300506677
Ni 0.5396612627269092 9.011610782282098 4.436858995749127 0.023423006909630627 -0.07332760504955758 0.5967018787815466
Ni 8.496783198085193 2.3241384485257885 1.4923105211807617 0.9043955642846425 0.6899622181992892 -0.8405183060147072
Ni 6.9480352914787 0.4493511446144298 4.664418517005783 0.15184549605080302 0.699537006371918 0.16275417254350677
Ni 0.8043881674206358 7.527752856580911 2.3971936691951985 -0.5436438226143024 -0.592483984045457 1.2705476510349472
Ni 7.630197880048874 3.895061541477027 3.749629729516565 -0.022539318753096668 0.7373270806364979 0.06460488046457906
Ni 7.5948025235238665 3.905408154502591 12.449457753245266 0.5583543893515998 -0.8757917845050206 0.9294573923492766
Ni 7.935418446131385 8.613270698969512 7.213521249005742 -1.241394940730391 0.9579423871628469 -0.5655408797977098
Ni 6.816303479525275 0.8207358160010269 0.24722079690820253 -0.7461225674409409 -0.8219289730482942 0.828060796977645
Ni 1.8495587371811646 6.489486053066259 9.200442343621754 0.015713039859882618 0.15722732918800664 0.3312527037699585
Ni 8.845947501410775 4.95072330575518 1.5056418383830452 0.5126183207670655 -0.7220778677869113 -0.7377734241452971
Ni 6.3015301133878925 2.053454786359178 6.961797642254188 0.7959639164431002 -0.059484528518878206 0.3420634212322174
Ni 3.6383209569509805 4.439989185052232 0.813963076732328 -0.5321913578029868 0.5056958826156194 -2.0656895857973843
Ni 5.78841039806595 5.82155570512077 4.798591948906375 0.17750844803454588 -0.18023818826088311 0.13357163744227962
Ni 5.328433417419415 2.5722854706175022 9.413877156738446 -0.425418585721106 1.6727553458572288 -0.4898486311707176
P 0.2563809380645468 5.373804896896582 12.337529087532474 0.8953301116482645 0.6765451734624348 1.0830818346773734
P 4.053477675058828 6.170602535984053 12.677572105977703 0.33596167920985365 -0.3089113599602809 0.4039110506666334
P 2.539347999457519 8.461387841560185 1.4154835308372289 -0.9776316380616581 0.8845289072677025 -0.6188599029358245
P 6.212377550846221 7.88214016630717 5.868358541369334 0.08003844141082989 -1.3019891573736804 0.1028351275903713
P 4.55006991856963 0.8815748042256684 12.497784116966415 1.875548279490176 0.9243259846599823 -0.7871956833321668
P 3.947951258541329 6.201009831032981 8.371104832477467 0.01378728359207948 -0.20734224356652678 -1.0630318580050337
P 4.547331906563738 0.951427544845943 3.6665333242235683 0.9524286564334694 -0.23450363447266712 -0.16953185758697253
P 0.19107076719794103 5.598918280034442 3.6389453682698156 0.6423201908412938 0.5009190300522663 -0.682527873408431
Ni 1.5310366738291084 1.1502813144883541 2.4040703264113157 -0.09466801839854665 -0.5792402316616734 0.21307528939556208
Ni 1.9885286600808574 6.2284441691514205 4.921841345447488 -0.14388484644282962 0.7648805647747343 -1.2851880266559415
Ni 6.17241884097806 5.795287055282067 9.070143695708378 -0.33198932482566695 -0.7799135478484568 1.0393833653481586
Ni 8.60811094697161 2.5206969869817426 10.38762537305552 -0.049638231852417745 -0.49963527824383636 -0.42046972635626295
Ni 2.318210607351317 5.173767366287928 7.113971469916287 0.8492068349276407 -0.6976487882102694 -0.3813989856070464
Ni 0.5058319044877791 9.069325906643911 9.24042364434805 -0.10363782599732474 0.8388234348107876 -0.2923310870040966
Ni 1.38987091951875 1.0729844342956256 11.475153801818086 0.14668889155052803 0.24270159690242715 -0.7506165986565524
Ni 4.008630303490379 6.953592642579768 1.7379897179298716 0.48974244461015665 -0.772414154147618 -1.4112317311522922
Ni 5.4911598867332625 7.873808657827197 8.020018498941809 -0.12164814653181631 0.9897322779799342 0.025610244368936542
Ni 5.29870384811452 2.59624081658324 4.879347941296645 -0.2977412022760743 0.19375319202818245 -0.4354546298008694
Ni 0.7904586442949529 7.430820002497745 6.9580159326024855 0.6023184536373756 -0.49193790959957856 -0.18022096186970255
Ni 5.042659062019013 4.59314616686034 7.234523517996149 0.00492880476018506 -0.36120939803304886 -0.3795321076016367
Ni 8.336360996301057 7.10961414519932 9.202677934942738 -0.33309104253027794 -0.6416542751225207 -0.18562259250124807
Ni 4.812693162553879 0.17289054820568586 10.268951980738116 -0.9171865454017236 0.813800944624521 0.07045131194302705
Ni 8.069752724941894 7.119129414645537 4.782350929176379 0.47020283191533213 0.5895606397510751 0.41084403034104083
Ni 7.245240621095118 6.164566258690536 6.8955910661368085 0.05606470420405184 -0.6133672552523695 0.32348642956097834
Ni 2.2358172295634633 5.086467254113278 2.436221635708221 -0.9579328740811502 0.06687927832105257 2.5399285354553034
Ni 2.4999133974980765 5.21994308031468 11.495944620376354 -0.8760023578539301 0.44884853460927215 0.3510795086878986
Ni 1.108018337090483 3.1591688559199502 3.6352811310804127 -0.18701124531865856 1.9943525288152943 0.024911932750331288
Ni 3.635221491214938 2.592987733011884 2.6162752932111686 -0.5516384107840048 0.2993424853249232 -0.3284627997296472
Ni 0.9767202696132389 3.232453599708006 8.216722522524147 0.8016612239381936 0.40061283953133586 -0.22806662059807176
Ni 3.3915113136608244 2.809688280580486 7.048094720327669 0.6470587339675438 -0.35908438127024606 -0.02121880016946023
Ni 3.9082726753140355 6.890799093309336 6.18735953091384 0.7175578684293706 0.3062705799033241 -0.17421177956114514
Ni 0.8451574372786593 7.302549110010513 11.488313428498547 0.4071508977601697 0.31852008669463855 -0.8872648181416268
P 0.3095652399189217 5.446628787178696 7.7452558314304465 -0.9303202545702043 0.7959898845850292 2.934100761567618
P 8.49694585226376 1.5872065834945281 7.8696166981917735 -0.658280313714976 0.11312956753784388 1.0008643833373536
P 1.7332700358484288 3.245547261082715 10.454891008602242 0.4933766989286342 0.006847876159768851 -1.7364073754902352
P 3.9281074487560557 6.001866898406449 3.68122732198852 -0.6111180542068765 0.4313074404017152 0.7373157677825882
P 6.893491923598958 4.079267398705081 10.344681959010641 0.01402253953133714 -0.25713088495387976 -0.9702877961020773
P 6.436569226972196 7.651505577441258 10.256348089167759 0.14548381549883332 0.8829157971443117 -0.828874808238508
P 2.2874599312587454 8.49999109994028 5.771480808980016 0.3696508439321828 -0.38325506497917866 -0.23490112702140192
P 6.870991428897076 3.9098178900104297 1.468782594250927 0.6236994904163129 -0.514652577588275 0.5352764244862136
Ni 5.225157050372104 2.868912474265679 0.5409227362451351 0.38735494608016513 -1.1589453187749073 -0.9277697202342087
Ni 1.495108173052128 1.0293479327231816 7.087639565674808 -1.0456663701433928 0.8541788342209353 -1.18883079348043
Ni 6.9936507522237195 0.6363492319078977 9.337817351937158 0.263595666742617 0.06871838841232035 -0.9941836288830684
Ni 2.63459105735223 1.7728763283296922 9.136629494832299 1.1386639428180518 -1.2994054558069041 0.9818528752318575
Ni 6.429999805426707 2.024023416381657 2.686622321807424 -0.6670750291884706 -0.35484694615013085 -0.0319806666716546
Ni 4.084888004208924 6.9467159853636495 10.440924436469219 0.008324460705295342 -0.6509423852926661 -0.21924747964454497
Ni 8.332936222207877 7.132358621169053 0.08300513822613359 -0.4593147242479186 0.44408119512761585 1.6902720145847536
Ni 7.783499443349043 3.790718885925772 8.088791396543257 -1.6679059881847274 0.6745196583919738 -0.022018413252620144
Ni 3.1090713689210623 8.242346881088856 12.344379539353156 -0.2225613745091264 -0.1277714858207348 0.5284856268166254
Ni 9.181105472693018 4.9120839020020695 10.170381741257367 -0.12944398842715127 -0.21855379601163005 -0.4990318403318825
Ni 8.550197023058214 2.5155281986405873 5.810310879575781 -0.30548022279154485 -0.5027833369545147 0.18535828309626787
Ni 3.6125402696479814 2.7013877066840806 11.516853815031247 0.3176294565595691 -0.31157090907031504 -0.42319329593501315
Ni 1.3699638553306996 3.334853441459701 12.526152812977294 -1.9516781298752193 0.4110553750208985 0.8847369095134504
Ni 2.9340825818118517 8.460312516712987 8.027582821879538 1.2739170817278123 -0.3098007045437697 0.41477704684685984
Ni 5.497828708054543 7.793475566301202 3.399587997261042 -0.08498447256219557 1.2711660013452366 0.7430930365859976
Ni 3.034873954464376 8.353267994528855 3.6453991246216564 -0.1325668503268491 -0.47564508597682603 0.35490351041967905
Ni 3.476742103230361 4.349390807589958 9.481698527395274 0.2432872942025681 -0.35876916402267245 -0.8502203637938195
Ni 7.3288177598492155 6.121444828683558 11.478460199814638 -0.3558813009519161 -0.9527742126983463 -1.1393275445439797
Ni 0.6236775677631394 0.06834728583419708 0.3296412837258173 0.07387859245702114 -0.17691863696934693 0.20921092134414937
Ni 4.8190457118612775 0.41532569772669303 1.4694169455473414 -0.5993963948945741 -0.8091503332263872 0.33153989599307415
Ni 6.183849815194076 5.677715193207296 0.5434755032143245 -0.8157058749567178 0.7630393978009375 -0.7082088231143029
Ni 8.048029355759837 8.932452415379093 11.461041744558676 -0.276012295239415 -1.3918535837359964 -0.7914732276615982
Ni 0.12062253155724299 4.878486777784561 5.752210806991357 -0.5750552470460484 -0.6690699481313123 -1.1206942457135087
Ni 8.00011866382836 9.002592511714838 2.340283683017295 1.0331566677121562 0.9622821521887813 1.0507962351707902
P 8.547124666351932 1.8060035626980047 3.7049676029848184 -1.3363280398648663 -1.8397346122256768 -0.4385019012676254
P 1.6890913536807586 3.157614604880302 1.4153642511062794 0.8255835390817459 0.18939260106664155 1.000026717927407
P 4.699241873002826 1.1345038591672758 8.058280183546911 -1.0689019436325655 -1.197442446408841 0.07209064731866294
P 8.416992287154423 1.658503331766755 12.465976188713153 1.2160806303353187 1.5347691242870214 -0.21546718666650633
P 6.6125520118393215 7.875091818569231 1.3676198278906724 -2.102599828560172 -0.4331192967994734 -1.488850764488352
P 1.6542201050644691 3.130559793178522 5.8027854129140435 0.43012730405068506 1.3274122254324752 1.3604110489559988
P 6.647694350753224 4.079881870046337 5.783436794739076 0.91906293648883 -0.1309848505517099 1.110617835314113
P 2.3173702274287162 8.545669815088075 10.216102927218454 0.8236634392408976 -0.2857482915802563 0.12296506557102692
