# total energy = -381170.08883246785 ev
CRYSTAL
PRIMVEC
9.23319509155951 0.00000000000000 0.00000000000000
0.00000000000000 9.23319509155951 0.00000000000000
0.00000000000000 0.00000000000000 13.51371432215696
PRIMCOORD
 96 1
Ni 3.862993381798045 7.063126457146554 12.814568604522067 -0.10655422831317134 0.9163769050162348 1.1524316860261055
Ni 7.539559322168578 2.441044409998594 8.37648936177924 -0.31953927198777227 1.0728365028002813 1.3370723742300585
Ni 9.155266892272044 6.405196676858293 3.4231322790834975 -1.9116259990493398 -0.773949359845222 -2.0343182705749547
Ni 8.103762939417333 6.550721064176356 12.897043196063207 0.4125245033672573 -0.601209536843913 -1.1889696330511395
Ni 2.768998265283812 8.60321415972036 7.225675009513603 -2.8475553722762053 -1.6352771464061129 -0.014258309691227055
Ni 3.4138261417839684 6.753195798615658 4.100358513724657 3.391118462251243 -0.37845327271516116 0.8645354948649112
Ni 1.7508446129806428 0.6690170009145884 5.553312554530773 -0.3258731846256001 -1.0275514057102368 -0.4588622100915323
Ni 6.724859122980917 3.3904938578709714 1.0603401205257588 0.4050153394744057 0.7477176798422026 2.148155662813101
Ni 2.240102385939015 3.663113175170201 11.165814505984487 0.42318429707394867 -0.8505129553335741 -1.5720130962401444
Ni 7.5703612608839554 1.876055971169861 12.953232727911619 0.9645411234262872 -0.2662747562366769 -0.4216298081026351
Ni 5.555290304912319 0.9186595123105759 9.408464183765577 2.5885694363914578 -1.2636576087833333 1.7692943560262433
Ni 3.179007525054509 0.6533131827589788 9.117135643319177 -0.6367869197278904 0.05768398497502969 -0.901025362260829
Ni 6.267575904510361 2.5744363790097022 6.18898387149135 -1.0227753244778321 1.322947247682586 0.3610582171671653
Ni 0.4634408362551146 2.9178835356031945 12.693931371164865 1.0001218487443744 -0.5636868573081066 -0.44507595494071733
Ni 0.4894267404279437 0.26852070201273226 2.2714527764408707 -0.45993744543358206 1.3387315071000363 -0.9643498333510875
Ni 5.844547839707086 0.659120862450817 11.968893805871437 0.21646014670739494 1.630250639725799 -0.48842295446778466
Ni 3.8934998582715483 1.8721318632699702 11.057002225538788 0.6590984387408971 0.2877959181379044 -0.1997459192765076
Ni 0.5949575433498278 8.749283305546882 9.224029265831705 0.6389078227256352 -0.04983903500931417 -0.27085054853281737
Ni 8.026342598851253 3.9254928791494805 3.2125748056899273 0.6357762190751889 0.5662214508045023 0.07983018205476573
Ni 3.767540611282586 1.6886405778710813 6.050657683040944 0.02840426217430592 1.0253086324226472 -0.6305064860358174
Ni 4.670270092158617 4.634980820644777 5.333687160270186 0.11066182272364168 -0.11118375666538272 -0.0746254979253747
Ni 2.1175040219513708 3.7011354724213774 1.281544391141362 -0.13578535726414678 0.1615984616725088 0.6534217000710939
Ni 0.1501077453451365 8.68669147624486 4.266508935484052 -0.6179139940827874 -0.5292854970101013 1.4601297424045756
Ni 1.3705662412985293 6.694500377628351 4.987249371797224 1.185993324031635 1.9896816057021864 0.84627012089682
P 1.6373594125158037 5.813339640409131 0.4952990524851919 1.3272561594705852 0.7529686438284968 0.7481102872949309
Ni 1.6708482109932241 6.417883086868763 7.174336598348963 0.28616995249870714 0.10871035542422568 1.4857227603823315
P 3.027250731071913 7.429508870265526 9.526682320017438 -0.9744432130313475 0.8889614891177593 -0.7680319659195225
Ni 8.67915718907707 2.786135075312511 6.389838180197873 -0.42467245158370087 0.41286851697023735 -0.7808802826371003
P 7.261584751735379 1.127446982211419 5.006898534201359 1.7513979353617968 0.7687176791326374 -1.5053379635100979
P 5.694536119590558 7.354470694024557 3.269683963766172 0.05730191904526261 -0.7482815227654727 0.582112668113462
P 0.17022503073874082 2.4600093926488893 9.465437613874462 0.8878919102026644 -0.5802349914747749 0.1426401754024511
Ni 5.389609852781405 3.061773647395892 12.851069271227594 -0.83335752660021 0.03465667084192096 -0.92807645284135
Ni 7.227486562384094 4.908061797696935 5.307173117340007 -0.932891100621174 -1.7668978307696084 -0.03095479651030153
Ni 1.9491551764485309 7.35515395045889 2.5825791337318518 0.08163509647398845 1.1242616513497927 -0.8982177176087046
Ni 0.08500079370916176 4.704432913875313 8.079917289859079 -1.2358110188847105 -1.7035651321492336 -2.35923474771424
Ni -0.03780347052828818 2.71265730903644 1.5570767814815696 -0.3944349928553981 -1.1978875043660595 0.2724145505858276
Ni 6.171319846024806 7.518184475607996 11.096502757318842 1.2421904400484929 -0.2484068748173206 0.7696239929969907
Ni 1.705851253460249 4.920480445050708 3.257115738652451 0.5261225259010875 -0.4790209444275944 -0.20772842326135196
Ni 5.254029616541416 2.580862682770464 4.001478381203458 0.1862319439504728 0.1374825424609116 -0.09508556555193946
Ni 3.6760488814472523 5.729382197741587 1.8349460934911004 -0.11539650919514965 -1.1703623023625973 -0.6344711271105202
Ni 2.7383255912992546 4.377984069384642 6.740383817152391 -0.9795681929627386 -1.806787982096327 -1.568183438081409
Ni 0.17360438013017612 1.9553229507476528 4.19119745666935 -1.8881297156996129 0.1904444393699236 -0.5930581113813722
Ni 0.9540660454016603 5.238388584112205 12.073408957336877 -1.467852307859814 0.5514332367517341 0.4844472576494883
Ni 0.8555718604339096 1.3952188721049015 7.616802385389532 0.5109982686651393 -0.025081882669292288 1.0123389596358565
Ni 5.985667992982213 4.966923416195296 3.3294956780360585 -1.3235522282564367 0.7599401900503234 -1.0682884784182827
Ni 3.3425643423219533 4.6804266067230405 12.969381586069051 0.5725836455771042 0.7392579791106236 0.29332970347194
Ni 3.815913320194415 5.943933951317494 10.87331057980713 -0.8068574234271524 -0.6637333664097472 -0.31901399561192156
Ni 6.608613197193567 8.228420305903036 13.239588269499476 -0.82769518610811 -0.7520278771817822 1.3607836018040693
Ni 7.540778103916308 8.431255134949621 2.6373227472340917 -0.3832540365379141 0.5649235579286851 -0.7937800214179038
Ni 7.277899807403866 0.5902753901356288 7.081875383032479 0.3929620078542974 -1.7563185125918654 0.6764186751868995
Ni 0.3743709734836426 4.735641113173267 5.092589047581396 0.13690918645594485 -2.7811147241544685 0.5138174832814892
Ni 7.959595831772877 0.9012909490859067 10.537048695608213 0.3551490507715819 0.08557685473055583 -0.4835404295645027
Ni 3.150587750664242 3.1728028179751524 8.856158461669292 -0.48484320753632626 -1.3039974460529606 -0.08490348281261506
Ni 2.714633212778973 0.4645755959278124 1.5069682318987299 1.9079580632794493 -0.15457189384303058 0.4299869218180788
Ni 7.309661998405335 1.6675796599424915 2.862583160438923 -0.1481258811073707 -0.4214745134716935 0.1058471749438177
Ni 2.893129339651178 2.333080660178778 13.14039790162431 0.27018231882119914 -1.5528370375323257 -0.4271286264336773
P 7.356409664986855 8.343308952016777 8.986701066685328 0.3009424828221914 0.5163718742722269 -0.14158268067221422
Ni 8.64451424121733 6.353850879137605 6.335243221136076 -0.4915381030579986 -0.42593409190494386 1.6001741320553924
P 1.046157932915801 1.2027621543041447 0.33570789249540195 -1.0084324254925987 1.86920896753571 0.342886431354145
Ni 4.773017086770344 9.090431396570791 7.28213507397723 2.4640681366815627 -0.2748830667309782 -0.07787537232124007
P 6.903521447364176 5.203237810524243 7.4015156694869635 1.2203131803594274 0.9699928905694777 0.24381385612999945
P 4.221536812312293 9.202836313213778 13.268413381152815 -0.15167888856595169 0.3487665442840058 0.19350225235964097
P 1.5229047265698155 2.8233263850084165 5.65082709750281 0.588644812805025 0.40616256570497145 0.55685543620857
Ni 5.9969971233190735 1.0231488108298536 0.8885343667929915 -0.5134143343057996 -0.6960919852461109 0.4424984240215282
Ni 1.809226105335958 8.72345805896807 13.063382898321303 1.9228375514944436 -1.5123244221302599 1.0333867814450912
Ni 7.846969318448485 4.1551132070609675 12.648850296291414 -1.5594776827772947 1.007049429102143 -0.9525011615426178
Ni 4.339195416943604 2.469316453267924 1.7069444637551832 -0.40002997044467237 0.9131020909197048 -0.25618677587305555
Ni 3.4000225151714116 5.4488315658870485 8.555829402679798 1.1491082780798276 1.5644836206323183 0.4479046826387641
Ni 1.7244099755279674 7.361469455878949 11.373952882272715 -0.21255901188077586 -0.8278414818779872 -1.940079626404343
Ni 4.3538115647213145 8.687744060481537 10.80749821206868 -3.001645184276495 -0.9016426841298536 0.168992954364367
Ni 5.479430374311137 3.910655134690365 8.246001232614052 -0.5363755710876633 0.449460200051342 0.5296140839941137
Ni 8.429537760668728 4.177771467734689 10.247598187036722 0.5187681424185452 -0.24200559927666707 1.2998214602984002
Ni 6.573462423605605 2.8812369844157444 10.648752812746254 -1.0830720644853604 -0.4351692373499666 0.6272159882100037
Ni 2.3050117472007363 2.0252551701212345 3.426334351129808 1.2187116402002622 0.3837140068934682 -0.19614148975470092
Ni 8.476645521857535 7.820904008798152 10.87547207077034 0.8544102335054512 -0.3190283937896248 1.148367800369377
Ni 6.375622753085704 7.465084370826181 6.875777542852196 0.7627000121836478 -1.1484133088953319 -0.09277517225120796
Ni 7.396555597101502 7.086781902886601 4.589175863278735 -1.2017379884604014 1.048170367512169 -0.007172863599355389
Ni 8.772338593608122 8.91918332781956 13.306765303467582 -0.9357959329727948 1.093026604594911 -1.3261621550754579
Ni 1.1616375035132902 5.470714238175851 9.71895529723653 1.6595740712802645 1.550220682955401 1.289281994219657
Ni 5.964394711567277 5.218980408099099 11.113543542118931 2.149734834374762 -0.36829073035986254 -0.41319376152014
Ni 4.636864392436724 7.815447190518539 1.5230903137904928 0.18424191010363755 0.5277716314687363 -1.1196627191252009
Ni 8.979106763749657 4.978391044458035 1.0261080498461241 -0.10379106374573738 0.10536740709392177 1.0354963715889265
Ni 0.2857184511288179 8.25235274749484 6.8710612268162805 -0.11129277143942125 2.208131014925468 -0.1023982971632688
Ni 5.499872668170804 6.951312464987316 8.985187746015228 -1.0285207116020416 -0.20651331990732824 -0.2077073402154294
Ni 4.735918109025024 0.43178482699681986 3.031369659387539 -0.078515062787768 0.16484602207552898 0.02923575693666578
Ni 0.14234539825939974 7.382576539782832 1.274912187130794 -0.5323551370743606 -1.3043538009511149 -0.6153454620246628
Ni 1.8724642582920787 0.4842958539338984 11.041961350788384 -0.7353061935517272 1.1817859708185066 -0.3473120712256663
Ni 6.84309018570586 6.460494282064046 1.3603718706343662 1.1516343869357906 0.45832330686892675 3.1159821418588787
P 4.864157955193452 1.8961658700074184 7.832453812496913 -0.967695609894869 1.5234012487697117 -1.3847416552815635
Ni 5.746888335572629 5.608667405545892 13.345414534663234 -1.3963352736564338 -1.1629654956778939 -1.114952972354357
P 2.793927891941941 8.98558846668077 3.8370573368785323 -0.2530122347998158 0.2127685567884207 -0.420290006245289
Ni 7.799104435264877 6.1576916501183625 9.298841228793739 -0.4101182079186098 0.36325805303196146 -0.9507924063816271
P 4.566913706673025 3.8598633286731916 10.356491719598935 -0.9166389004283698 -0.2635306178326365 0.3305767607488565
P 3.7947508371201817 6.409822507582634 6.2911067021171165 -0.46782379016019426 0.42161669547651265 0.6576959019664157
P 3.634878064681105 3.907709745466682 3.239439710032332 0.930827533223926 0.25092295637095496 0.0261288358765679
Ni 5.747368461715674 8.922562677210996 5.009101574542333 -0.5274420160434594 -0.5228058028230287 0.2082171899723124
