# total energy = -381165.4141176758 ev
CRYSTAL
PRIMVEC
9.30507430299378 0.00000000000000 0.00000000000000

0.00000000000000 9.30507430299378 0.00000000000000

0.00000000000000 0.00000000000000 13.61891681375940

PRIMCOORD
 96 1
Ni 3.876810308045693 0.3074163907699793 6.366693715021392 -0.7248682860478549 -0.06690987444867187 -0.3753214119543988
Ni 7.567165538126986 1.1975072264472713 6.465716454250934 -0.2974447540815781 0.45276483894454284 1.5487155591647845
Ni 0.2844682166370418 3.9890946391064976 8.161625790088381 -0.6474282014918205 -0.48184684391216376 -1.0242531945749394
Ni 1.2443954956289562 0.6906198198420169 13.123419853112132 0.7277800603780111 -0.6542966464768796 1.472217269696729
Ni 6.1589356000527165 8.476987783766525 7.66965627853216 -0.12852944703268185 -2.5447694084873724 -1.1878638015814704
Ni 8.835140091923513 8.451091762108929 2.2557416844583535 0.7201104596478953 -0.2317391843536525 -0.32992524320778666
Ni 4.381573366198044 7.213237733682735 5.729887000623218 -2.2259613582386697 1.2378450185956036 0.10752096310181482
Ni 2.920369640377925 2.537400699177167 13.171072068890329 0.6998720211138333 -1.4777153166968229 1.2631557294462505
Ni 2.6347038606839903 1.1662980073888525 8.10510769955799 0.03931679532175164 0.6344302465702557 0.14130885818553726
Ni 2.141395348942168 7.020576171188829 2.9033487985467805 -0.8468010536996253 1.3148647277847678 0.06806764220219891
Ni 8.509871916191228 5.312508825327014 6.307573925728708 0.3878141451047708 0.059640080260136 0.7288712365596609
Ni 3.8369845902251702 7.822915504084243 7.921810763796461 -0.5529401603145638 -1.2910311157002798 -0.5802912986340071
Ni 4.021094789476773 9.14541779302756 9.665331373085374 1.4394249057570567 0.21023062085791536 1.1374290419696864
Ni 7.378235310410189 5.007888609371303 9.078914427311842 1.5120434005547314 -0.664856681380913 -0.6151922242762502
Ni 3.906484189851685 4.996117690436031 9.792463811138282 -0.47727619382234576 1.5756591776331639 1.4490390318080528
Ni 5.719512773333943 5.852789351918836 11.594655705140683 -1.1914216941360578 -1.34794402683724 2.785331076228661
Ni 2.5049166849455218 0.6761336802385148 11.195416841601334 0.11846460659751211 0.49320340657556355 0.39399276311165693
Ni 1.0809332561539287 6.856183424288088 0.6957022514012621 0.3615528974153967 1.7905818046501096 -0.48877056761519055
Ni 0.0396219366942913 6.694470538773402 4.411439863041158 0.33418016182939864 -0.045543750068069946 -0.053353218810159725
Ni 2.3072955178725643 4.050182451604565 11.742624995977588 0.7826083210718006 2.0146256772420337 -0.7269187408189803
Ni 0.5535002455889283 4.725554046261421 3.023399144582587 2.1446962435095904 -1.1684604573541941 1.9165735728626025
Ni 8.844584742294503 2.906188707210057 5.546126672163684 2.099364095231694 0.18608513395996337 0.43309872797418314
Ni 7.111542577126546 3.4150180828127743 7.165170511592671 -0.044662375904381144 -0.03878817651179126 -0.21689440603133614
Ni 6.094097842629025 8.341068564092605 11.7935600419537 0.17650623202227664 0.34759437835277557 0.2908316196404346
P 1.8268838390511262 3.094783952253597 3.4775491123281235 0.9526867951908624 -1.1138867358733722 0.4575396346253668
Ni 4.328915950976937 7.724160750993307 1.2636281536110212 -0.8180980293379781 0.40341739885966654 2.125906107386281
P 8.780668187222266 8.229789181051572 10.742764990811196 0.52504780477967 -1.141219362250054 1.2966605460719154
Ni 7.463069672412456 2.2148589102022207 12.169523192746265 -2.2483366406100767 -1.139153995080593 2.6565203505101347
P 4.550181311737265 3.66551998688901 12.196570252089467 -0.04279086991328115 0.7086667365873279 0.1311224045708387
P 7.643569502852292 6.903443896440059 7.433367875383693 -0.33817385636982406 -0.46447955627830967 1.1386899109599808
P 3.523822316101412 5.58204891133334 7.404972510780631 1.0301322790635357 -0.03080670096821146 -0.040945589174426256
Ni 4.860282216430426 1.4460457598552512 12.324112113409692 1.2726718964668016 0.2519105170952049 -0.382663968362399
Ni 8.487344331414713 2.126907348323815 9.243458846922975 -1.875381929115641 0.5259626032844554 0.8243031297074255
Ni 7.04035875905949 7.418814739245539 3.963281432609789 0.16583281146883053 1.3410411290698194 0.0583622419889769
Ni 1.6130253173994749 7.7776184026005275 11.928563642320718 -0.819307476265047 0.20402372071625507 0.1284980795741142
Ni 8.235214039343479 8.444522379683393 5.986358109835403 0.9551401418273615 -0.9899870743032178 0.19428463905162024
Ni 3.1105839683422056 6.0913249305004 12.976499244144007 0.46535758800788884 0.18240228579173748 -0.8597033635835902
Ni 7.775785302971872 4.529617097629004 4.25958849522418 -0.21345529844280012 0.2626394734769348 0.012040218993985715
Ni 5.769955580881852 6.90013129000452 9.663342878716625 -0.06128815738652026 1.5386322067868534 -1.189315189316016
Ni 8.459801311613603 1.2892924789196154 0.6355719310442531 1.105818871263573 1.2839394989608208 0.5043357690432992
Ni 3.8350677449282013 2.209555017875656 9.982339434399604 -0.3816764076381491 1.1358046189923858 0.096860140953859
Ni 1.3280108929035395 2.577328772814518 1.3204533115918973 0.49280257159271895 -2.4289152429295133 1.6795613130354687
Ni 6.02187185624517 1.596127302548524 10.111092816388105 1.2621578843093553 -2.0115498665301876 -0.32185969259083275
Ni 7.032263344455786 2.074119662063108 4.343440241384894 -0.5541673478534456 -0.6525498389891019 0.39356287466309
Ni 6.053062465155075 9.260856544261532 5.246414882878609 -1.4193348198754006 -0.33962267300120863 -1.063470488204349
Ni 6.026087054883651 3.341582436775493 0.44399347919387716 -0.6678641007486691 -0.6876556815532996 -2.0608589971779603
Ni 2.434644764155665 7.27702401771537 9.769843175619195 0.1732069924457146 -0.13589411492786918 -0.2640430386926807
Ni 4.22085612362887 3.4462645221682218 2.2241593319222237 -1.0301703313903225 1.0092016995584556 -1.7499959128079474
Ni 7.868845350617444 6.156125467627063 10.893268053368315 1.0258449645420913 1.1445291433495774 0.6043588811061721
Ni 5.875735665036921 5.824929959592984 5.290786129473741 1.9124664926727641 -1.9139124810906716 -0.5565271063348738
Ni 8.824355510859498 2.40190020784482 2.8409880518903368 0.22469281902983237 -0.20880237305182106 0.7823990332744719
Ni 7.636879154461414 6.443680177395195 13.2338282812027 -0.6438212008668525 -1.6182273900126778 -0.33653194989102686
Ni 0.5012420180534526 2.856685712162118 12.808645940127038 -0.866638657250843 1.1939899690838662 -0.27734027002221917
Ni 6.2925750765336375 3.6468167876321753 10.864885715869214 -1.4409644823300345 1.3155278152900634 0.36379592781330244
Ni 5.661635211454585 5.532704102547771 7.738758551487895 -0.30021306085533456 2.885604099518811 -2.7536044345493416
Ni 6.624133482463744 1.1950227716206172 2.144052878150005 -0.6177607563343748 -1.1884258447325275 -0.23074699564371232
P 5.097905897734792 2.0059506880553633 5.9018391898504525 0.8300487739419512 0.6789298716445274 -0.33712587472128386
Ni 3.0032313266376804 9.013155467536695 4.31360165976455 1.8434462567493093 -1.5938373912040873 -0.1552231542737843
P 2.1003041410226757 8.891668418035586 1.2059050559643323 0.5139964320615148 -0.491458913080631 -0.5784922977520554
Ni 1.2858961268157627 8.475163989212128 7.423303507067179 0.1020131459097082 0.30889439067941643 0.16527333942093472
P 6.694461233699144 5.737564617392777 2.813886092609016 -1.3402757116587047 -0.545808434365789 -0.8020263205870961
P 3.2549335852930854 5.780693636574582 1.5048082342964622 0.35722033147831384 -1.1508116339241792 0.6725581637902288
P 2.0404539034008065 7.220300285043898 5.180949032942562 0.38804580149960266 -0.014228227784240011 -0.04814853468076869
Ni 8.501097231166753 3.6476821595380886 10.987605687709392 2.7572453737360387 2.4563355439239953 -1.2832064774495384
Ni 8.586796965074932 5.770420834594709 1.7871148821835723 -1.7300896608023235 1.003622148588149 -1.6887715187798271
Ni 2.0137018149115535 4.658352799976417 5.86361115327988 -0.6463611936798869 0.4010519839512835 -0.7582635736788489
Ni 1.574734936831379 6.329339424923564 7.2270957807738805 -0.5773111329597606 -0.3197128214511591 0.4582423171193463
Ni 1.0254470983586539 9.247978321489663 9.469246473772268 -0.20252271069069636 0.5384278256310017 1.095973603038377
Ni 6.735971169960207 7.638702949015812 1.4346033100412567 -0.2478872548684247 1.056018659911994 0.38947867729138724
Ni 3.049989324779766 5.029960245509218 3.7300581209216217 0.23624478553348993 -0.5243091268414326 0.034088457043276774
Ni 0.4745318023983568 5.510883703414799 12.397844591315776 -0.4920471814839332 -0.20939244122733616 -0.6041675910309724
Ni 7.903860345047029 9.05358601518393 9.02250520615026 -0.04828454603800071 0.5235642782556079 -0.4242934709777273
Ni 2.736985236918379 3.730981184287929 8.199963626535189 -0.16547774212225697 -1.0742866049832467 -0.5310503022200079
Ni 4.237409850732306 1.0034312926662812 1.364179716541009 -0.23463141829978304 0.22089941342567115 0.8494857996206402
Ni 5.491212776435223 1.1828517344922893 7.8429028035885615 -0.6335085060869348 2.6911343410395783 1.120427108095051
Ni 1.243167225827015 0.5028545874222135 5.684386118013271 -0.3359642503130149 0.5780518677805271 -2.087817270934359
Ni 5.141100052436396 3.634087446048419 4.436307673993342 1.497644194410266 2.7644552612209163 1.8008505335659695
Ni 1.4372059393109766 2.694060929370232 10.223040303760802 -0.8833248596572721 -0.9779373422275351 -1.393223981720962
Ni 5.391974159482917 5.786565138430831 0.732532665818414 0.16317634768258993 -1.643139579873325 0.17311648961443735
Ni 1.5537985197528332 4.592910212726013 0.6813966302383483 0.8718605677714145 1.0846679482175707 -0.39646539302186556
Ni 1.494729908368563 5.133441976322777 9.663057212936929 -0.09785850031138629 -0.1349698033413869 1.3703956709725367
Ni 5.391862498591831 3.7564398674554407 8.802396466120094 0.11636607219727056 -3.761550407323825 -0.3531729008818176
Ni 0.03299672382321373 6.784431996691347 8.961628618837828 -1.0409954470302847 0.7776702603402348 -0.0038453418880191837
Ni 3.9504506657166303 1.9934167530310072 3.9223437584155394 -1.0615079651613395 -4.1140046848720635 -2.2197313181685576
Ni 0.29996767882714565 1.425779308123219 7.558049356877274 0.8408975437309969 0.2868590081459318 -0.5400062258617152
Ni 9.08359487966318 1.0357571206355556 11.319553045743445 0.7373252808642851 -1.0135270664066867 -0.9955655968322595
Ni 1.4891654739627986 0.5636399850069245 2.9650693560943333 -1.1699416698854108 1.4709008648781505 0.05442254061493853
Ni 8.61677791433141 8.49916177572127 13.222688246302061 1.0058626078828936 -0.6520086217736513 -1.1120244858536525
P 8.695126639576456 0.19660412245665265 4.096434253707063 -0.06197592748216423 0.9620790350390399 0.35353156977281697
Ni 3.8154805636169393 8.911199768901305 13.14465124104463 -1.5767030455166458 -0.6943809160922751 -2.3076121384419417
P 6.78228252453795 0.17481443006872802 0.06266037004752299 -1.8970933526508036 0.4043034010090456 -0.6188426765446439
Ni 2.7946766973125943 2.65484934645068 5.650747344066315 -0.8105395002644299 -1.4255422342376933 1.3708651544097874
P 5.19344109513276 8.894357584495896 3.050106568715406 -0.05754334563210735 0.36644930627574956 0.19253114669562324
P 8.02767366311242 4.109120791949236 0.08334368910627471 0.8798245598134976 0.5427164257040267 -0.5676257873511966
P 4.099583090835676 7.251165216354803 11.202308179596164 -0.3697984252536406 0.887277159436801 0.11447733981498993
Ni 6.488800482468025 3.552900673154948 2.5674793517133447 0.9096074475028851 0.7107688705319953 0.0924211313458989
