# total energy = -340862.65902887064 ev
CRYSTAL
PRIMVEC
9.29447425342647 0.00000000000000 0.00000000000000
0.00000000000000 9.29447425342647 0.00000000000000
0.00000000000000 0.00000000000000 13.60340256974681
PRIMCOORD
 96 1
Ni 1.3210515168858934 8.99591720473419 11.355467290081032 -0.4288047285845196 0.738444996291025 0.3427231663034033
Ni 3.628730070564589 5.88404355598936 10.721331332542125 0.25313050554523503 2.1987755418524975 1.464533527899226
Ni 8.436417734787168 6.529377496175111 5.833002950324391 0.28837930144520013 1.753897304744883 -0.6142447727613164
Ni 0.5690495422989762 6.112938574784072 11.242015218882111 1.4103812102265385 0.7810317206133001 0.06022834866343821
Ni 0.05271454048792351 1.4559143391018061 7.104254673865498 -2.6313633916285326 -1.9942478849166303 1.0255415743690595
Ni 9.061071469636572 5.417535301498588 8.779717508397418 -1.0233715633009344 0.23401486776170666 -0.08861512733624738
Ni 2.7801631551498134 0.3669272567498139 0.0764767935049602 -0.6058611766833113 -0.5561910631516938 -0.23956870770040029
Ni 4.785464576151026 1.6643615144178827 4.227066501409557 -0.22559347646723082 -2.590570525981887 0.2153419739425517
Ni 1.2829255832725457 4.057763004643606 9.925328387131477 0.2661544286087287 -1.0214260095387893 0.06808435437274725
Ni 3.4807992174709663 3.852364416900707 10.181806617331437 0.7180268376459893 -0.719251968302342 -0.8551779649094111
Ni 1.5082236405098801 0.2178420299470791 3.681380479179784 -0.2124191438688019 -0.2936513484774168 1.555247446746031
Ni 4.5530934239649445 8.077567376211416 0.6429443308410431 0.49693999079986034 -1.089650746144143 -1.310415947984795
Ni 1.4822362903433957 0.6804512524654467 9.025721795499164 -1.3032266293252073 -1.3751632675645091 -0.3795061394597077
Ni 2.0295507044720127 6.079543528593736 8.174747611238494 1.4140794850137324 -1.5162199005299242 0.5633153329013008
Ni 2.1747396876446365 2.539343325817333 0.542518465385446 0.5657907910249869 1.0489440124534 0.4852730959848933
Ni 6.380191889049844 0.8471262718969625 1.3899681849883434 1.1589466043264878 -0.026658483127792797 0.1145927823469317
Ni 3.8284683234536283 6.687030369395393 6.0614992361712705 -0.21320281611236183 0.9184181038159797 0.5040213231266739
Ni 0.2808065167023843 2.5436001950506126 2.8955661365060803 -0.14534600436938838 -0.9612465118354157 0.45370766247378636
Ni 4.52382512436757 5.731437582318576 8.559519329213142 -0.8973713104480093 -0.2772559378385289 0.20724017077102375
Ni 8.881186213870425 2.973553282086167 5.247798682229862 0.36257773913548524 -1.0790256623301286 -1.0239678021240366
Ni 7.119121185521896 7.285984882781874 3.586864040489513 1.0612120311874755 -0.2036390836833267 1.3688602081646166
Ni 2.576660640165843 1.8160287461835107 10.67573264158477 -0.3304713455192438 -0.5719444693312085 1.9543595333621246
Ni 3.2864238762579143 1.9624260110162357 8.429688535387836 1.6761093499311264 0.13794456969899468 0.1615220999086186
Ni 5.242734123179176 7.831338162831405 8.955895198361915 -0.1626832100962553 -0.551840756602798 -0.32634523916601216
P 6.9940082668555705 1.8783946687933504 13.063673628154264 1.6170379976902667 -1.2266440076734617 -1.570399214785805
P 4.949679348233089 2.278772738579351 2.224904753829746 0.082739899502393 0.7787472954544976 0.4927362371311579
P 7.305112910908708 2.264357008926913 6.803715058758799 0.3884258105468407 1.3653151711258358 1.35550641256553
P 2.0441244401876952 0.2948123600378191 5.774603909349407 -0.1810293167036108 0.3508918181571247 1.1388549757829354
P 1.2965141047115303 5.904742350274324 13.575379981759697 -0.46608341043031987 0.7691516813462624 -0.16006325597490498
P 7.869278206958583 1.1853428975079099 4.103276186437325 3.597038885769579 1.2369950118904824 -3.229609732079064
P 0.20486973215474624 7.189703423420425 4.09065243143156 1.1962165444215398 0.37305267052488006 -0.5184182152782942
P 3.9480045575348726 5.978902960781614 1.8750254218565299 0.2971843013313398 2.137684588078448 1.2081230660511386
Ni 2.896762335349581 7.616180377064612 12.349645157802035 0.1391632725974442 -0.738664825611315 0.37351289799075027
Ni 2.6246758944434037 7.280389609248175 3.9720437858863016 -1.2862480924893398 2.307005358095879 0.7830238113426643
Ni 7.168326132510942 8.946610018527753 10.068504187168886 0.018491373935968152 0.925686869563251 0.574486776137088
Ni 8.47166238136489 4.309791969992102 10.77581275259609 -2.0112709018371877 0.08023718768519729 2.31696915417681
Ni 1.698555885398747 5.930367215942778 5.987619318788098 -1.7859990703754338 -1.0556949580239883 -1.7209411615338361
Ni 5.439107776368549 5.116003965983176 6.618980875745924 1.4336790044122147 -2.0047246160782377 -1.1225981476044409
Ni 8.239393468396202 4.558075262194285 6.734146848007326 -0.6724974857556224 -2.111172143610216 0.9646380540154679
Ni 7.132607467743488 7.458053485654596 1.2373882358456234 1.3924235973068535 -1.3123797565793849 -2.545645126224106
Ni 5.070200796591031 2.261020292650172 0.07972521227577078 -2.424701204848166 0.164532090379536 -1.2812974333522835
Ni 8.344142193852669 3.040334079992531 8.905304445253476 1.360443187745515 -1.482406294414589 -2.45389325303109
Ni 4.707260869319551 3.725699321024866 4.713633160905439 0.31371135245208553 2.5939615539413063 0.12496358405829446
Ni 0.3388681682599711 7.884000654263201 0.30501118669650423 -0.09161226229135835 1.3491205636438444 -1.2881972457959106
Ni 3.330730635286395 3.977179912389163 6.908909918982072 1.0090320067498106 2.4731130204926504 0.07650754543943598
Ni 8.309380859938987 4.856901905685932 3.6055951945633744 2.364335559275915 -0.6177031636235619 -0.49447327442692257
Ni 6.237856309489921 5.23955541296568 1.9020686243044567 0.06079373424860497 -0.2532667740127832 0.14635567658082535
Ni 7.15526739610754 4.029126729299207 13.357371580722498 -1.0908825616687148 -0.23662068081566992 -0.3491031016878181
Ni 2.2968411966350186 7.461613269314741 1.607173543445292 -0.3447705357507353 -0.8474667123080823 -0.8599401621847448
Ni 4.9563806642094965 6.206227213418194 3.923847289359726 0.608173626866572 1.0801304653585333 -0.16759993067158233
Ni 4.357258850285463 0.12694300065766462 6.690956355343292 -0.725650415629518 0.08056217512478384 -1.1671029148850351
Ni 6.5387184428551235 0.7474411760437505 5.392932828004066 -1.6724360148445971 -1.7956134535367465 3.503300064053522
Ni 7.076050591576443 2.8888341487644547 2.9736490151715445 -0.7592200240548473 -0.2693755066491877 -0.25997966725658456
Ni 2.94241679315279 5.223801279012821 3.9507817464582438 -0.23322476776024348 -3.4309872734217235 -0.1386513659580322
Ni 8.500689024630244 9.20069306269842 2.4202355670017086 -0.13939132944785027 -0.814017174400385 0.7361680273313902
Ni 5.115418414101741 2.410187310826821 6.65117972309276 0.3778881442403105 0.5949910667380269 0.6057935566701695
P 1.595619582432432 3.558891390610739 4.393967376566769 -0.24640527100625947 0.22604804750614618 0.2765905363403882
P 5.817811132067196 8.37374509452515 2.3449949385797755 -1.6208499152371891 0.5408886284666685 1.3813621972863694
P 7.073968629331346 6.075165831194447 7.87616634186859 -0.4978581317387555 0.24469831561748182 1.0482382446356269
P 5.029807011246417 8.576987364228481 4.701526178671225 -0.9332335715622572 -0.5516769773314241 -0.27329643897014866
P 3.291545131601882 8.032628592929958 7.817032107975806 -0.9167250323842729 -1.3948491760292108 1.428477148496301
P 8.036132609744252 8.600056249462106 7.637929446946434 -1.3568351586792826 1.6015399020546677 -1.9073384274175795
P 6.306923548076169 5.298333668492449 11.539522047021958 0.122531320467718 0.8458255771602335 1.843687683336154
P 8.722362236887275 8.009578296644952 11.313922848817029 -0.5949676696992593 -0.3138427358236272 0.6039899278025276
Ni 6.054104552411451 0.6192350563275648 8.222019307571378 2.421291922056301 1.1857966346397963 -1.687493166288036
Ni 2.0442359738793967 7.511598952145698 9.792558680529833 1.469979638615462 1.2339042887803007 0.658868325007962
Ni 3.9543340945389414 4.080023270612394 1.2128471058815369 -1.0983814411489212 -3.6516905116761884 2.5186763109447465
Ni 6.121573141416642 7.300707330086492 6.268271547216961 0.9447613696961987 1.6355185729929576 -0.0011600817463721957
Ni 3.759614857776476 8.939657751745017 2.6992956519815317 0.589912623773855 1.8032835684874942 1.0699237000288606
Ni 6.983170909811894 6.667186666746808 10.244994171470147 1.4133472348333982 -0.5014538195098137 -2.098488891715592
Ni 7.535234800312139 8.881000324384257 13.030617830276187 0.06578758791877057 0.847312189008089 -1.100844300867117
Ni 8.866184932336553 1.635409226946996 0.8087112801326215 -1.9311725537226998 0.4211886068001585 0.6847426216715626
Ni 6.427956192521076 4.20507112795856 8.975076204992305 -1.3139807825179177 0.3434453891814085 0.6551319978939815
Ni 8.060186709254575 6.181857101781384 12.762848672686296 -0.12766349948796077 0.5776829144768825 0.1688479441460705
Ni 2.9164945043064647 2.452096095483716 3.0508219648022092 -0.9017103041429954 0.18307025839303956 -0.39292601241003944
Ni 4.699397744054584 5.415555578470884 13.371192464019193 2.052403667321756 2.850916575438955 -2.529968081808482
Ni 4.609055453776248 0.552821390156386 9.86872410914546 -1.4346704217912065 -2.1260243781317 3.1430982813493804
Ni 5.478033034772425 7.439055580168082 11.936305943592872 -0.463808241242898 0.7498234133312958 0.24222645703822154
Ni 1.923091795742787 2.3575527028179506 6.85285029719053 -0.2896975060359914 -0.84380289030325 -2.858587204610335
Ni 0.2554112245493493 3.80268545172193 13.256461473155428 0.8619283962593672 1.47545017481173 -0.6343561987992108
Ni 9.178321263037931 6.346852609705359 2.0146228492851774 -0.1237058003917934 0.6456813940040429 -0.19236556765203644
Ni 1.3973219730612054 4.517709360272596 2.2506011869503757 0.5026882061375472 0.29803585069835764 -1.2181372557540313
Ni 0.754665770923725 1.619404142187809 12.646566434060446 0.43205126054627524 -0.8361695421277083 -3.2926344125407168
Ni 7.343712862711788 2.1041481552717998 10.828649050697454 -0.2865137089913711 -0.828351074524554 0.603366949506548
Ni 9.033132279865308 9.05384036862458 5.550990940304199 -0.9215911022273224 -0.39611186633718876 -1.2843308208619688
Ni 5.402599081284875 3.4866919141825368 11.532597663662145 -0.11505300981280185 -1.1971711950253254 0.426610034926046
Ni 9.096446238854611 7.632557240796137 9.03465936199419 0.32155193154242684 0.4059782176083073 2.5852948794052444
Ni 1.0741345124070556 7.968877793648157 7.1534577619596815 1.0898541204042005 1.1342362460640014 -0.32257317371808963
P 4.399846131566877 0.42912866716439363 12.226669968226657 -0.15935491705397073 -0.9906864143630874 -0.4593360644041573
P 3.425850285359286 3.949947102665343 12.550553585006512 -0.8171351512040765 -1.2738808291732384 -0.393466972515174
P 6.775216341634166 5.322880375141121 4.734636813947721 -2.497338211588602 -0.26535198731209136 1.7163216604839537
P 5.021330450677091 2.465396488219138 9.575135831374064 1.9670096180259675 1.9564871212280883 -0.7067718335574603
P 1.1758997116105034 4.140623243103623 7.733656955639098 -0.3558100813943485 0.2947782629930084 -0.7273146907058184
P 8.513004203088968 4.193146317420792 1.43084714189186 -0.6235297976076681 -0.027564282771513817 1.9511238000336464
P 1.2350125682123783 0.4625590323571018 1.7064245873482986 0.5808235169883933 0.35230669622678035 -2.384678898818958
P 0.24988844791525586 2.003814305111857 10.400372686827147 0.9282949966100593 -0.10319713891548034 0.6797120012261907
