# total energy = -340871.98047073005 ev
CRYSTAL
PRIMVEC
9.28352552821034 0.00000000000000 0.00000000000000
0.00000000000000 9.28352552821034 0.00000000000000
0.00000000000000 0.00000000000000 13.58737800367687
PRIMCOORD
 96 1
Ni 9.054612456995459 1.1788777859089685 9.697176325379235 -2.5016851757033884 2.3453829294328123 2.62911419058304
Ni 8.071217870320147 1.9355315425475785 1.2498280589043214 -1.1528574607096145 0.7133314890528488 -0.010949299922652112
Ni 4.52141118972139 0.39768302926208754 13.256253534674137 0.9108156088783732 0.35630630430447663 -0.6137405794313882
Ni 5.428216689932454 2.8878356018812212 0.5029814187433884 -0.25964979472099153 -1.3078664420900639 1.5113592300035132
Ni 8.410883506144863 2.4770117420869955 11.704887279715848 -1.099804803859009 -0.26290069755812145 -0.5738493996634052
Ni 5.199999779320259 9.044382011748962 9.385209944982808 0.9073124808211214 -0.3207700590710798 -0.10250654060635896
Ni 0.38627079120263297 3.2551011594099624 4.086213433380269 -0.6954252981963894 -1.1462684946381871 -0.0392741150092743
Ni 1.8955938152785852 2.3384736890802107 2.428703059755601 0.298846262414795 0.03450291887287606 -1.1491982666904725
Ni 3.3486512472039296 0.10435425492452345 5.707500418341319 -1.152222398228777 -0.21525507065570026 -0.9168476740050663
Ni 7.555861511909262 3.131676686132123 5.433823939414201 0.6676776957694759 -1.7851125540054225 1.8107672784590492
Ni 1.3685959157251348 5.104509434669198 9.602892839060338 -1.03925043931472 1.9645925239440423 0.05102071402224116
Ni 7.93404449558127 4.275852653228563 13.387290498970241 0.10580552307260488 0.06454188843712756 -0.10105438154086467
Ni 7.326614129951912 8.324546717766983 1.8403289871911102 0.2774282017503351 -1.5978732518363579 -1.2059108888911683
Ni 2.2912855282926023 8.08362066056454 0.16100047162604444 -1.060859018723431 -1.5927174186670312 -0.682999670838527
Ni 5.868849950531129 4.64319247896236 5.560416879990251 -1.154843637901708 1.105491055610509 -0.3842703936175705
Ni 1.6427384276389825 9.031774983940664 3.3456062507966235 0.16961747532224336 -0.14113145206740854 0.679078738517566
Ni 8.312431716817184 0.48958714796149544 3.198387172971328 1.9153767243410238 1.9007515182286814 -0.011650696865050903
Ni 4.972887608258277 6.383807117339836 12.155621944554735 0.8250731751042306 0.8637482230769253 -0.3797154272570364
Ni 5.457329826314501 0.6262768510149428 6.5534505513293 0.9690266700014667 0.7820642756428724 0.33386545880245727
Ni 2.3277512169752166 3.2741416704812565 11.862202191665975 -0.46091600729676746 -0.4414355299746527 -1.5131870272408714
Ni 4.260182061961697 2.4060577556813896 4.913277161822448 0.09415996841387654 -0.575958218476292 0.8762530404121553
Ni 1.398934477490609 2.6403275250056684 9.181725275006904 0.7218796357331762 0.05034682788366813 -0.004471405507792299
Ni 1.4969499411135825 4.740845885085685 0.05734619453417606 -0.33490418447961673 0.9257267216622509 -0.018116249984736543
Ni 3.77444943384262 2.467264040173364 8.312173634804614 0.530780336388073 -0.08589464308129077 0.6460665452576034
P 0.6983225800348752 7.515552443614988 1.8345137867352066 0.5958724409017156 0.5003757559542866 0.36536172963852565
P 7.275666141283332 1.0290138316311075 4.924908491086818 -0.06463727636441126 -0.685095119914975 1.7624030282230485
P 6.052626623942795 0.7583099376113639 1.4416071314107985 -0.36458422804255275 0.1580634519360568 -0.9710282738125277
P 3.5586910146286095 6.352967245190232 0.2639092816096608 -0.2882857132901293 -0.8082440193620338 -0.7016967330273979
P 5.296390625957628 2.926315815625986 6.824695674893391 0.21921996884071926 -0.10557669489125043 0.5681819169649828
P 4.9598349712196415 4.472097101564047 3.5130439190959177 -1.3148675559982452 -0.7290121330128994 -0.001723410449009935
P 5.962762095824744 3.360432041230976 12.184386020373015 1.7625686072666353 -0.30173386837523525 -0.7692300999926817
P 4.2530244636994015 7.765483520680501 7.691502176566291 0.495965542701733 -0.5761649351704593 0.6005883583201463
Ni 8.855146625265661 7.151331882493553 13.416217964839646 2.0645778407904443 0.7327708287243831 0.8184685253035194
Ni 6.707124464526546 7.157301189474948 8.0491360762518 -1.4225201595819177 -0.736419224110248 0.7540271669999982
Ni 2.58024454711517 6.015780310709268 11.640782678521553 -1.0962962764851183 -0.40843876333365786 0.7606171615126901
Ni 8.691645171834347 6.909969499586404 9.510091003432313 -0.2171299190809099 -0.27663784463855584 1.3097011813059574
Ni 0.4761622415450168 0.20951803328415994 5.492752046716075 0.2584205502995807 -0.2466479831446849 -0.6765724271559445
Ni 8.760064755742409 5.260008489005702 4.792186566888501 -1.5904458490240352 0.10709004621198333 0.6767544612597635
Ni 2.8801395591322687 6.929873378541475 2.301619949026178 -1.0567033446838447 -0.4958133333945848 0.23200477931021332
Ni 6.786563593359828 8.87407573402937 13.184159531320917 0.6618770299272988 -0.20376172530412004 -0.10534966648210889
Ni 3.514371463261298 4.600803900926511 1.6988164925718232 0.6058730037578534 -0.8753590678429763 0.19133789771847046
Ni 1.9280583044137942 7.532244222701378 9.244553391426793 -1.3712670178338966 1.105072737126168 0.22461542882467767
Ni 7.0518403382950865 3.8784527714982526 3.480869075960428 0.3271710775014172 0.8232615758167886 -2.152335762332719
Ni 2.616830921631 6.016912900836377 7.368597946270205 -0.6916599176166862 1.6048545682501973 -0.5093514770903357
Ni 0.7687780411140409 7.839222564775716 11.484079550910575 0.2782782084554562 0.5044797508203311 -0.3795179665342496
Ni 3.6032333706110893 5.968295077101435 4.919024592541237 0.14926025182213004 0.7250580334611577 -0.12385183905135443
Ni 6.012679613148171 5.079991643475007 1.4476804138792725 -0.26894741797283356 -0.7754259443907483 0.26393145281548097
Ni 7.406294630451626 6.506804548438602 11.582954669007075 -0.051947082491252475 -0.7477978982608346 -0.11991856543521928
Ni 7.642161166184614 7.8426110516314065 4.135875653748814 0.22113852601967074 -1.985127153562284 1.569883451491651
Ni 3.5903199864569357 6.164753046526455 9.481421619575476 2.3072254445264844 -0.820858879912567 1.0873393244021468
Ni 7.847605588421439 8.59681395750316 6.4970085721916835 -0.946715408098776 0.35551543297206517 -0.5177610413102696
Ni 4.03378472237338 4.418141250590688 12.869937254195907 0.2849031699711416 -0.808800406086136 0.12217059469418962
Ni 5.403615347007575 2.2020522799175293 2.9406755730736105 -0.1638540904759049 1.250320525354795 -0.9537872273438929
Ni 0.6788930892395995 0.47346352064378566 1.2387788066970795 -0.164907985661716 -1.031374636111069 0.05261094132749649
Ni 3.113805899290465 0.24553904108899977 8.375137290698731 -0.9412731540372823 -0.151405580299907 -0.44988160385947684
Ni 0.9059551292631699 6.931126654501799 4.4874901154145155 1.102749745419946 1.8374995522475708 -0.40154280754477295
P 0.153699907069016 5.391797418878 11.754128028020697 0.8982334013379886 0.24916560736021606 -0.28055286342224584
P 3.015567631052323 3.9762082964035295 9.779257545607392 2.3952543603419585 -0.8107706424386294 0.5995933413967286
P 4.041814972045086 8.120476257323698 3.564377174078228 -0.9353354483966085 1.0176909679763892 1.5908060605769312
P 2.0004790878692607 1.6853405267643684 4.490873032154828 0.3586511503875694 0.14172254868418815 0.8967041091776558
P 6.511390610100825 5.48732489763159 9.74791079295828 0.25078488813119393 -0.0010942615054432767 -0.23262390095145097
P 1.8175100811875804 0.585426553176321 10.272003877341467 0.7006114703830192 -0.615615684966914 -0.04933895544444406
P 1.5477865274745792 5.171963531911529 5.552265016132766 0.07173840618556677 -0.4880380603245402 -0.03254168138144718
P 7.637556537471127 9.071415638389434 8.618283967232356 -1.2789155633836684 0.3786461054522576 0.8321750762563346
Ni 0.5680654318918615 4.344959218033395 7.375106626090822 0.4898745993126467 0.9673050593246695 0.04637318794790079
Ni 4.835788501724457 5.079768838859838 7.707943300460616 0.6814495527425877 0.21229830202022149 0.8130779504155674
Ni 5.177385110880634 3.26556369279726 10.226988989904317 -0.08184284160942033 2.1407400870753195 -0.6140398558393618
Ni 7.202484108726039 4.58794621792615 7.825759595904145 0.6579658677983508 -0.37784906347225894 -0.45237557392592415
Ni 0.6370253169917072 2.5142572469227003 13.377153817332628 0.24568176257667365 0.7256411596581374 1.6406204129958972
Ni 3.1342853568347233 3.944959949126116 6.609159131941986 -0.4901641055286074 -1.2117758323123775 -0.9108577749702184
Ni 3.246300377110798 8.288201714917586 11.270118422258925 0.31181053588494684 0.6107156765621352 -0.16519774898799292
Ni 3.891440423857463 1.4728684756240964 10.90302832336463 -1.569731242184503 -0.766205711344061 -0.30586228872131194
Ni 6.413189475965211 1.8544306626261637 8.665594670558308 0.8406388907529716 0.13087352178482622 -0.8481231149451587
Ni 7.796082021163672 8.889319283117164 11.01697246026704 0.6388931674376158 -0.44296842167941136 -0.40875552324312825
Ni 0.19698805873860897 7.064651603667288 7.405800746888002 -1.0140821675792084 -2.6268264229901277 -1.5546262682222645
Ni 2.7000670124477817 3.9700254683325973 4.150441505465469 0.721745424148157 -0.8703955531901139 -0.6029383466095616
Ni 8.603785885252815 4.222574499626343 9.876461629090125 -1.4143502221766158 -0.2003827815295581 0.4821502340851954
Ni 8.478040530566968 6.123497058617713 2.436569919376183 -1.115828432980775 0.24084140376523686 -0.2032899278740241
Ni 6.285708101986174 1.314853585841313 11.112192654322211 -0.38520936049207205 0.7129483946818173 0.735581558700301
Ni 0.47426004714301384 9.187701080456241 8.255092949103513 1.9720332964928038 -1.0946505133515794 -3.0632984383119175
Ni 1.5414644465191665 1.924261342430294 6.790795024342907 -0.02395522526401681 0.459171513801835 0.04256332728350734
Ni 5.220117179364868 7.599781871674397 5.790600969683874 0.9051028747643122 -0.42719933177061264 -0.6097134605498661
Ni 5.427715379548324 6.550409268332247 3.2522344066947917 1.2944038888272547 0.29684851525847583 0.9684669408432547
Ni 5.008508496108376 7.712483872847242 1.2268847536573224 0.48288608380995546 -0.021779814879252814 -0.7319835569363974
Ni 5.804607953157481 9.338576939027995 3.584690456513673 -0.42863375022429406 -0.5655347091501228 0.7244209140977912
Ni 3.300154109302204 0.1854839137753973 1.7145780623898839 0.8329548918451526 1.1579718991180443 0.7460251226311282
Ni 2.291331945920762 0.9130041102755703 12.91843067868738 0.08241876871754837 0.9278111149951053 -1.187381205518097
Ni 1.391832580382106 4.984946908054282 2.58005330648715 -1.9373460295232634 0.5596926485470489 -0.1677590819572659
P 7.017853350956225 6.397713838736617 0.21582061883574513 -1.8941877489682348 1.086156359837639 0.14337242558278535
P 8.60550333749474 2.688703977074177 7.231528547018407 0.27717134854452263 -1.0348857345881208 1.2553837988103154
P 7.304909247024226 6.204941428987513 6.184824957295467 0.22831601760471645 1.1003313657864406 -0.6294543906222192
P 5.451230549974256 8.399084145066553 11.469636241732264 0.3531001386623532 0.8375211710595964 0.08412469566506157
P 8.668037166152095 4.003483294710434 2.0002117223310583 0.9038479193112885 -1.089175349169621 -0.3191795746555084
P 9.367820044768889 0.5149534533984544 12.711426624144373 -1.3043247474853925 -0.6995406059163437 -0.9115144347176108
P 1.7862617339101672 8.092913469722202 6.648181503583661 0.5859230429984877 1.1478630928188167 -0.21750272903929638
P 3.033856176547422 2.69082062091828 0.5123122903561419 -0.10802541354205913 -0.32553714144241996 -0.4587611657372938
