# total energy = -340886.93811197 ev
CRYSTAL
PRIMVEC
9.10143293010046 0.00000000000000 0.00000000000000

0.00000000000000 9.10143293010046 0.00000000000000

0.00000000000000 0.00000000000000 13.32086708014399

PRIMCOORD
 96 1
Ni 6.442777077620292 2.691794349078226 11.601223624965606 0.34764631463663354 -1.7830405019677422 -2.517457865156613
Ni 4.4401341421034735 0.45799958646856276 6.130475962786524 1.1260683655412282 -0.3385818904415201 -0.5950337470505043
Ni 3.0108632895716596 1.9577637688575742 4.8415228146356135 -1.896069796482296 -0.5500949775562849 -0.5797107435401887
Ni 3.4010690312430794 4.674778189080145 5.065912276928659 -0.09908234541615839 -0.4932969947306343 -0.02717938862826932
Ni 3.7529486380935553 3.241584618878461 2.8939317175636887 -0.2975193160732553 -0.10701317022746085 -0.2721024186620475
Ni 5.22217478197278 5.019585982405123 2.394652581230392 0.1551953863596424 -1.6902786994529728 1.1760248999650134
Ni 5.577112470347795 3.5693272251245327 0.17708112313707494 -0.6561545256212248 -0.9167877673014082 1.3113680274854187
Ni 5.645591653058026 8.06599036826645 12.872859476340498 0.5670760854953136 1.2952053016826273 -1.592061016029955
Ni 2.4896970268984426 5.576548181495052 11.386237763360523 -1.1961237275974173 -0.39455326360081727 1.9144539554164384
Ni 0.1046136924385892 0.48079321554611515 0.8280119785016 2.2543234543211303 -0.33672118308369753 -0.03965206717398332
Ni 7.8143084385101975 9.204370317209518 7.2576083606937996 0.493376441818318 -0.1878036593129669 -0.4244456802848755
Ni 8.919741199599594 2.8007567062561756 1.498464497741082 -0.25922633403032774 0.1318597969574955 -0.019286359033437752
Ni 0.41649341091942127 0.43002997238206453 4.823286273115612 1.8861337683155066 -0.6476043220583685 -0.5176024042452183
Ni 2.09361175943877 6.877343204263757 0.4336086558804248 -0.9611691216302607 0.7406859698064018 -1.1267080560077563
Ni 7.778084734737375 4.136209986302999 3.7834193259983375 0.7132651545912878 -0.6136552188064335 0.09234554091295709
Ni 7.751135391302367 4.204470734618621 12.588299529622201 2.443256085032218 0.5042025858995445 0.8098278189093858
Ni 8.185519489283656 7.615342009319823 9.109208463054365 0.6577177563432867 -0.42763307687392155 0.23985641414414818
Ni 7.079422323577323 1.4030951309110498 0.4162321997892001 -0.683951493228835 -0.011975170084005183 -0.34689143874847994
Ni 2.0372738884956103 6.693976631421779 9.410819944701906 -0.2597698652386236 0.9644477923815326 -1.6725743401946742
Ni 9.312222299548202 5.220754958407814 1.3444755306875265 -0.5958999517055416 0.3603244243249343 0.006998285694704076
Ni 6.660774603441061 2.108847558462817 7.056302863194477 -0.5235771337714143 0.6643280625709527 -0.7802642463196563
Ni 3.514654916440274 4.710510415465096 0.3243231978271145 -0.5234550063712533 -0.48048544478826277 0.6140771368352005
Ni 5.8516480986401165 5.746799589227321 4.98141821252027 0.9205179237678017 0.5032253095879398 -1.1203715722667673
Ni 5.5364381657847925 3.303984044272048 8.816269737016153 0.6634893687197412 -0.9006967752768165 1.71283524459725
P 0.2666738103729839 5.8669294048297065 12.529208475163644 0.3636563169116447 0.3464659211752872 0.1452444457945176
P 4.2222640363462265 6.382625706204566 12.509346417690418 0.06281153600958214 -0.04297470378931309 1.0617956716050874
P 2.4416141557849182 9.109624398547433 1.177865606342068 -0.4683925181794707 -0.6932362609648706 0.4799699386044251
P 6.251082693483808 7.8076097837421585 5.87053266219746 -0.48804217408959816 1.4385149923482774 0.8755308175341503
P 5.064346830433953 1.414062357807093 12.6959185152733 -0.23443035803257045 -0.9583990150842915 0.0036741064174775438
P 4.147814313516655 6.563243646247701 8.247161675442596 -0.09300759997698821 -0.47946600238481296 0.20190178927724586
P 4.856688532624723 1.2728627245579522 3.838368318249102 0.40457156706876773 -0.2453593462402484 -0.5362601285557216
P 0.2970662259530313 6.006490780119273 3.7788103602720673 -0.6123298151267906 0.4065279194641902 -2.5118634017879704
Ni 0.903658539784972 7.999295066445533 2.5621890314663216 0.08106893955787328 -0.4247490704579072 0.1483289982571123
Ni 1.9893184374456088 6.8295515790097125 4.764847791410952 1.1204456200378126 0.6232603459963654 0.06164579783625512
Ni 6.116508903537837 5.945675004086608 9.309394484281313 0.40933890655042404 0.8344587300841888 -2.018663594756833
Ni 9.174608630943908 2.8574859388230123 10.614533621072823 -0.030198377960251217 0.5188195644817711 -0.8594166855811071
Ni 2.439584536201667 5.439380483113087 7.250135173968206 0.2929412097842697 0.39470778690081054 -1.005761563528655
Ni 0.8941074958806502 0.004080172462652428 8.8252874369403 0.24194492124206074 -0.273554834837858 0.6528133770631338
Ni 1.8306349511945605 1.3400677066329592 11.962765313204331 -0.3326205306517626 -0.37190390163241754 -0.7942158234037419
Ni 4.446668971075555 6.80352148031869 1.3173204948642612 -2.364169466011696 3.0501397894427726 1.6887869453987947
Ni 5.5762751385017895 8.307751735934165 8.108798048750142 1.3404037525961368 -0.9280108897107373 0.08813870192046111
Ni 7.1921435726291865 0.9095407960031568 4.731198883064595 -1.950863604393724 0.9261810355908501 1.4020361806959531
Ni 0.5854660672999112 7.844224849138658 6.582079972209569 -0.11182241869064613 -0.7838853880120112 1.175708654276175
Ni 5.265625023633949 4.64526224150847 7.009053683353716 0.03141476686585558 1.7046467952491868 0.25082474023019385
Ni 0.7627392306755808 7.644366479503626 11.317928777449424 -0.925185247336484 -0.5615785527158521 0.714693145287066
Ni 4.636424749959875 0.43612520213499406 10.580645345035704 0.5467535718878778 0.09115049216359142 0.0033979699379554384
Ni 8.017279498268422 7.639506314223553 4.806502320319766 0.8403324152561463 -0.5853692273775467 -0.5093692177021486
Ni 7.2141053307205985 6.511611216221764 7.282504420819474 0.9012978991959252 -0.5683621512965888 -1.4045280938798714
Ni 2.317780056907272 5.697187677351527 2.3957183590474274 0.4650583115999152 -0.5083140369647567 1.88953122403283
Ni 3.739314691296648 4.652452373664383 9.341564409747496 0.5827328181959641 0.9687201945046412 -1.295208387006421
Ni 1.199359550771691 3.57320443562886 3.8914651688622364 0.34055521211780704 1.1925128703177075 0.3641787650740179
Ni 1.827158203747018 1.52668349109476 2.6638675117273394 -1.2010743867344735 0.1147863864149765 -0.3840305096926225
Ni 1.2448030062836775 3.743292017565172 8.41984043538497 -0.06460770867805647 0.009959939426189298 0.385493210281078
Ni 5.458766535634724 3.242858819513686 4.559559506783241 0.5025246839764894 0.41960814968691607 1.8204117435273486
Ni 4.183892394359738 7.0452919494195125 6.097094636573564 -0.7598697418237043 0.6076280387757471 -0.2051210675454919
Ni 7.992651020276146 7.713519168263905 0.2652994939735627 1.3184156783608196 -1.0083578635009214 -0.9931364185654766
P 0.4299371377643552 6.051642989771779 7.983249239874807 -0.7784246220077562 -0.07078555535399422 0.38258040750965727
P 8.956638409422464 2.0902897363540767 8.39165329704717 -2.1402266377740107 -1.6165510307515192 0.38365872817550056
P 2.316214610412567 3.708506340223531 10.42656263322113 -3.0197850884103152 -0.7018715680423654 1.4782547341400605
P 4.0431933399315785 6.274418767974642 3.7709512727826615 -0.51520279366479 1.1893812666672614 -0.5454770191682993
P 7.328364721967842 4.230300601781252 10.259825288812149 -0.863149670260978 0.5334116033633329 -0.528183007974542
P 6.8502482378990095 8.247263611493414 10.565646183272486 -1.4001852435301434 0.8521690028797583 0.8805447258089738
P 2.3780861526858463 8.804462447844172 5.940081263297971 0.3169380869194993 0.19121654164925778 -0.6543663233725504
P 7.191206125018986 4.322707452134386 1.5151292217632024 0.13892955932008333 -0.23564340450406515 0.5280361979840326
Ni 3.341427340081444 2.1325203859786743 0.66297114122409 -0.692707127934278 0.17249325420814163 -0.47627809157513457
Ni 1.509381666755027 1.4758155814499587 7.1663073344633785 1.2530487229192355 0.33928045917044153 -1.0325591433374735
Ni 6.846580360356183 1.1593223465263014 9.433944865944618 -0.08879433322658901 -0.035299703742558565 -0.6768009982269828
Ni 3.086978574660132 2.0681641524667063 9.393942247145041 -0.23788617779165483 -1.1531032581718335 -0.6524004578954312
Ni 6.155117182785153 2.5395364746019546 2.484195210584203 0.7481995045746276 -0.4707059968039958 -0.7326355886980995
Ni 4.11305594047434 6.9935685050624885 10.534221665177906 1.0215342529818794 2.054081569244811 -1.1742832346835583
Ni 7.135468948661003 6.316767736229654 11.53353990750908 1.768430465364051 1.0622522995265318 -0.28310905418519633
Ni 7.8756703005293875 4.170795432116248 7.884647954147858 0.5984612846748145 0.04899802716525755 1.0121985774032503
Ni 3.323324589628141 8.71516828761423 12.514608866313898 0.590468496277325 -0.5811158514178314 0.6389774996213059
Ni 0.22164355992413454 5.268619395126728 10.232850461364436 -0.5138061704275797 0.062348480330234546 0.09696889861758139
Ni 8.925529711056758 2.528323509011975 5.7581317835910255 -1.1368335744775324 1.2899561374685462 0.5203223742795426
Ni 3.886339241735389 3.0691306643338745 11.749724427854586 -0.30546762438605457 -0.1945229803146714 -0.3112757464273994
Ni 1.4350775668551958 3.5558844084229095 12.735415094392028 -0.6077622503607663 0.7880945409973523 0.2683853748217765
Ni 3.2299074801999352 8.72084758187409 8.172658254157684 -0.8550668932528435 -0.20326884482810156 0.47273973940457303
Ni 5.577895193595148 8.179139384674425 3.746094348819356 -0.3386754785965909 -0.27221323320829893 -0.0031249187822268766
Ni 3.147175453241402 8.964420134730444 3.576919640623852 0.305658400240622 -1.5406309823844369 0.11211346756850368
Ni 4.033900776727545 2.805553161504487 6.561406066903044 0.07062820384052353 -0.19659888900709366 2.753052932921246
Ni 5.339965529266216 4.949595961798839 11.084906605852732 -1.0620383837435128 -1.761837642637882 2.563641048580895
Ni 7.781570583618026 0.06838907852245507 2.7251165159759805 0.5494120925566474 0.20425846243488052 -0.7222876698048722
Ni 4.902104683837383 0.5640130793192777 1.4402517315775198 0.006754288004698045 -1.2847987616373229 1.020031700294424
Ni 6.194981459801476 5.864162569164646 0.39725116104090297 1.868543566037569 -0.07790185468380131 -1.0978713342817221
Ni 8.683149445937648 0.5356466427492379 10.748794321719853 -0.16096159941945828 -0.33771697133806355 0.9595734950083668
Ni 0.2102886119776586 5.355046603927414 5.763965802213734 -0.5955669938461549 -1.1590337647236555 1.3820178285924973
Ni 7.266174629535755 6.280726061119006 2.8522507944988593 0.8191853488648859 0.6228834222729208 -0.5748529012272552
P 8.785504162678647 2.043936137531215 3.5551399111946136 -0.7196186076131413 -0.9866775503140104 0.039916890799595775
P 1.9224775126949523 3.564048393921458 1.7693704745096344 0.2470066520356843 0.9240282509139055 -1.6995758084841828
P 4.7874903366989 1.199750912395367 8.332855308734716 0.9896124645726181 1.6143779343596003 -0.5074838277539776
P 8.864531906361918 1.891022959871114 12.524532158832368 -0.43993863371415204 0.18165100944800974 0.6571621409501327
P 6.4659220220158415 7.932772691853683 1.6272242922171838 -1.4246292355051209 -0.030976650887172455 -0.018340707290716803
P 1.7752527307278194 3.502841256265117 6.219379671536101 1.3188095713651287 0.1713498846323178 -0.7234145843204638
P 7.107791490577296 4.1719240098217325 5.879671411181956 -0.15450813048463066 -0.5729626261830777 0.11087856672013809
P 2.366518231204626 8.738122101914495 10.50205173971172 0.9538936710147701 0.6833585968398425 -0.9897122233752762
