# total energy = -381166.5334605362 ev
CRYSTAL
PRIMVEC
9.27835843095494 0.00000000000000 0.00000000000000
0.00000000000000 9.27835843095494 0.00000000000000
0.00000000000000 0.00000000000000 13.57981543454183
PRIMCOORD
 96 1
Ni 1.358305251117764 1.2384288629594151 4.873633014234446 0.3195716678876045 -0.14315465314502443 1.4590323955753388
Ni 7.678416682438055 6.506485812816944 5.522285820663752 -0.9264142346475787 -0.20531107206911095 -1.6512704365105755
Ni 1.7376416484448494 8.309836794151687 4.5429773789623455 2.865587032966936 -0.9268981162625328 -0.6396696405923241
Ni 9.480997560040821 1.5415621042536427 9.654338631750628 -2.3303427472702385 -0.9492566864633909 -1.8904943592770473
Ni 5.390726123839071 7.422927810586019 6.232713936099118 -0.04944694177721807 0.2525851745647263 -0.22579736494792077
Ni 8.057818028272656 1.2573288786466097 3.3549745372384567 0.2638851729585778 -0.510024077677328 -1.1681256997225946
Ni 6.098200937854096 2.6691980917487506 10.218648378483662 3.0184334594784277 0.3950412589808293 -0.40977470853626197
Ni 7.4547433009107085 8.558821536893893 6.800676572462022 -0.7703320748076088 0.7698515356267644 0.057121941823972594
Ni 5.910314183968139 4.767313235266357 8.775358005281038 0.7160362895785217 -0.13054544902144616 0.5388296890551107
Ni 8.151631508200603 4.726943098665972 12.907668754726338 0.3325284851585886 0.954301190865834 0.6684294863338359
Ni 6.154381396855552 4.355947945375601 0.725472045447745 -0.677419091426956 -1.1785834047208088 -0.1541026675160959
Ni 6.555633276290224 8.83692176771976 4.53182850372929 0.32310976294785 0.657060839485578 0.10203500028657911
Ni 1.9722078225184734 3.5394709790320715 5.774829741617841 0.348994858244728 0.2959416871734903 1.0586093034573059
Ni 1.1599803442381424 7.7495445765264375 7.009588086066773 0.6691673929411249 -2.4026748211757463 -1.4932524931004736
Ni 6.0819359759004135 8.294035750108835 12.784200714102347 -2.540924066599353 0.8039240518304412 0.7240954124375724
Ni 5.281863146883816 0.5370926107404868 6.6656662542165925 1.3282578612622222 0.017950156720517474 1.240811043202463
Ni 6.7531880794378685 4.08983535336557 6.257130863581897 1.2748668472355913 1.2635591355322562 -0.8435159551904504
Ni 4.193892140764632 0.8958774446178243 4.754347657494494 -0.3922184448200536 -0.9879672156597112 -0.10457730709245859
Ni 1.0630586143076382 3.9773909301387094 8.829812689654208 -0.2582282317831166 -0.12558810501617082 -1.2444193293790116
Ni 9.021774498468892 3.8053980038777717 5.330946589685401 -0.9358260148797819 1.090716982625128 0.39060636313792724
Ni 0.454048521194537 6.13509169012326 4.739994037333428 1.404435534166065 -0.2924748116708124 -0.2700005418276963
Ni 2.6593908671138147 5.752684156226483 7.340690938204913 -3.0960789751770483 -2.3424654986757014 -0.19795231771119456
Ni 1.3605970055972618 6.446566175454202 9.114920864441066 0.05702629678637276 -0.08366061154444945 1.7740802074506608
Ni 4.079397200371905 3.4402760513385027 4.811491210078831 0.7333051039612983 -0.12434266264484392 -0.28595577960537205
P 2.86581578071652 3.124858263765509 12.40328699587844 0.19097871460683885 0.669393392909002 0.5223676868443456
Ni 6.24514229693024 1.944279964286536 4.924393984201591 0.16287321461987433 0.6301169639068825 0.41430242120328653
P 0.5113748574357413 8.849308375938907 2.8904089970054145 -1.5873903500271629 0.8743884763995908 0.05092198366084779
Ni 0.6173003061796248 2.7819208657221086 3.356482270448653 0.0577390065826812 0.24886247429750044 0.3056612284540994
P 5.913802846657577 4.600497632890277 4.3714780613585305 0.3740273757333236 1.3624424775637312 0.13949700178777913
P 8.999357985017609 7.028977999067804 10.57737197519677 1.0080323618407026 -0.11328563349973395 1.1395409461063666
P 1.9082706560479483 -0.10247389948731195 13.096822004508859 0.3699570623186919 0.8063558012003855 -0.19179118320580518
Ni 7.190783288006926 6.260034061867867 7.644390159350352 -1.4711201799778084 0.43169670542033395 0.2649778918021243
Ni 8.156818110443677 3.114327327189679 1.5619642861361034 0.06524379960015861 -0.8987486504115103 -0.995982115544388
Ni 8.144635626105293 7.71604042500633 13.008770385033415 0.26732813720185566 -1.889849526604197 -1.4062733587057523
Ni 0.5891339941415211 2.951473583772083 13.104033144514794 0.648836908913889 0.3738481698429819 0.3870908937855011
Ni 4.179436458663184 0.5751914052494507 13.2887049472787 -1.6281816730119123 0.7169451745460362 -0.619024710648463
Ni 9.081452898518002 8.472031774135905 5.299020686897935 -2.7392476516070374 0.7061519405852742 -0.977123330966672
Ni 2.621915578277006 4.85463186444269 0.36905319291563815 -0.29033256851682904 -0.8022188962138764 -1.572950006232117
Ni 4.103752890690456 0.6093366913223254 8.901419347026566 0.7817148627232536 -1.2426871771792536 -0.33215618942083436
Ni 4.98490001380362 3.0580262495314083 12.745728929593076 0.05541164400108521 -0.313502321765073 -1.585104896427096
Ni 3.8533671158575444 2.656180555170874 1.1007964806819768 -0.38046516093886734 -0.8206526774390318 0.3872073647587073
Ni 7.511619636778407 8.84900219011776 1.4477987274600659 0.39993998183402735 0.21710600782150996 0.37464264071981934
Ni 4.097527112327123 2.2664245615665575 10.396978423406532 -3.103960434807654 0.29940881978648437 2.1134874220069535
Ni 6.958880002741463 6.383213545551323 1.0831082185778687 -0.2283684681092067 1.2999883248935677 -0.0011770510272366827
Ni 4.374931466286745 4.559106876886067 2.4389213026786565 -1.1447970522989832 -1.2485570056964692 2.457797987402135
Ni 8.505294688342381 0.8809439270682219 13.287753915561503 0.6960181945853819 -0.17909636134695608 0.707351103099698
Ni 0.6801565439179171 0.5423682852224401 7.431771013802252 -3.123664855215117 1.8451059038399191 -1.613373661464802
Ni 6.164420580445902 1.2375845323617052 0.3839449578532659 0.7976143075623295 0.8893060169413717 1.4330033185014288
Ni 1.9291098486024105 8.840280533394164 8.799204313733497 0.9767152968949759 -1.0014410817764303 3.936321144712234
Ni 2.5830670924241415 6.465846603828277 1.9562676031023711 -0.19068046664012966 0.44969211355649 1.8773058856112312
Ni 7.988879826723389 5.412029234304364 9.601811990214868 1.278820946787333 0.17175483338022032 1.2569339169062546
Ni 2.3063771720471964 1.8746273291545914 8.653438522643397 -1.140353928925965 1.536086043326232 -0.058277138474338346
Ni 8.34517806059868 7.187842048452266 2.805929545443358 0.921524253545129 0.46259648032298395 1.0278655945165458
Ni 0.23862731146502572 8.877217677454412 11.6074961291788 1.051481434163273 1.3201084926822104 -1.4747328370297312
Ni 4.6290749761973755 5.172128004256201 6.576120819068277 1.5628139462393793 -0.7074182088922075 -0.40852103863481903
Ni 2.8604900031001965 1.7999272671528213 3.2528003287215403 -0.3114192139837991 1.5402147207826247 -1.7331384749309764
P 5.095136187774933 1.1821185069429272 2.82962647232853 -0.053419553271720904 -0.5822031709447393 -0.9214113821163485
Ni 3.4760997924127586 7.71516825933397 0.012616711502919742 0.8115062350530733 -1.6763422918775386 0.3068125684497232
P 0.38291413225540266 5.940144105634477 13.84951025811333 0.6260937016801024 -1.0831617959856894 -0.20551598899106543
Ni 8.106974770104154 5.019888702638383 3.4576516327707116 -2.561375135364853 -1.3079584875832375 0.7066959860142022
P 5.350170420074354 -0.1051442109820467 10.580645379975584 -0.062480635032724656 1.2000372037192106 1.566872175469153
P 3.199521212334413 7.397393768773963 6.125460754294439 1.0166301308120427 3.434938287649671 1.2760382418358733
P 0.3346277004246225 2.5941825655676163 7.143376444535078 0.15426361857399237 1.627323952997307 0.47427880175691867
Ni 0.8549663797334118 1.376954751133111 1.4625327603080116 -0.46420650512258116 -0.24096378827571405 -0.22388137887213055
Ni 5.984661668357678 2.687606354450466 7.694323499764578 -2.316898191729558 -1.8885351786681475 0.3247454987790601
Ni 8.64768037353418 7.8755075676748705 8.642058616290749 0.18464145953490138 0.7203937952162689 0.7000059755885364
Ni 0.615400098416867 7.936150916978505 0.7967029293123318 1.0364440802141763 1.0972133889827491 1.3433942026830283
Ni 3.83324235688576 7.311411223180818 8.311621022436738 -0.0027973602394790534 2.5444835018158374 0.07224542772897236
Ni 0.4814688532320268 4.649450250841008 2.0701752234199873 2.2123504523234545 1.4543954110239596 -1.4941955737400332
Ni 0.13063557234630738 5.663899546451929 7.233818169087115 -0.3866689757567341 -0.9753706099416235 -0.4042051848682845
Ni 7.916295230395002 3.3757357915838995 8.447744743668158 1.835436499070955 0.6232222936695783 -0.004784308762520792
Ni 3.8517155680949915 7.776238413115569 3.8412273119669575 0.9832245587684034 1.007811504079148 -0.35724270007581704
Ni 8.501314272667464 3.3349574072219843 10.941107741018481 -0.6746893512006186 -0.884775733171186 -0.13522794209878003
Ni 5.844753304809711 8.41672348080681 8.694558350587682 1.7421039116543802 -0.8161514471345687 -1.28478102102551
Ni 6.238053631252765 3.1046499995697756 2.8874761079731504 0.0328440431132144 -0.580891137001535 -0.7039058248635748
Ni 7.564998031598453 1.0915710091072208 8.366863439422495 -0.37668718195367384 -1.1986256680836649 0.03763426541300616
Ni 1.672535408839034 7.005021278152568 12.09187467554755 -0.7095900197325457 -1.2360416468382776 0.10220674997775302
Ni 3.7336113463560108 4.081336377239173 8.747940456751014 -1.554934543491303 -0.634296806316185 0.18815770021827594
Ni 7.380906126223081 0.7572541336828541 11.168284630608412 -0.5987819012390267 0.5221391157733072 -0.5481926183272495
Ni 8.482135906233772 1.5679590333798428 5.605204652373778 -1.1368713696940034 -0.8944520799186852 1.000329593879806
Ni 4.034517781678257 5.859051254821477 11.816883622560061 -0.2110222635212753 -0.014540873928652377 -0.011110250980548608
Ni 1.6165590737183435 1.9909593844742028 11.071554962692993 1.8728033697551874 -0.967024037749141 2.06117447153585
Ni 6.839708769807575 7.595217644309888 10.709843734634141 1.01108220441062 -1.5805638140236329 -0.13396450200532412
Ni 1.3942681675652686 4.269566430379144 10.987646130161256 0.9708341555238504 1.6551985679203882 1.5192296338905256
Ni 6.246487658871646 4.724113199409912 11.628979239793495 -0.10114745547530321 0.32524814944709146 -1.1140554002407523
Ni 2.924501396436454 5.9581905123657455 4.885107559840903 -0.637995595324011 -3.828874743602096 -2.839072531616175
Ni 3.2198315384705296 8.75628355645937 11.216696320275116 0.22397393858593687 0.33405237800228277 -0.5235257117081887
Ni 2.925141603153399 0.2601540303633373 6.706228452832061 -0.07417915441657548 -0.07616250339519141 -0.3201504232092099
P 2.305839027270634 4.254331366187502 3.5493700594133526 -0.44173506349294245 -0.40771628334533655 -0.4147757612952792
Ni 5.926143063085642 6.863897449678226 3.641699002026644 0.7814549241936477 -2.6813903742789367 -0.19146439599400575
P 4.432002647676994 5.944579160862007 9.675631536021884 0.06441410461001165 -0.6228134882669338 2.0637062368187684
Ni 5.279153866284571 8.319124430726495 1.854880199362222 -0.8850696102625208 0.7940093638198906 -0.41281220981100514
P 7.466192794949981 2.639303221574896 12.858441497372395 -0.7451316642825813 1.0795337123147988 -0.6402049442705039
P 4.659368815774543 6.055817397520711 1.1898742865761753 0.716828960683146 2.8716329820507 -2.082034602814311
P 3.8974393173863495 2.364960725826749 7.325346389386315 -0.014052878548640313 -0.2731781682247295 -1.7421985282507157
Ni 2.4429546049954083 9.03328894101568 2.056690057587995 1.7277391582922759 -0.5716963578761445 -0.2962077963506834
