# total energy = -340858.5182498663 ev
CRYSTAL
PRIMVEC
9.37847172793625 0.00000000000000 0.00000000000000
0.00000000000000 9.37847172793625 0.00000000000000
0.00000000000000 0.00000000000000 13.72634136428498
PRIMCOORD
 96 1
Ni 6.03409929085835 8.398308834443576 4.621796180657014 -1.1980312290327755 1.1957524603009277 -0.32414128953615784
Ni 7.427561989331653 3.1994562300796785 5.772955747343438 -0.5491053599495059 -0.9088230039283767 -2.533560684255746
Ni 5.452483992075058 4.147647850837019 6.703080680285115 -1.4231009717860523 0.6320216371287631 -0.5225602624711257
Ni 0.6825979924373348 3.1601135414445536 11.44697237000866 0.7745594826253951 0.3652221187368678 0.9864458939191786
Ni 6.302783125592008 0.3336672649011863 1.5824820434948739 -2.462256794504437 -2.199723250477747 0.47234996016532205
Ni 4.0500179608032525 8.575777653762401 5.647263594393338 -0.5462933444220076 0.736073410735055 1.2685277923914413
Ni 8.785405252420878 3.7192861575332445 0.060059732543346935 1.3729847718559516 1.0058469241536094 -0.6147229979493155
Ni 5.009904535726981 6.508706227942768 5.977025663693174 0.3393362521090414 -0.19647933271009385 -0.08267022260672213
Ni 5.643410918233311 2.351389172819024 2.4868977720609924 -1.465622647198347 0.8901387972553122 0.04387330434418251
Ni 2.142746313685383 7.682300036699297 4.7054033798571115 1.0272773261132437 0.6159129044923587 -1.1194557453207172
Ni 2.133939928791847 0.7299930368441209 11.281940341964935 -0.5237565967720721 -0.29242261827663835 0.23646975706010245
Ni 7.396078459951887 6.485635187646604 2.284323721941842 0.6054963371447251 1.5063473786112187 -1.5034230058755722
Ni 7.566672859540189 4.821603581634957 10.922681103584004 0.04337168211741563 -0.08108179507367971 0.24371152622418027
Ni 9.139770804286956 2.1219261065888446 9.54307415914873 0.10901528825915417 -1.6192666299104694 1.3506580833342932
Ni 1.6138942964899838 7.332923831759055 10.03998122615844 -0.12856518536662376 1.1353551901597931 -1.201403487939118
Ni 5.199030795325534 6.582533556890493 9.122416880317843 -2.445655181392014 0.3953911861210804 0.9000203180350822
Ni 3.699572610093189 6.964106055057047 11.166557005069121 0.7508282004467263 -1.777237779243036 -1.3906996726372116
Ni 6.993123046388889 3.192881921442438 9.176209918094564 -0.9484293054660893 0.2857022688336692 1.012679630804727
Ni 7.554771578997168 0.6889931722657714 8.546981056514689 0.15649482189735628 -0.7183312562602855 -1.376136687221372
Ni 1.9045331333916582 3.2603037542428943 5.998781842261889 -1.468232059796736 -0.05795523635854535 -1.1520915290778675
Ni 0.29460499256884803 7.127347732859904 3.2839168702013017 -0.6250336358467041 1.4300828024205243 -1.0843203350701647
Ni 8.943929558976187 2.0037010927785026 2.293931966162744 0.014002742036995239 -1.7036882879906594 0.48273516005438794
Ni 1.5569294595961223 0.7841265131422864 8.137949331159867 0.574308855798327 -0.213437043610355 1.2570138782145706
Ni 4.772985584523041 4.043106027186068 9.008268688140323 0.46853624284618656 0.2252630897110056 0.17689086905520504
P 0.4388449489310313 6.900838885204234 5.546608209400408 -0.4254679509018028 -0.011447065494677059 0.09445615949805668
P 5.214083242348031 5.138764736405554 10.852127799094568 0.4955842481029142 0.5110561184862682 0.9601615063013527
P 5.108172161833974 1.6022556131535857 0.4058439828358518 -2.377967548237053 -0.1721196729188068 -0.34549687239379856
P 8.694499726570992 5.347098105974248 8.790472440661535 -0.1687957507518964 -0.6032062555589676 0.6678265626425143
P 8.153643265644257 8.107745025315223 12.578228944127396 -0.8147108580333001 -1.7181587136926924 -1.6883035780044728
P 3.5329828179058884 0.34930492855558615 7.5050140975779405 1.2448070517357337 -0.010875766372239333 -2.282196783692631
P 1.55672313321949 8.677224581763866 12.97135103014953 1.0449868275778649 0.6811320215021689 0.4784355042377695
P 7.260690842994399 0.05902622496585211 6.164554769567158 0.09063267198690843 0.9058173843328335 0.4042108412952394
Ni 0.5796870850089462 0.16163889699529024 4.275452973453268 -0.970083393400755 0.16731402400004736 0.3618961396874283
Ni 3.0062784707217993 4.549834229723479 11.56843670793213 0.030704628172708408 1.5296986517426496 -0.11511677317120174
Ni 7.723996721722363 7.070945604265949 4.959381771019881 1.2457707012005836 0.5006894305399635 0.035669171266835345
Ni 1.109501333397185 6.204102846731749 11.747209134812405 -2.268592819755951 -2.494450605628162 -0.10664447403413246
Ni 3.998079984721888 4.1137165403526605 3.776116882282295 -0.7597427293275367 -0.49553205470874007 0.13663870640337758
Ni 3.8002786388331105 0.07163182873092279 3.381525189750239 0.005409086830713265 1.110369466748733 -0.8595100166258617
Ni 0.25367734222231997 4.991475838905045 6.414401943961449 -0.31251218993766183 0.196257703617591 0.13841508157751
Ni 5.671058652702048 2.9997510544428847 12.626806613811151 1.9933734527314766 1.4906479655980907 -1.5044097952688735
Ni 2.465196926475101 0.8872662552793036 5.303460077316504 0.3299005606174383 0.6398105370455627 0.8808805118818378
Ni 0.14871067380493985 1.7153599814347795 0.23698928974142808 3.369628667808584 -1.9346656544776226 -2.3213616268175503
Ni 2.318573900462814 8.489955259555003 1.5311592951547406 -0.6174666221327237 -0.2006666313185641 -0.2525152405587393
Ni 1.9218082781987855 7.731640176129425 6.9932552828393675 0.4213503291890034 1.0302441220510514 0.6259288939674639
Ni 2.8370251925816086 4.417616536188796 7.78183375648108 -0.621322505543704 1.0886318179613252 1.385732301329607
Ni 7.22101052937933 2.0563424542347497 0.42077450972670266 0.5754092879513575 0.5131991329712 -0.5594764187711848
Ni 6.9112302318091725 1.4137295757415995 10.776756773710769 -1.1469243830546312 -1.2156384005915775 -0.7280160876482172
Ni 3.5010678788295286 8.75672588606898 9.328297779546109 -0.17437864415631257 -0.9055813570626274 0.31713246231849257
Ni 6.721316180590749 5.968890777370859 7.735012674540198 1.5873358426401436 -1.354332961082719 -0.6607208048356685
Ni 1.306571158496084 4.67191379538818 9.77854976356341 -0.37050830683647157 0.7972001028430464 -0.9966482883734771
Ni 2.607055688881513 6.785755659401702 13.088148640572442 2.0974859043723746 -0.2524368219123201 2.9256220346726454
Ni 6.267463801301215 9.344606003924564 12.648246737884755 -0.7814451540016348 0.6521546604332124 0.6578442546188218
Ni 7.597302947998429 9.121773517161616 3.238455666651861 2.2811277189981682 0.48717159855918674 0.2206739276784264
Ni 1.1656690001995123 3.791087736601306 1.9792289088155715 0.6284966546946401 0.22623959469166197 -0.5311300064180079
Ni 3.737827396015162 2.3845420701551783 6.823926976925855 0.7908299376506445 -0.6032306810389999 0.596896768401172
Ni 5.927784936062695 5.687771089209269 3.7135934252325242 -1.418931413789395 -0.09763764254983184 0.9337264520382759
P 7.391351710232674 7.661414180301102 8.746712491872145 -0.7833652538424832 1.1340968922726595 -0.8393541105032771
P 3.5293908632581528 4.982313072088235 5.858512730802712 -0.5062111316891411 -0.9146938608868569 -1.7007592872693225
P 1.9637581819568104 3.3660741576819744 13.144549831319232 -1.6968303845285617 0.7608961262056896 2.7738264180231713
P 5.010523514856878 2.2049818516550346 10.187677149329216 -0.07874543363101923 0.28125323192338014 0.6594758766849739
P 5.7747845493181345 5.005571681817702 1.4173956203154898 -1.199162257313425 1.148129973326958 -0.32597140076636116
P 6.9958428031717705 5.278400801027337 5.756662528519647 0.3186905508342318 -0.38664095073227606 -1.5622143649821676
P 9.197645352932334 5.516801550754364 1.5425803979485082 0.15267467682031768 -0.8750644194206931 0.48428142149558534
P 4.068587334700164 8.949303423240293 11.401579629302375 1.7782582500877504 1.461720226820147 0.7648633383835536
Ni 3.5729351071992452 2.5267759714281954 12.279681242070536 0.4643733697177487 -3.1224615789356354 -0.24950936385287997
Ni 0.013335248860616022 8.336213973548901 8.266181174236879 -0.332821333808659 -0.06672706901390445 -0.8902997483132087
Ni 2.482734668488851 6.437523628004604 2.7378150300722712 0.6385375838704099 0.4819460884941893 -0.7686793696955342
Ni 8.187790280976913 9.192102676178255 0.5971685561927061 1.295668100251659 -0.5102009695748245 1.0717507259352703
Ni 5.0577722551056885 5.893731705446689 13.092760972937342 -1.7365037918587836 -3.9586069526936276 -1.9764301400089186
Ni 3.824850234595692 8.862843292959669 13.578783385732528 1.0546935133426676 1.5702122955859796 -0.3643924237467208
Ni 8.64959560423846 7.21965065098789 10.345501821898306 -0.2887014606713092 -0.36029614219016015 2.018722730129543
Ni 0.07883730851122471 1.409481128077306 6.489100532926861 -1.196686542079423 -0.3286330067589243 -0.7187714291214976
Ni 5.109785258960374 1.6052848595014155 4.771331222121316 0.7744676942425371 0.11994144825335473 0.5931761250164752
Ni 0.38892897134066434 7.073177680522244 0.1455473153122992 -1.397081664904155 0.5727294271263492 0.7843589852143201
Ni 5.955048153193161 2.080960942355656 7.320614587698602 0.6745494831886447 -2.239822689601794 0.1211318690170301
Ni 5.634642047226436 8.622379279466319 7.583501589096057 -0.013159934420725721 0.17080352521054454 -0.6411883912296957
Ni 2.9387347177896967 2.671523303107461 9.784287512528124 -0.9907067260780617 -0.4987564751833088 -0.34913241226385683
Ni 2.9295438155578917 1.7670447387811856 1.6356992431113584 0.5545067334707353 0.18722618954294207 -0.6231492743397977
Ni 8.74892299764361 5.140696701568567 3.9637144509994355 -1.5365832946776246 -1.13536933122718 0.3772687654887567
Ni 1.6087642724891702 4.940841470385131 4.157242027350423 1.1007969925689494 -0.6117595444456174 1.6166376769280544
Ni 8.506977185627173 3.3494836413063998 7.589636985259371 0.35116384087158875 0.3454063695625213 0.9992736418114662
Ni 6.039979592592372 8.66838068298367 9.975550187971987 -1.0125374487999077 1.782934315407181 0.6962737622396138
Ni 7.479875104279621 3.9597314140832647 2.1301500883919773 0.2462371208595114 0.27991265873508564 -0.09615385891545376
Ni 0.1180411957657061 2.856457385871711 4.373075360709703 0.2267533011032869 -0.09194419170948036 0.7494752859632576
Ni 3.527580818226787 5.305785938289451 1.2224772166165667 1.0751366116883676 -1.253529776320712 -0.8500691829279359
Ni 6.252420732750382 7.224574348612071 11.679867019021104 1.1738916556720946 -1.3926511399366273 -0.1430806053739794
Ni 5.545809163614541 7.337903800213227 0.7043738657965473 0.9584599502292137 2.2868584508343583 2.3936001125679875
Ni 7.521346705982726 5.488262861477442 13.408398126062359 -0.7130126722608494 2.0861270277161297 0.3494203758179208
P 1.0927795184182987 2.901877324145825 8.124731313195065 2.340557997240343 0.9772457154771492 -0.6027863944127296
P 2.775699366363472 6.553488430143656 8.553596630427254 1.5569688003125122 -1.4364015455497003 -0.1558201644278349
P 7.418258545439866 2.3296780109143005 3.6874303028283744 -0.9254320732399675 -0.47691803915197856 1.1066871328011394
P 4.21241557615625 7.424504607568828 3.5736394304212955 0.6403250147881359 -1.1918796076090827 0.3857081545053615
P 2.0639577732268166 2.2323763673888126 3.5986621306709674 0.49471984322008994 0.6960019966354658 -0.016719883857842174
P 0.46023818064630745 9.22262960144818 2.21707820440869 -1.2268432681684613 0.15773512206236062 -0.8206303088415285
P 8.064810382032361 2.6030417030088473 11.865200624678286 0.6330367086568388 1.9648450062744807 1.6317017703500285
P 0.4615530423737555 9.202859783178132 10.165851570070178 -0.32619611518265756 1.2780174770494312 -0.27931359169850606
