# total energy = -340872.6760618662 ev
CRYSTAL
PRIMVEC
9.22459528525539 0.00000000000000 0.00000000000000
0.00000000000000 9.22459528525539 0.00000000000000
0.00000000000000 0.00000000000000 13.50112763635530
PRIMCOORD
 96 1
Ni 8.600459275006074 0.5138643888791223 4.3961156168453135 -0.12561690137157722 0.8535453144019945 -0.7112594370151686
Ni 1.6470976316029662 4.114400163175005 4.544952618701255 0.2468328454619813 0.18262777153898224 -0.6366316250969488
Ni 1.6082713095654042 9.03939319791254 5.280952644482758 -0.31153337096416023 1.7434395997466685 0.9953696787713697
Ni 1.8667721464526934 3.395610465030821 2.0245883694707545 -0.4518955489657121 -0.31997970195930053 1.038344896781315
Ni 6.586462585973316 8.390830344546679 7.417384620877823 -0.7500558410570759 0.5688352342782655 0.15467319530758522
Ni 5.353752228918071 5.308053583307694 2.823585002156254 0.4581772682093658 -0.9980503109273264 0.22014916552320793
Ni 6.858744968387837 5.97291629674492 8.3451685973179 -0.7928528816179442 0.26683474250520495 -0.4133649969906816
Ni 6.563050562848742 7.465889388408806 10.53819715632861 0.18342712751182605 0.6504644172149829 -0.47942486473423235
Ni 8.892463842385268 0.2951584565463692 6.792633215617345 -1.3026825838962792 0.6183546811646318 -0.16517743727301876
Ni 8.841756241472822 1.4134109563410138 1.3897793878459255 0.02523923418276298 -1.3275068420288103 0.6965167314883552
Ni 3.9034152171918457 6.939607771662076 8.732381136277487 0.648057093325071 -0.967797939800688 1.3140293763676658
Ni 5.683660658794852 4.396322247782268 0.7056963074337739 0.17144630100086602 -0.5019700970246 -0.6529974680494818
Ni 2.7767969318291645 7.17285166634484 4.892295533883568 0.24259900988629188 -2.528605397133 1.2138993064132837
Ni 8.636813405476502 4.754909944756882 4.30800781634411 -0.9464333580819829 0.6830881167872751 -1.6045398652232559
Ni 0.37012489844108504 5.444273183575852 8.595587766175464 0.3472349381308278 -0.6118898993758946 0.9883490244791624
Ni 5.129308598246672 4.118099225930306 11.70191307455094 0.9461564502715125 -0.6400409078888138 1.2144104417217472
Ni 2.3151336058577066 7.8546599615314125 1.448563122030854 1.3815244338958466 1.3261832381213805 -0.7466671270905012
Ni 6.508404059700603 2.9663254689124976 3.492687339639206 -0.2458054326387315 0.952832062519475 -1.3167958833692095
Ni 3.940571887462052 9.13327190529583 8.245530052567002 0.009058510657842463 0.40033413194865247 -0.9855141261335285
Ni 3.102148411578467 1.366347070611472 1.4538552724116924 -0.5882869152449739 -0.40481145099371574 0.04255509975339123
Ni 0.7960816605391774 2.330658599915492 5.890339563645407 0.18825874457251449 -0.7886028480923386 0.38270664867487636
Ni 7.788768676590974 2.5094773817397114 10.977658726091942 0.48305063441227775 1.5932496370214173 -0.7235081724755347
Ni 1.2998100639930508 6.624670860119096 13.178815076109377 0.17676334233840527 -0.8853827706275655 -0.4748231042961629
Ni 8.80001494728894 4.300303434266235 6.555944857012313 1.3894493451698782 1.1771063059546503 1.4181832227694608
P 9.322468356944771 2.674717559135494 3.610606265093794 -0.12062459036330839 -0.5123871785928659 -0.15837095587414662
P 6.634744118295626 0.8572914633142411 5.819283427740647 -0.11538056835554968 -1.4047654067016582 0.21922253994388052
P 0.15383212026490745 8.317660853835834 1.544501681566909 -1.2319330239865427 -0.6788748500368759 -0.2713477998842101
P 7.675619789417599 7.839983630250405 12.835994980051561 0.5115145461799255 0.3163138230719391 0.7519229761728018
P 3.523915362445991 6.5532171441526055 2.5989531897386993 1.2087043924759056 0.22721352856915708 2.1314203523362907
P 0.34532918600654794 1.0636788709501634 11.239040404122573 1.7755390513843745 -0.17426423006563535 -0.5461570759544594
P 3.7667067133675003 2.890840604756316 10.511815735944856 -0.9389923284229055 -1.9133602081316274 0.6112489233577861
P 7.411021494971072 6.062459444290325 3.05079601144758 -1.6586106789257304 1.10253428697503 1.2609386671902736
Ni 3.6640923141406434 4.984860658881934 5.26182175608321 0.9568239572876877 0.30462867342452693 -0.34700199618441524
Ni 4.84216539264315 9.16284595814744 1.651781881146961 0.9022885452439686 -1.5768426564183038 -0.6312670183509257
Ni 1.5252130525860246 7.472540321692028 9.035238440144491 -0.49140800523803757 0.2081331148989383 -0.26907494468963333
Ni 5.13463118979233 1.843867476075106 7.371345587697194 0.349378723946708 0.004215580743244352 -2.168702890836833
Ni 7.395026046547901 7.80088057035085 5.131968049100421 0.03424195190200554 0.980008622934267 -0.6662008541136334
Ni 2.714208052041838 4.120875829145632 12.166730289689573 0.0012570123355526738 1.012719997124359 -0.0013601135723202381
Ni 1.5202040972839588 2.460485555571621 13.389878431153432 -1.189044452153133 -0.3109942106312386 -0.8334482865418033
Ni 6.259828887463449 5.977371776322999 5.829273664558579 -1.0537961983393787 -0.8349328415071298 0.4093530476178111
Ni 1.1746230798229975 -0.09804084482765897 13.310694504241951 -0.3362167326434532 1.2560103766507207 -0.6383864030045263
Ni 8.731319385346975 6.022406251064596 1.4461056898163596 -0.837964429244602 1.1846676632416757 -1.3206926473204543
Ni 7.7805956850667926 2.633151532264205 5.348674089150508 -0.9315037333553441 -0.33718475298367734 0.5630335399948239
Ni 3.531193568216396 5.792021980955756 0.635107858515781 -0.6672604057263992 -1.5882804659416 1.1109369092164285
Ni 8.702649342844541 7.16799952916457 7.025352230821863 0.9167528002984148 -1.1131958804539344 -0.6723172514240163
Ni 8.512613453014223 9.631307810928515 9.336637335478793 0.05256080481585141 -2.451012846159501 1.2349283591694409
Ni 4.3812861572806705 6.353818289991537 12.204438590764685 0.2996016525235808 2.08255139454973 2.3912946043632624
Ni 2.4105066976957574 5.932973798663987 7.193387460623771 -1.3213223104846534 -0.4463581640872506 -1.0380888149064507
Ni 0.24156171235472207 7.487493390835028 3.7424451050066088 -0.3270337805926045 -0.4046170755947225 -0.1288040408503072
Ni 3.184505599307465 2.203220814467899 8.41282270243923 -0.8453509515166603 0.7338527489346522 0.8095511682092316
Ni 1.56280327884002 5.815729191133121 2.313863379071161 0.418886183919227 -1.5206370557610134 1.1370382342891707
Ni 7.142807159127843 5.795029199056074 12.834239539546989 0.36598085127976326 1.2490676267843004 0.2785540878246622
Ni 7.092717606107183 5.239330347579531 10.610198813261846 0.3007059413313531 -1.6304840958928435 -0.407965166131349
Ni 3.3493675682918576 8.760755069267589 3.5731405708776953 0.4211765226153004 1.7472090940914293 -1.8041739415122477
Ni 4.316492599192802 -0.020050580560903964 5.712245835019608 0.4308839797110515 -0.25108467875979984 0.4585207675917136
Ni 0.008423900519054794 4.617980050642942 11.769054292168045 0.46204703557741716 -0.08743421965426877 0.5448946643022681
P 1.7782344798058605 3.612499152069823 7.630364846845948 -0.13163431121025074 1.0258020271192978 -1.2996224569137167
P 4.483485449714538 7.097920277912643 6.707832432566953 0.012298614861694947 -0.19133944038036724 -1.5057112876891166
P 3.6071396621425666 8.274535870341987 13.036405772327983 -0.22328873959345413 0.42931972054772505 0.4433471451750687
P 1.5480439262004144 9.27385473918807 7.673109777009326 0.9641531439592492 0.23928357235981373 0.23617665129971585
P 2.98382452638583 1.611979596916105 3.703103128086201 0.007882488071870294 0.13849915665088405 1.0231885007558508
P 5.853983588255899 0.14685463630453396 9.376668389675563 0.28682404114293825 -0.09552882373694516 -0.6378392722518048
P 4.747299653552084 5.875412323369526 10.387322441348863 1.9078495627260432 -0.9721109653537451 -3.8328147020864507
P 0.8545517584805142 6.120011694989387 5.384344677101814 0.20814237087031898 -0.09271166600312421 0.8241951433746516
Ni 2.159311740365073 0.4822932111234663 9.812984372407579 -0.8966357178335655 1.243624087171226 -0.10021517346902095
Ni 7.235246829628772 8.382611230045498 2.597873912076928 1.272856244563466 -0.626179062305057 -0.5608144208563179
Ni 4.493457237341672 4.807176502291884 7.472888088938599 -0.3812285214674531 0.31917391822855357 -0.139042944969496
Ni 2.0677576310225203 8.081492762411349 11.326811506891689 1.1588440173103527 -0.7393397401911525 1.1582971436679472
Ni 0.32243189530528005 2.193857850137149 8.460603339231334 0.14043699710354524 0.8561899511136932 -0.8327815994920817
Ni 5.890144002222932 6.8550090072509375 0.8766603462751033 -0.20241729546108364 1.030512802331406 0.7945104718260253
Ni 3.9741125163355555 3.508593309487001 3.346160176471363 -0.3445584197399292 -0.7113077737546009 -0.1662858398458491
Ni 8.195065980973112 3.5817720247932443 1.2299568153284182 -0.0793946371792439 0.8961451513503921 0.15856044617713336
Ni 2.865316149285198 4.577917632821814 9.445645301777219 -0.539697950592677 1.0316530865834361 0.092061434013635
Ni 5.586212032991857 1.5254897904480174 10.982614178740688 -0.47364990992366807 1.1888354214661205 0.3450685266071283
Ni 3.1666098842319435 2.4396379699681785 5.835281643542439 1.1597634438008284 0.18654176188140778 -0.3642985784813339
Ni 5.972630334287527 8.853037921646722 12.325746632569142 -1.5743008638330567 0.07101026977029061 1.8601579130770352
Ni 5.419117711920724 3.6492776139286396 9.31540047194948 -0.12086550272952087 0.4745508244713827 0.3820127079316453
Ni 6.920632778924784 1.9505314726824543 8.637562442622963 1.3444257292713362 0.07255730254243634 0.5516016440087984
Ni 9.148686204208817 7.27983852379118 11.320642097488332 -2.33977921009279 0.3971156250113548 -1.1024610105349335
Ni 1.2857056576268278 0.3189468431632532 2.8244631836383105 -0.24519556696887448 1.6746862443313544 0.8589433454891142
Ni 8.086409471759417 0.8134847822203523 12.60118290415084 -1.0998515979365444 -0.5939991351384029 1.382587070832406
Ni 6.584008843596982 3.938293412398313 7.217176769700195 0.42953800720611834 -1.3857850089444135 -1.1512865166780688
Ni 5.7784894995043175 0.6499354731613446 3.7445104919166137 -0.488989368494216 -0.006331855755298772 1.2391791640259948
Ni 4.373666641480474 8.55422560286251 10.74618226388777 -1.3370350932342199 -0.3967045056158652 -0.759525214000092
Ni 3.334082413714466 1.141718948032077 12.400367152136367 0.09348942470941318 -0.026348408086541722 -1.1393036332845798
Ni 1.272265422129387 2.855860939000451 10.556329021046366 0.7555752282134084 0.008496467506785366 0.2871662549737054
Ni 5.187211383570925 7.411574970695058 3.6914644560703316 1.1870618745054653 0.41537277144932977 0.6335437302002443
Ni 5.380715721271551 1.6606024392682053 13.593205118035717 0.8616931403201096 1.0953004882307524 0.1501285133596963
P 7.965917806647838 4.052078796654271 9.000027237044092 -0.6080229602213206 -1.5181158320010562 -0.33625401363929186
P 1.5444002110175117 5.922181022046275 10.863142753880323 1.063933800994013 -0.44396986636073216 -0.5209412388104642
P 7.267652833268106 3.7793813074467613 12.755851695218505 0.06633471867149221 -2.6683422828457273 -0.8025135446361599
P 3.90923593688909 3.2237009051610173 0.8161848212938599 -0.6786498785102635 0.758819446182319 -0.470520620266067
P 5.375430028107493 3.6285130496837947 5.299340952952627 -0.13271905963399724 0.35956877710583235 0.3714303044301087
P 1.0656437097703109 4.595093829456154 0.35359442348472697 -0.5179266203538564 -0.37902174362412144 0.6548550900835108
P 6.670111217058281 1.2938325261740105 1.886498943715066 0.20841465069509912 0.39079199678617216 -0.5994786701957354
P 8.308436258436082 7.336394518187068 9.164443658070677 0.5623097744549219 0.32861218082331795 0.09671693050777536
