# total energy = -340871.0994255774 ev
CRYSTAL
PRIMVEC
9.20285228719136 0.00000000000000 0.00000000000000

0.00000000000000 9.20285228719136 0.00000000000000

0.00000000000000 0.00000000000000 13.46930456087073

PRIMCOORD
 96 1
Ni 0.7211621739246561 5.175141017585682 2.4160026585440635 0.27544176744792565 -0.9586694951368587 0.9460356084229321
Ni 2.726639407356606 5.246214643870826 1.0269803094103958 -0.925639047044451 1.5478557822676504 -1.945834526610249
Ni 8.676973463463954 2.099133738331766 4.6034442041714865 -1.8026438780209666 -0.8067993164957072 1.9681421889685138
Ni 7.158484471582386 6.105098418820966 11.259772293475383 0.9297358428216439 -0.7397377469605195 1.027641651431198
Ni 3.1461422146312414 1.8143330763291305 0.8239469877604089 2.1254559072227397 -1.4419535857161812 -1.8069597317875008
Ni 4.40662004679116 2.3519820980604123 9.74303460433654 -0.00682627889321405 0.03342922619272307 -0.25476007072885803
Ni 4.756374438474042 5.569289967497172 5.209159360142077 -0.5241453475700586 0.36467653064604294 1.2036542316465078
Ni 0.15314926218104696 8.828249945255383 5.678820471876367 0.48640515270680745 0.904402763373494 0.501240417947427
Ni 2.7010370729884494 4.89899103649824 7.139539480378114 -0.46386429129181406 -1.1627742056026944 0.1311594284563612
Ni 0.06255730700969774 3.388149614659784 11.07769478619985 -0.031934643925067584 0.010677020097871933 0.8118445922290987
Ni 6.336412104782005 2.4376054334167483 1.0060935164262232 -1.6458361528688816 1.386428556065683 2.4558012686870803
Ni 3.3572004232578756 3.5093787845489723 2.127530058578489 0.5029419740195661 0.6290214168498587 1.7629393603424928
Ni 3.1089810981040613 6.822065012501754 11.111408514353805 0.4283226467417785 -0.054989468862002074 0.6284048663117823
Ni 1.701754587355135 6.102162709021023 9.197703041724404 -0.2711526531542685 0.5964460540169987 -0.9450377632860371
Ni 0.7434395178516855 6.697182310353702 4.9617820959496886 1.0758436650577212 0.4967738975356412 -1.3713495502453736
Ni 5.498924960818911 7.800180938448958 11.265349221810071 -0.32877801697722087 0.36586746563035055 1.1570560721719942
Ni 7.320767564410592 0.5740251349796682 11.562589378911714 -1.3379784309840959 -0.9784019405687795 0.3284121489973699
Ni 7.08119892017197 8.968970755759868 4.673633436375832 -0.4952237794397019 -0.18948027568444142 0.20519254421337565
Ni 3.5680377634356106 8.292358668263251 2.75824384182358 -0.9663748342009164 2.333209784405388 1.3633701315843232
Ni 5.176576662503523 3.849792281413854 7.4150811529458815 -0.09912399728737122 1.2737913547832256 0.41262066262548935
Ni 6.946147066522548 6.403749373139948 3.6772010740185124 -1.7592112607586285 2.179252641328221 1.0875388420074625
Ni 3.6860367322596583 2.9394093464622038 5.825675903549009 -1.3042044198574443 -1.3925932901154983 1.4917789938787405
Ni 2.4669717342682174 8.275913171672347 5.018649279544637 1.506844115741979 1.1249468503422757 1.1817579457940488
Ni 1.1699769852237396 1.0720954509535348 12.801105524969488 0.349100787694973 -0.10210184896877254 -0.6486882991511667
P 8.534623748148842 3.2283236833255744 1.5416829398715264 0.7467416890821785 0.2468716691197168 -0.5074853704158743
P 1.7011932133808512 0.5073651965316801 1.4688543297028422 -0.6906404752132363 -1.0358169881531387 -1.5195821321339378
P 5.364057164210237 4.484089655242324 2.0666900037589775 -0.45988602337035633 -0.4400633322174744 -0.947603210020368
P 8.574527314583179 8.425238648831838 3.1393845603801496 -0.06828824285343724 -1.4053847854532118 0.6628481355913164
P 5.184040175505887 0.03511532251925733 9.75527807868715 0.05820643313740297 1.3665189616259497 -0.3100763268026595
P 5.947361534899256 2.461983788463925 5.6995498960907005 -0.38830702558078933 -0.484534675156972 -0.8140284872542949
P 2.6295493183616205 6.549182043887602 3.8233423643730493 0.22547571994244395 -1.569677249018116 -1.1594402561334547
P 3.8284140561308826 5.537641359340419 9.099902492552129 0.291712222473175 -0.2805376939135943 0.5616477153908908
Ni 5.007630704800212 4.570136321792382 10.885541076228522 -0.8197448209127818 1.6014563412019258 -0.18878067851425553
Ni 7.959270641620172 7.632670625663487 8.68922337981099 -0.7156737640327804 1.2843259357659624 -1.0982554570940182
Ni 8.649558167244422 8.85783711455575 0.8310101766991435 0.5078664079043769 -0.4549248227103391 -1.5318061850039553
Ni 6.200624022969587 1.6755172561963956 3.364389691269523 -1.2337065709471977 0.28055543452540715 0.7352167191617144
Ni 8.419275200711578 4.849442881128667 13.17416521915198 -0.4605385693526908 -1.2872335963310606 0.3300597119031219
Ni 4.017219768530988 6.727855416194487 7.1236728431803655 0.1710729768218473 0.8049486364402136 -0.6527244168937533
Ni 1.3172778349349938 3.185677666984081 0.43922083805005296 -0.7124295460638698 1.347814443237911 -0.11377697131385565
Ni 7.492345537796611 2.3339721166231437 7.338507902283164 0.8653893582247741 -0.29457925960832493 -0.7746304450726466
Ni 1.2437930614160406 0.5904531461517013 3.4767914854843998 -1.2054151802016724 -2.2733758429668915 0.956984908345584
Ni 1.274843484190361 8.964277301220774 8.840590969837589 -0.24009012742150912 -1.381990832009304 -0.38134370688907876
Ni 5.088671019841902 4.096806032950764 -0.22523336161990193 -1.713155089830514 0.2794123220598994 1.6035011395460965
Ni 3.0886335922492827 0.4003884835928738 7.189793494498959 -0.44459824397335046 0.5066852431120822 0.15004520961727064
Ni 0.7883604792168345 1.7350228974704784 7.2905573620272905 0.5234979437940468 -0.9905910264358037 -0.17758069603337803
Ni 6.5750144495566945 8.519880779184865 2.0798758501582206 -0.7366025437656475 -0.6159085336169844 -0.35918156896974274
Ni 0.21625782002778732 3.7373150238122705 6.216380225942887 1.1278725086295025 0.6501096049787255 -0.2825110155898812
Ni 0.14206442690195126 5.98572822504334 7.090686140337367 1.7091971336240308 0.3306022146701532 1.1280715120141862
Ni 8.164393010682657 6.518950674944614 1.7699744092234693 0.07521248077709627 0.9349677806445447 -1.2660237950226647
Ni 5.684095546664228 8.413716678080965 7.475005523987668 0.3675296838241219 -0.8450673588379704 -0.21785291328986353
Ni 3.609883131649848 7.910477120117668 9.018171043322425 -0.046843956936732226 0.7976161073345425 0.7110429501289883
Ni 8.016770061150092 1.887274881577875 13.260906701030866 2.1680063789904405 0.6152565018552824 -0.9263319593464175
Ni 1.1780570893126114 7.618875550459365 2.0447881361950757 1.084654578481132 -0.3171340049803893 0.4757019073566904
Ni 4.3367059798627325 6.400896489008342 2.141013157098542 1.1969523941462998 -1.4133462063921336 0.27112179991633306
Ni 2.3012375719259714 1.6774682608283327 10.066930822364625 -1.2762400734340342 -0.9990658966760341 0.2040946831635066
Ni 3.9376058955551008 0.5397389894289842 11.942100272372453 -2.6696435181556537 0.1259629718570863 -2.6847783169145636
P 6.163656166335192 6.114963876205102 7.271376777810859 -0.07192609671634065 -1.1956308471213988 -1.744378309510854
P 7.667926751818916 -0.045180481792604754 6.938281388886149 0.20386456943057146 0.9355591343716405 0.47971694205335447
P 2.831966048925099 2.5720498988316995 12.016033224785629 0.11695794014499857 0.26201700940158745 0.8739223353964498
P 1.828901191104397 7.419670615256952 7.071694214587703 0.09805827502701822 0.7106364587191891 0.15352571196670334
P 1.64563559563083 2.0356064507173226 5.134013471830366 -0.641606966824353 0.5158306570567761 1.3135169555076218
P 2.87013027632436 2.644973298376369 8.022290852087353 0.5437638931319344 -0.44191298383170347 -0.16046434806806556
P 8.860524347350683 6.229879889596606 9.864245368521654 0.31911606840742457 -2.5062763946184967 0.11556800177600741
P 1.953572227655588 8.736617147518599 11.040613734485396 -0.11984014678880005 0.7439147611563447 -1.0467084382546619
Ni 7.571922599364349 6.854219777520567 5.911151993272747 -0.12273623738967249 0.8808586575049668 0.048076543792252686
Ni 3.9271790641966815 8.322461197277716 0.33135604988963374 -1.139720409107024 -2.0057872530147973 0.3526280841219411
Ni 8.231380570663179 1.20595093383809 2.413429541114395 0.10166193321787653 1.5328317980549924 0.08555474324336877
Ni 4.69517547242507 0.6725315429032153 5.353469282941163 0.6672238960615089 -1.2444663805668632 -0.11692374447295346
Ni 1.2676928681572708 7.865907707700349 12.97040119105022 1.777997540227196 2.1423693951486267 -0.5959819698963865
Ni 7.302472294560163 4.428808123053425 2.8602602175142064 1.1175271608394366 -2.3095170687741384 0.010859054201690975
Ni 4.851127003051517 3.764095323241219 4.1057401617087095 1.1290253912870234 -1.5898922905134103 -2.134578438349298
Ni 6.4530674572085855 3.483463553211543 9.421064543239892 0.4040000108360139 -1.296489824822006 1.4786023472874663
Ni 1.0957651863938287 5.553341424916289 11.523918994650392 -0.9276339659872929 0.695734344796376 0.4499247983925865
Ni 7.258896790162887 0.8221524316131081 9.347077293999693 -0.37539417417386317 -0.13376061352463414 -1.6843250529726992
Ni 5.9389869395451855 6.293131091649927 9.285415424493237 -1.2919520848526522 0.17597169967504533 0.8236870933899815
Ni 7.72933738346475 4.889088767705955 8.281615258794746 0.9183209161164829 0.3666269695041944 0.2605913326986544
Ni 3.2434623749271623 1.736927887842228 3.720477485724571 1.306651595846356 -0.2992748653117814 -0.6450131642924247
Ni 1.0314096420960153 3.766000313612969 8.5878797326043 0.32207155149132277 0.9975273485443208 -0.04499147710902574
Ni 5.5819899033088385 0.5764049925165502 -0.169379412034275 2.833597110323901 -0.40903988725276647 1.330953148706198
Ni 5.424124179458604 1.4401635181909214 7.9158966796825165 -0.9268955451593714 0.2769414919219037 -1.0056908581917197
Ni 2.5939618895328427 4.0660501014416415 10.440232551555704 0.3954341235438738 0.17811677104250614 0.022351885332638922
Ni 0.9502680956819125 2.8104221723054534 3.131397405096856 1.0081904846851217 1.9409933964678638 -2.18905985722663
Ni 2.232262195905364 4.537972353921531 4.761291522317646 0.1364823833311714 0.34051973089418125 -1.0160295211135661
Ni 5.469365400074655 2.3515219554585403 11.778637373913046 0.33685925132345856 -1.2424020418386668 -0.23660139754196027
Ni 7.171488101511288 4.297142918953781 5.8856416874249655 -1.5651086558108271 0.6050998730372547 -0.40176752196106935
Ni 0.06778452696696328 1.0294862460201903 10.544592893660266 0.5894734793539074 0.3352839364165387 -0.13007082337787276
Ni 6.0984631625019725 6.178380729595096 0.367481845562602 0.573794892276386 1.0854855590228596 0.11621514844170308
Ni 9.008322151071958 7.893958000710465 11.109239402128582 -0.5837427475177173 0.996794327033038 0.4274800962358251
P 8.55196192138738 2.746048222303566 9.186105607586823 -0.7476292338934544 -1.1318368925938893 0.3347774290937654
P 6.8453022138962885 3.8822507405499023 12.023010827200416 1.468706428329993 0.5376683217571578 -0.6115618266125146
P 7.123697690880865 8.152843431375672 12.925925647723684 -0.25394503102673033 -1.3246238640540606 -0.020662413445357963
P 8.663960630683015 5.183524815791789 4.66178016295161 -0.73535581584274 -1.4127921336608764 -1.0883237998026032
P 4.115101302801193 6.032625959026132 12.838793044633208 -0.042317015600656156 0.47010744398804843 0.4098492705279393
P 0.805052612242342 6.114218445190068 0.21070205825278518 -0.20535040994747858 -2.441687454993517 2.1437799023429083
P 5.20533557512052 7.562673733066723 4.8926438294480175 0.45609467464872416 2.283586464951306 -0.5425467328953818
P 4.823794532500323 0.6094726804574772 1.8711560862342997 -0.028459798002589694 1.4717647555403428 0.6155951161416237
