# total energy = -340861.6861552296 ev
CRYSTAL
PRIMVEC
9.39055477577731 0.00000000000000 0.00000000000000

0.00000000000000 9.39055477577731 0.00000000000000

0.00000000000000 0.00000000000000 13.74402612617320

PRIMCOORD
 96 1
Ni 5.980356105352133 2.302864558619505 7.138372102700512 0.20740035049797187 2.087305878515579 -1.4320111297914886
Ni 4.493023677359421 7.732718164216504 9.333802139904384 0.007388322044271147 0.19705885936264772 -0.2716918134871901
Ni 5.395925530752393 7.610734856098202 2.0188462866896475 0.5740797705066565 -0.8613159594863489 0.7905887681741158
Ni 0.005498169892476186 1.0875295532323819 11.498650896029115 0.47572479017482583 1.0905056379452702 -0.10621509980619773
Ni 3.6689743134406116 0.45424179961201805 10.626551001755377 1.459700882397273 -0.5350856486316462 1.303738021743987
Ni 7.49128699780222 0.2084994294443006 10.026514263971508 -0.6515553362863166 -1.6002864892635407 -1.0893738383336722
Ni 5.6555837642226905 5.719533443074548 10.253785412655878 -0.2814764036777797 -0.25966522133995923 0.5830104973373831
Ni 7.063359411123929 1.5319469543106534 12.755528777227212 0.8670127527608099 -0.8972856927127385 0.6503608017575832
Ni 5.970195524953057 5.982422027429579 5.964123592156345 2.2981000851864484 -0.690137824545205 -0.4829233648057941
Ni 8.498790242198254 2.474758666017928 7.305252592839167 -1.774189222224699 0.3563106751798509 0.3401482064873755
Ni 6.615955813588258 1.4842335448765434 4.725608941060274 -1.3607563481105596 -0.7616931681856882 -0.15669382528203982
Ni 1.7958497185946127 0.4162241381095589 1.2169454855520412 -1.0254364162497631 -0.23836620275186693 0.8541086431046323
Ni 1.8001975455121475 4.387830681397818 3.733097717558073 -0.20410265358330656 -0.27022242803051527 0.904712838414745
Ni 6.704640214040085 5.834971534429305 3.27081666389832 -0.41258775250502494 -0.6259669462942511 0.526401490594087
Ni 8.336343033026699 4.484140212426402 0.312924278015289 -0.15842006394452715 0.5425462186747494 -0.5552469540708697
Ni 9.016876546447278 2.2266883772911243 4.951793602543005 -0.04123689516259995 -0.7747237761174012 -2.000125940963962
Ni 1.0600340084925521 7.777342081089341 4.291159614005682 -0.06264184320093728 1.3252080186923048 0.6743209121176065
Ni 1.147281654045065 6.402677530756628 8.487307471669611 0.3899322198890381 -1.6118919347129532 -0.7093095123776495
Ni 3.7955589934586804 6.975548332277567 5.24074848918247 -0.7186603574649301 -0.03651634975847905 0.1585139092099141
Ni 4.74886934554134 2.9198240153841253 1.9881692219505505 0.2255651943324567 -0.6667222738347421 0.776054836223999
Ni 2.5241811564433796 8.960035517652814 8.707348832138408 -0.6674984898791343 0.39086861566037845 -1.1466551885536447
Ni 8.684356997527411 3.94724462671772 3.113296678881474 -0.95676867856972 0.07176308877591511 -0.2610358764352408
Ni 0.9563998446439318 3.076101629988034 13.6453580391474 -0.8452056841880476 -0.05349360104276593 0.12895753570903595
Ni 3.7756885792956068 6.9808915580142346 11.676086369872543 2.251987349988786 -1.1862103251384475 -1.325480555627401
P 7.533647790944766 2.1100576854643878 10.653338498655936 0.04212752529766938 2.6887753538890986 0.39694104710670347
P 8.65280473307187 7.543949229667304 11.05603835960214 0.4235110842857481 1.8151852050210868 0.8909340394630979
P 2.8218523561386877 2.500000477582361 0.8615881071214967 1.6469077886665056 0.14072341799571247 0.6838941576283384
P 2.021241817243995 7.544569006290538 1.089107166455159 0.09450783867159852 0.6903375992608369 0.8068072869155073
P 3.2632084363203795 3.9026770531742665 5.476705901147009 -0.6834593840837648 -0.2603913008727064 -0.0688662268440943
P 7.612490889864031 6.765237464793542 1.4817985739916262 -0.963232946137825 -0.2084133651435185 -1.2625841732134964
P 3.090600646749748 7.515758783865061 7.252832637290439 -0.006269120838163397 -1.2249591637718709 -0.5924528736972055
P 6.446071284937896 7.062626947841925 8.72778643581729 -0.007570613258406317 0.04700130845020292 -1.889513997641649
Ni 2.827195581875355 3.938145179022059 12.110232382003947 2.110188696651024 1.7277417293954374 1.8544693473326903
Ni 2.056944706964225 1.8978123636714812 4.090813064323376 -1.0564917428936709 0.06908965570881005 -0.2699203234090642
Ni 4.103268696339397 7.875154100901522 0.14398350013212446 -0.3686540272365522 -0.9987499080975123 -1.3342068797568052
Ni 1.6934926702120503 6.5311778839737835 10.721577782984964 -1.0533873929367341 -0.04902759485161234 0.8597951519664482
Ni 4.2075977612504305 1.9356844715730295 4.845854996522543 -0.3549523613797435 -1.249248118226223 0.7707830463020984
Ni 8.783540038354625 4.858381996755784 5.24175140044552 -0.13622938678010085 0.07010112769245991 0.6205059231796798
Ni 2.747535504680008 9.312228279082907 5.777232768586642 -0.874464581053165 0.1903747624742528 2.115932798223653
Ni 3.0605978238522904 9.044531730620365 3.6943663738834056 0.9296872489718957 -0.21502829935687487 -2.3975441848174
Ni 5.057705915009755 0.09289606432334871 6.477422591518632 -0.1950405433810383 -0.41481895582838885 -0.4134974088034879
Ni 0.11893043872113006 6.811608024877312 0.17734908073837063 1.2330044026738505 -2.5012892258165507 1.619102079308147
Ni 4.487915215495191 5.023824792939637 7.1354722993481685 -2.099719164578268 -1.3145975901663103 0.5708751475264298
Ni 5.6974468579556685 5.147460838719896 0.9113045219152399 0.38177179556543284 1.50853358762926 0.052252272436497105
Ni 5.434417415277175 1.9831631171347026 11.365760458397387 -1.662514384855511 0.3681621752017982 -1.786257209132827
Ni 0.32150442802511897 1.5233264249147642 9.075345897460965 0.3282278009007057 0.1636975102933826 2.945114853289934
Ni 3.289671020021486 2.79315482037198 10.24397228278801 -0.09370025516863863 -0.725648358746989 -0.3840945301613385
Ni 5.021092141464469 3.2606072526137764 13.414458380050641 -0.25165289255844403 -0.18783656943343133 -0.9202836962698087
Ni 6.115026053136934 8.162918265179986 11.6116681023313 -0.6654380078056797 -0.39067501159233364 -1.7615239680522048
Ni 8.855396564430164 3.8995969511678923 10.018117229782181 0.5348871594675949 -0.8453283258088409 -0.12374539538047721
Ni 2.4848722936425167 1.2667670745606363 12.875032978852579 0.7411955624529687 -0.029219301876433547 -1.6623205236771499
Ni 0.9123262142880861 7.924435733003512 6.662774303140637 -0.23066472034255114 0.4811678155672681 0.4789605235033041
Ni 3.187004083327307 4.670082589951459 1.5680282833932515 -0.1988231503519221 -0.6466319308427703 0.04941146055359232
Ni 1.8120014730182832 5.685943428206253 5.964357416973292 0.09239901985871184 -0.5461439633283368 0.2406729965081726
Ni 2.5466809259777485 6.007795306762578 13.459689865825348 -0.5711710815002937 -1.369794547053428 -0.10103175583304534
Ni 8.636728103087378 8.661631854675504 1.643812878582407 1.248544664401295 0.5278641911825426 -1.3183786544752971
P 8.89812358921371 1.1817168188541345 13.71403680144563 0.6459161357226683 1.1194824847935947 2.1267609991874084
P 0.15685982900755288 4.412490278558608 7.803473178202567 -2.5780554242340115 2.2172854277312264 -0.5910824757122402
P 0.8597193866968975 1.0616210122702268 7.203092746109452 1.3548428108396022 -2.160279699770144 -2.1628947687954883
P 0.3013926766011801 5.114330961041577 12.144702291866137 -0.23131315255982746 0.19946978279698552 0.41599112175961905
P 1.1976244188504706 3.1033905825201193 11.33851939769528 -1.3852026540783822 -1.800516033044686 -1.5264883723354679
P 4.528069228236827 5.821167418730005 3.043505135827892 1.2547736760301424 -1.1550781225100173 0.26439013761945435
P 4.9389060050017 0.256100152219641 12.68919953176433 -0.4069359535358863 0.5996558192035479 0.022042324512020105
P 6.931525410918167 3.422744573473715 1.4785409904976892 -0.4487999407595238 -1.5235714557989888 0.9542338279630083
Ni 1.2054279699702786 3.0425491773393283 6.44460166309644 1.7610087189786832 0.7246204317031069 -2.489907980562802
Ni 3.045770137669165 1.668091219214359 7.518559986390979 0.5869139461568472 0.5261114701574939 -0.18192740303784796
Ni 4.3741486429121865 0.36548415283199004 1.2766149494816266 -2.3222715402263296 1.1563870711294277 0.3705625571131747
Ni 6.573134883255736 8.598029626354851 0.06608696914652504 0.6585885889840142 -0.6834452430163779 0.7634908835160593
Ni 0.6690338398931219 5.001390757289551 1.6766197211722533 2.038019373575626 0.23333609652712717 -0.1610695857522323
Ni 5.18613114378773 0.9615270876179575 8.657884084215919 -1.9617409134278603 -0.8068594803096814 3.427815560561961
Ni 2.6357785108450655 6.571519707813369 3.004059170925526 -1.2512641202149868 0.9718641394502616 -0.48374534648645723
Ni 6.815946461239949 4.416687856597783 8.438886953451721 -0.2486123059599073 -0.19160709221945713 -0.6318360034805184
Ni 0.005340408570198475 8.350541552031693 9.160956769294847 0.3373341340773481 0.2653064787861366 0.06506073705507505
Ni 7.58417836684812 6.563331143942764 12.73274071765749 -1.363208666305794 -0.9413333178512562 -0.37523913665323766
Ni 7.168749608738378 3.901850684343288 12.088723316011263 -0.626403005390405 0.7069860064507953 -1.133363613651061
Ni 5.856231750717206 7.867500798660075 4.844096145590244 0.8032763909441134 1.886527404209499 -2.056160563261027
Ni 1.952399659290549 3.76433539842455 8.42978844481155 1.9867160953159593 0.15639403465343388 2.161997968012831
Ni 8.410819523918635 0.052104432904173124 6.277267609156234 0.4639735631761687 0.47324213296228823 -0.80825224689215
Ni 8.661284404144297 1.7710398725554632 2.237018926733845 0.145183253539279 0.15755334506885768 -1.1075379108372088
Ni 5.070383164121357 3.8898683362941 4.143466844689051 1.0338189838865033 1.8189050770748354 0.49730354478686606
Ni 2.0746552935008773 8.135507235434233 12.56285055467419 -0.0465927601578746 1.5703783888501988 -0.5631746935583786
Ni 9.349555734800402 8.686469872379345 12.995554177573341 -1.6998131213059693 0.8587715957979403 -1.382029655667039
Ni 3.6380512161632006 5.4552268849299965 9.312635829165458 -1.3910789103535008 -0.5245163577562321 0.2428378653699753
Ni 7.843198042585389 6.030529840169383 9.904508418521454 1.964049764066695 -0.16654012194850026 -0.2202162713157175
Ni 7.734154919115818 9.30830302713576 3.5575863684131397 -0.0780149832228979 -1.3486006865846323 1.8449254123979968
Ni 8.188779853367654 6.457142749162029 7.064209256342151 0.16488150329915474 -0.546004095316363 1.5667130241834695
Ni 6.383332987667813 1.1224624174510178 1.2997185316959035 2.6072539001748387 2.109027072242755 1.0952781196332493
Ni 8.986253946926587 6.504377240296367 3.136785273846548 -0.05573586010972336 -0.23306073137855346 0.5843189317361613
P 0.4344793768302655 0.4787567822273867 3.5137700392614852 1.8090348691489746 -0.20696943360814032 0.10968686040488206
P 6.9148665665300335 0.3730379151915252 7.689714118063481 0.38550632290720055 -0.05540933000824006 0.5729063190238456
P 1.6750120581738042 9.331084513317052 10.59109132740699 -1.4220221368995767 -0.4746935206968341 1.0776547501245313
P 5.26652368426508 5.289427247660041 12.272329323477827 -0.43942698418505616 -0.5447447689879651 1.7064979895253127
P 5.594986513469234 0.04967040107474558 3.1386136148850876 -1.3340834668050636 1.0275935718020819 0.7043097451702128
P 4.498695572517501 3.233740875052078 8.598688843308656 0.6003582445872112 0.5848951159546055 -0.8351339017743424
P 7.994658302526889 7.541019376539289 5.240624533857822 0.4621601641165137 -0.9979621220888942 -0.7984152061970702
P 7.17497554663541 3.2395066757591326 5.580171035007476 0.2970855709699464 2.6944608343096497 0.10931250778459882
