# total energy = -381169.94030729245 ev
CRYSTAL
PRIMVEC
9.17514971009484 0.00000000000000 0.00000000000000
0.00000000000000 9.17514971009484 0.00000000000000
0.00000000000000 0.00000000000000 13.42875903906988
PRIMCOORD
 96 1
Ni 0.6983325645558931 5.120981303051819 0.483992812018047 0.06499671658635903 -0.528385096683019 -0.3991231423596868
Ni 1.694897862113989 7.847028354151071 5.808851444506765 -0.014030767061453255 -0.9675225746521143 1.1758675484515426
Ni 2.675822282130926 7.766663218711983 12.896093917040186 -0.1320017218519985 -0.17370552934868796 -0.7866413534905937
Ni 1.5022197202917662 7.654597941368333 10.061349786019331 -0.6407677587525094 0.2356215501271942 -0.807588645166222
Ni 6.661213668180227 1.875024399268936 10.933534002911493 -1.5272334780316084 2.1492758924604725 -1.9707647141930251
Ni 1.5446272617918764 6.336138117477304 8.074726207006963 0.12638874654059523 0.19664696863620973 -0.6831431383949267
Ni 2.7939706836663905 1.681025035902789 3.564234586139325 -0.3956038163525187 -0.15680104028386543 0.26344885675210755
Ni 4.23476277731531 6.2077502489764305 2.4614779420182744 -0.6633996372194123 -0.11535537154456908 -0.24295022257812351
Ni 3.977409005888094 7.415007259587205 8.824118479145746 1.874160398003714 -2.467823232848621 1.2024226732322516
Ni 6.645872818031334 3.531193954876658 7.782677524842294 -1.041626395746064 -1.95239135389216 -0.5671200513593717
Ni 2.652902758403692 3.1491040244935795 10.46384983671115 -0.5775841841154892 0.6785547476932959 -1.2141828990919734
Ni 7.292610763782041 4.437377606165794 1.3585203621207524 0.6363909698410524 1.8201931997586396 0.19273092141125517
Ni 5.84597409983118 9.063038457490341 10.209240352532458 -0.42159741220280295 1.1244228595180055 -1.0748463341414587
Ni 4.976747951173469 8.608941952963415 7.187998460467067 0.8166468987137484 0.2743462203909017 -1.2210510869667164
Ni 0.144569162354097 0.2316587649427807 5.0464735831241265 -0.4499628507193734 0.04807320135814301 0.10728776404508619
Ni 1.1226070803035448 2.732350378881722 2.114263672819979 1.0218024190416015 1.3858492865234453 -0.5862601146229323
Ni 7.862011373465152 6.405869254517729 -0.03652902314461029 -0.8052682245631615 1.5372754356486429 0.1016678467551475
Ni 0.8976406694867225 6.517705153121113 11.928215642254536 -0.5669734984791784 0.972708489728428 1.1639327446871697
Ni 1.259757216682525 1.1166340579070557 9.663885057433799 0.6128738605557188 -0.793618299029059 1.0101218973798798
Ni 1.2297728277551432 5.121210681792084 10.09599606846385 -0.2259187210171335 -1.8938038832662545 0.9952514080259506
Ni 4.376353686105812 0.9397463485646446 8.816920574276244 -0.7775895277009705 1.0116131372134256 0.32498204026989835
Ni 0.74039053285584 2.4255150256046374 6.135599624983697 -0.11843375335957666 0.29205777873805183 -0.6276548755196351
Ni 3.2012831003289595 3.159132463017946 5.6986679903482464 0.3170545578927056 1.2384757102010673 -0.5991811935599746
Ni 5.734092325479743 7.919145030090246 12.12031391462137 0.3401304658755626 -0.7206002548001202 2.369890427655873
P 7.95813024078561 8.00716224030456 11.807813823974712 0.7735696079083 0.05098369013671864 -0.6919126570574406
Ni 8.738054658283525 2.1843920938385413 3.609207499470554 1.2521089847137856 0.7976739571556714 2.1309223296539495
P 8.741366887292944 6.686904087089856 6.813000003218008 0.26826350453193154 1.2871592914496992 -0.0687574691803719
Ni 1.439195617616678 3.5689221700753713 8.138996294999169 0.6688953702266609 0.06079219158670821 0.3339292221608572
P 7.337972703456758 4.652562389982774 9.820787455894441 0.4497941863519931 -1.0157780672243923 -0.0926260482678534
P 6.806988445193155 0.7652102300674255 7.932730674118635 0.21865818279997826 0.07931081921618599 0.29914399616087195
P 2.936708486158216 5.729780005162769 0.4657452744725214 -1.3282041252061512 -0.1432927213847855 -0.59204612517709
Ni 6.905107495128719 0.9335072468294487 3.536503613956302 -0.4948144598164252 -1.892117496702767 0.053073482786211816
Ni 5.185822085349803 1.657032019671117 6.483378165883042 -1.494267564628549 1.5469957482602004 0.971352489921166
Ni 3.9689036421990846 6.72700866603771 11.027884818901992 -0.37141539203177326 -0.9450693878549208 0.6917581337574473
Ni 2.7974664156680227 0.9332595177899631 5.879486333783832 -0.44018314562479033 -1.247801101367051 0.3737036738453177
Ni 7.695950340663227 4.523449684662664 5.778355082231113 -0.8066368227759141 -0.140708505597377 0.9032717350928443
Ni 4.998749959939645 0.8209611916462053 12.807463806831887 -1.8553872311612691 1.276795174606556 -0.11547544206220113
Ni 6.055488641188822 6.45870894112507 6.09966423401889 -1.4504294843976762 -0.276056261103473 0.06879269329368153
Ni 0.20139636898219795 8.046266727944861 0.9501078450198749 -0.25866814753401257 1.3199951070327975 -2.0435932681189772
Ni 7.307850687285217 1.8883100159050583 6.004025227023067 2.7634838984465824 1.5375531147900616 -0.49498415262507006
Ni 6.650772347923384 3.1814189014220493 3.858780744027996 -2.757070281610755 -0.30477085542934607 -0.7002160347168134
Ni 7.0507721703463195 7.649019450405101 7.968638539634608 1.3109350537130584 1.0345291225796505 -0.04158322275842516
Ni 6.332440532184241 3.247938736098769 12.875829681610256 0.032481003346840835 -0.9715538072986944 -0.3251859287505883
Ni 3.0617474250512275 8.286050087867812 3.902464548838938 0.5041570773735897 1.1130722103918766 -0.6602886023942565
Ni 8.639687879308475 6.349322807467711 9.714283236729766 -1.4899188007415503 2.4372080790659254 -0.02889457154716314
Ni 2.8963745284700972 6.047341108334624 4.5109613885277 0.5260605623149004 -0.9894489424115605 1.1155227288148981
Ni 5.294364105242988 4.049700009669871 10.049143166977412 -0.5188429615205387 -0.5634333465364039 0.14426022750437736
Ni 0.854045863627003 0.40214864246173304 2.7743276058650954 0.8309190923620463 -1.2997031895529807 0.6738686550715363
Ni 3.689456110509588 5.259443485825113 6.953827539560908 -0.1380281305517365 -2.2327390432821357 0.8865443950358344
Ni 0.318316217984806 8.6854902261645 7.965026283232922 -1.6573189566975006 -0.8379654576858666 -0.9797473988530804
Ni 7.569902135313051 2.1631974982380964 1.5353098973623303 -0.2316111434162205 -0.9310363068006224 0.08856087705954424
Ni 3.1716290167875583 8.897417831869724 10.717532630779171 1.6182330464396324 1.5725537992349627 0.23824176135886063
Ni 4.075931762406524 4.501089845061675 11.98186365954257 -3.145350567718667 -1.2827467642043004 -0.15233092032765377
Ni 5.721559071111687 7.836706310839166 3.4132951174106005 0.3969035090005487 1.9216085641833487 -0.42494678829101007
Ni 2.179657716639481 7.3853348257465825 1.8308772494026593 -0.4695682836551268 0.12671141998733662 0.2977188336785711
Ni 2.516532509741611 8.579764977201764 7.8858236392494945 -0.06787763767857986 2.1755145144420274 -0.65234209385367
P 4.229459540840394 1.9312955918306356 10.916452626881473 1.9879101156240602 -1.2325583162753675 0.39693101980437445
Ni 1.0155422594976629 5.1378911037841215 6.072136032642262 0.6473107020773498 -0.6137040697664979 -1.6995218153177956
P 8.141761685091797 8.42727399067389 2.96160525462653 0.12731151546518074 -0.6295271528416836 -0.006203557707550606
Ni 3.2934566533168668 2.923991728797949 0.9757065124333988 -0.386834811910637 -0.2736692489285351 -0.23888916513487246
P 2.2350756202873963 1.5698405729217557 7.9579632530626965 1.02804197219341 0.9159565296493644 -2.2191993569244874
P 3.1176699619277253 5.424513602469094 9.464387944420992 1.9868896447793458 -0.9461014286638609 -0.695708376654447
P 5.6361659536860005 3.0504619910302115 1.7158594089143249 -0.7510467442154355 0.10525890654051549 0.8597959232973965
Ni 8.257451146531627 0.24946864785188153 9.868794591201889 -0.8025850213040436 -1.2183293171601792 0.7586201856873194
Ni 8.445670165643108 4.882298961082138 11.732679441328617 -0.4830794307676842 -2.0753893295836514 -0.15939862580771258
Ni 0.8410639444429905 9.25992799298382 11.981729702358257 -2.272573915890886 -1.9467873774418214 -0.6534741505755842
Ni 7.862837136930104 6.991904410444824 4.81426339168975 0.885679733042694 -0.7940967813273743 -1.01005479158737
Ni 0.3143965940711653 1.1210656551689668 0.6972994427097415 -1.146008556108581 1.0549989603982284 -2.2790394690105718
Ni 0.791305273074882 7.1217511277337815 3.8013727504295454 1.110257623761217 0.7186716703188397 0.5391793590850457
Ni 8.460506382563418 2.2516092398856653 8.475198549634843 0.37943569123308846 -0.6154153960306499 -0.5137357222009604
Ni 7.007171859396832 8.846183796444233 5.749335001527803 -1.0230866850706637 0.050595453559364484 0.2737471533543221
Ni 8.797188497523727 6.352121228098938 2.1403559632825524 -1.8064907625708821 -1.6100312273551305 0.7994691013828812
Ni 6.73503692194697 9.021897086636491 1.1002371480379847 -0.6066294223079037 -1.8057736818991998 2.3412509095423095
Ni 1.564500635848397 3.321303232384983 12.556104160645264 -1.2538182540954084 1.6985483956609326 0.5912650240366915
Ni 8.71698851477763 4.799199631059096 7.847095332743229 -1.0457100788971345 -0.2883039681225744 1.6794065326251595
Ni 4.644781863113001 1.2982561444485274 2.157196032877815 0.43353221596717595 -1.3263909832568124 0.1262427078810342
Ni 3.8724085937445936 3.2293407078381193 8.107573242612848 0.3119586314270369 -0.10170718463351515 0.74589682458338
Ni 6.0877576423692386 5.555663191002754 8.293050727020685 -1.3853975436980077 0.8809026233690248 -0.7772434572154614
Ni 1.8888788751809145 5.164288009213767 2.5337515130157904 0.04463460799023926 -0.5757638430772988 -0.1953976696101409
Ni 8.247156628668554 4.616898583446441 3.6617673440147733 2.761319286695096 1.3507467863933575 -1.716656418115553
Ni 4.819788666785243 4.659572204285259 0.6669324500435981 0.199980660995133 1.2048330824459572 1.436774869728719
Ni 2.490218180658462 0.5984124327517715 0.9105904756470979 0.9016401130266922 -0.3674391809928446 1.8379955180473828
Ni 5.9300643460121645 5.504548432522201 12.316575869881486 1.9205330717309825 1.8814834140276888 -1.0134548184078547
Ni 2.476565558037916 1.385108110662297 12.317931956993931 2.451658193052984 0.7469805445658618 -1.0243750648647842
Ni 6.008355897639261 5.727743121949221 3.8284045762122423 0.500134329367442 -2.8283844557747093 0.5141946641152499
Ni 8.970874079652045 2.373758006651344 10.842043998569574 0.02373411039214622 1.423250095769407 1.5146353296516237
Ni 6.2160996351220605 6.942716433382494 10.016510829872415 0.3582328319032282 -1.6553086111356912 1.6787609286213603
Ni 4.211733151792749 8.165562023181648 1.1223180630908114 -0.5863081942520483 3.136733515473617 0.7970558639556983
P 5.664507990833089 6.93477075381973 0.8268800806599916 3.632305422281357 -2.637136032446252 -0.7726154715251469
Ni 3.8341665701676875 3.8329829758679224 3.3957439737205184 1.0446366433272976 0.40859277241301883 -0.3241086365260096
P 8.592536785459695 3.033194359463096 13.239332593912218 0.3380136766428759 0.5263148444175516 -0.8634150081072226
Ni 7.249258181872041 0.8028127457164739 12.695172820807816 3.1554097517268818 -0.31450659465987124 -0.29516624246004647
P 1.1730061771144717 3.9128251277792074 4.110932205626012 0.2731154333075942 -0.9110729763048179 1.0483554869397815
P 5.561003128076113 3.922092028885895 5.5403434436979655 -1.2357333715692396 0.12535464884912606 1.0813491682569827
P 3.8675641147502064 7.096959873485989 6.334237943992953 -0.976609367444731 2.2925909824427615 -1.8076701275909641
Ni 4.858269244252023 0.6420228363658289 4.509471344230942 -0.8330852467754297 -0.2137584315055157 -0.08843129346021544
