# total energy = -340858.9657471965 ev
CRYSTAL
PRIMVEC
9.34659297747313 0.00000000000000 0.00000000000000

0.00000000000000 9.34659297747313 0.00000000000000

0.00000000000000 0.00000000000000 13.67968359062870

PRIMCOORD
 96 1
Ni 4.903465684382432 2.108815692651721 13.047928842519438 -1.2294835340047858 0.17049679260340314 -0.6733351511655694
Ni 4.5001882374315585 4.432107654225538 12.375886376029522 -0.08131627968198898 0.5296829895588362 -0.28069221721358756
Ni 5.428585317312669 0.6199230601017061 3.9057140806732566 -0.8802978999054905 0.027886441997622937 0.24147183826038415
Ni 2.846794633919946 7.320793717844741 2.793596630702798 -0.25309373877002866 0.830002751195364 -1.7390643534971084
Ni 7.2049613911461945 7.084240796323438 9.992379923894685 1.4921973123630816 -0.5806234851624452 -0.7695640862933327
Ni 5.288330343179013 4.176151205694942 1.262087272838921 1.2004148987736036 -0.7583808159830036 -2.3793145491832504
Ni 2.083981795125857 5.180265035239968 6.5221993171770105 -0.5687863833182011 3.323298417283477 -3.2221149663639155
Ni 1.202869129088687 9.358276212936282 8.759744700168955 -0.184282790643902 -1.068660774156037 0.8724305813422717
Ni 1.9480729867240525 2.0581104257801313 9.831643760582097 -0.833061849736662 -1.379979972226862 -2.4017924185707926
Ni 0.3310058514563328 3.564388655916846 13.516430553864176 0.5168570414387614 0.6429827641259572 -0.319486821483282
Ni 6.276162407767301 3.3932712317905662 8.339860226825927 -1.8358892703376577 -0.17566959505359425 1.186989626506633
Ni 2.9180624053293234 9.307131656195022 4.681515879720147 2.3117742402394312 -3.0210531564894616 0.22279688755870017
Ni 5.842284215427012 8.949035639669452 0.5309276058028641 0.7887149481901706 1.2039920746019008 0.3523478338773609
Ni 2.253641150748548 5.596786604431771 0.1541991561881663 -0.4331102979384089 -3.5952298575852986 0.7923558873768676
Ni 5.465784757340121 0.9460247542257766 9.314647251603583 0.2403647212391344 -0.33231456937556964 -1.495294977451799
Ni 2.748683447495784 6.371862173204758 11.650015011296865 0.4314375382216763 -0.6369974930767996 0.8996089415292766
Ni 2.2459675979187645 0.754679433590097 2.508621814972897 0.23016746899115845 -0.09906871856940358 -1.0810149248460157
Ni 3.2249951719276897 2.990694779312572 3.416965779633178 -0.259854711642946 0.40510609941599907 0.8223678603579256
Ni 7.110345830493457 0.32842338781824615 5.5921039613529375 2.219453639027139 0.49830061859281277 -0.3084868708283526
Ni 2.664414565262742 0.6968679520821072 13.303779674549455 -0.8033278130073391 0.7625912545199254 -0.06980596504954428
Ni 7.803666750542796 0.1403418974482918 8.283801231500137 -0.7559326115528272 -0.16838437424609068 -0.015917956781837102
Ni 6.932218461638386 3.840440279336644 5.580394549677965 -1.9571502087333845 -2.127147950213182 0.20070339809377047
Ni 9.421085317706252 7.313073432050099 8.484795974719821 0.1715198345512788 -0.8526688253343121 -0.07948796822399859
Ni 6.414445250783922 2.82558721446711 3.3225081764016617 -1.6093755960490026 0.5484502428640103 0.4087017871870574
P 7.725332954846797 2.3165156816693195 7.2803547486932905 -1.274213529922309 -0.4620742892709268 -3.2668663024376765
P 0.9853271776718661 4.281337762998697 4.342205580408439 0.8966575722104364 1.7614072399686826 0.5442428896508821
P 8.191727944135705 2.310646021283078 2.550262755980511 2.7218605664788416 -0.37075744673280014 -0.9183625679876958
P 7.354647077588317 1.6538515865672272 10.0815165117474 0.7267315645088387 0.3806474521530025 0.8157598681231047
P 3.806773851452503 0.9743636241160365 11.430511210015279 0.9031370092871931 0.07583571618339198 -0.6382100253276622
P 1.0163111333731232 8.715847491617968 12.04383931411614 -1.6382542267565654 0.34947822563904973 1.1190266282030985
P 1.6588239740281832 1.4387117095441389 4.5924746271157435 -0.6650281739617708 3.436223839230314 -0.11494888013476977
P 6.497900979428424 5.266272383765751 7.177839447660853 0.46074862848096776 0.536660963538566 1.0249437928840606
Ni 4.415526798293704 7.033348597592413 7.000523363075727 1.9152656526844565 0.506374653850199 -0.9134137086228526
Ni 4.6066365847864965 1.904172039535876 1.7749525877239332 -2.01348230766621 -1.399708561004041 0.3182380366778455
Ni 6.371441576521032 6.305585482442281 5.349112171933417 -1.8033732999878234 0.07148746651702527 -1.592400915867877
Ni 0.3467137356046082 1.6790219614400737 12.212742530367418 -1.053251124469186 -2.0021249736718616 -0.19397559245163368
Ni 4.141325800282306 2.7439260316731775 10.09717953224941 0.9897615885559727 -0.7365878884776282 0.42414717520785017
Ni 1.0548751759744468 3.331312666981024 2.2613062916446567 -0.35731623362622983 -1.1561291894823509 0.2865443051189904
Ni 2.7380096383220778 8.3915300620922 10.882543830565671 0.32270018621425717 2.0436585741392737 -2.458069495895967
Ni 2.297056075102195 7.674805273241669 13.684881395015623 -1.041846225066354 2.474486760911726 -0.05554739824800111
Ni 9.00733968662705 3.290038112417901 10.144114383516207 0.23547602568826542 -3.058094782623791 2.105954089744386
Ni 8.572592261140391 5.002595649440512 6.299549452701143 2.821377171218941 1.7976173713406525 1.0734350556162287
Ni 7.531867826925131 7.432074253766058 6.962438800693853 0.4841842337960887 -0.9003203657740043 -0.6853897683372584
Ni 0.24911287315670227 0.7970409969158309 6.091549438049153 -1.3426071880053587 -0.47799533137655736 1.1942059417494142
Ni 0.340202898940507 5.478327885108171 10.339816151136008 -0.2149784199555459 1.2887790864413096 -7.754095150415479
Ni 4.156747678685647 2.1555019245454705 5.931114235030254 -1.1724379539447034 0.4311205212018897 -2.2900504754090947
Ni 0.8512063725055521 5.666633693709446 2.3239181833029225 0.8825668984453251 -1.6405677053810905 0.5818473302672172
Ni 7.946510730929616 7.602518723198374 4.146722523064179 1.395049464965475 1.100226207667144 0.752941133024671
Ni 6.00584959243214 8.828408510776413 10.853529202003553 1.0764805273107718 0.1143205025221515 1.6118651952400755
Ni 0.024296468429990378 1.8632152691337918 8.229136747845724 2.8970938453259656 1.3242006604737129 1.3554958710425689
Ni 4.276000858411844 4.600916469887803 7.113873234680985 1.1616388064466705 -0.7364091968079188 -0.22718113266932488
Ni 8.165753762267292 4.711009988501712 8.831891051317674 -1.1345427215608268 2.1626553990911725 -3.200824175305939
Ni 8.763216024798654 6.609134782384884 11.819095812814608 -1.5514213881317218 2.8410700216621776 2.6885858635861117
Ni 7.265396461301346 0.09509317155359304 2.4802362121177786 -0.10577389850372106 0.22402253243568515 -0.2406675971915339
Ni 2.1466413544082785 2.946251729732036 11.704269179519818 0.5896627125465781 -0.3451744560573733 5.205106818750751
Ni 8.267435347206652 9.289158157910402 0.1478359956930182 -1.2311714632301702 -1.8402830285299792 -1.5349331606687113
P 9.452957199739823 8.019339383365272 6.206663946407471 -0.0011857927779850546 -0.21598912060824735 0.2813185379436768
P 6.815909458698282 7.539915243473783 12.803581797119017 -0.167359275415686 2.1417219913726147 -0.40688761679645413
P 6.060368269236192 7.95407212464374 8.321351168764027 -1.3058900350899834 1.1528538611651886 1.5151189541562617
P 0.7616398413761382 7.656532683981953 2.4581025453014447 -1.1252253008146427 2.9611459386108683 0.27270585657400126
P 0.9684472307649368 5.079667655085329 8.254950168315025 -0.3562515398071413 -0.14724604960557866 0.42437806027173364
P 2.340424266490983 2.6967070439800396 0.582702122910419 0.13634534353267486 -0.5799079471526594 -0.10373527080713747
P 3.741375740429367 8.84995240757623 1.1529209362478066 0.5582834269043482 -0.005627887709738695 0.9006453532135908
P 7.382471884865132 3.431386637929247 13.000555636042268 0.22048752269923316 -0.05603462229706479 0.158425720371482
Ni 2.2286203213632487 7.658962798154602 6.68999496216114 -0.7973728809754849 0.6401980022919684 0.44692714921684323
Ni 6.654792889051745 2.1293875437824803 1.0108256179580197 2.136738165004778 -0.21465086141279804 -0.5345079217513053
Ni 4.947852654405138 6.69798349517407 10.51912960263919 -0.8823416698083966 -0.6721915244794294 -0.14120370006624067
Ni 0.3293823482571448 1.1932888712926724 1.0395000305359645 1.0672710928973617 2.0261763581941103 1.0878067509568685
Ni 1.2564811863744823 7.051294056098119 4.664813518079681 -0.8436689358285471 -0.8508361430009476 -1.3257872882345425
Ni 8.791676400397545 6.998588618330581 0.6768774590341889 -0.22224204349649468 -0.27753927340690265 0.6979748040911206
Ni 8.286446317311132 4.571708366851173 1.435710518540919 -1.547603299937212 -0.5870782396488534 -0.22368057571523414
Ni 4.428182085177416 8.255406282052045 12.479715808033784 -0.2986621714284469 -0.05317067048570843 0.018027804035988308
Ni 2.6975949703123536 4.509413324694648 10.389925105376 -1.42978224046097 1.0987989883023142 -1.8732988213343673
Ni 7.023600101122908 1.3293378785890522 12.42684306625205 0.6176926221006007 0.38538111018324595 -1.3198475257113398
Ni 5.175488926231419 7.760635036500989 2.5355157015897287 1.6656706710963054 0.20350358654672696 1.6199346025117713
Ni 4.626058804981734 6.588647050590871 0.630536116421096 -0.3224245639553673 -0.9527366745921914 -1.0573242660972952
Ni 5.497656639373692 5.157552814318685 3.260087889899316 0.36354447392412875 1.0193824967461993 0.5987582470899431
Ni 6.662232777057235 4.751452696290351 10.642999064634118 -0.6340610361562952 -0.3793513590493983 0.09878024079470729
Ni 2.9706089510163425 6.2757885440484324 8.653507585815179 -0.7912171457867342 -0.5431139182527615 1.0051426989977335
Ni 9.142594233520834 0.803990188790306 3.7742383613179395 -0.18774992325689602 -1.1102313985089718 -1.189196661460281
Ni 8.96803726318096 2.809903631460561 5.096844823648759 0.19695190147113822 -0.12709862812342626 0.00939121140691286
Ni 5.180863217190159 0.20574281244931958 6.620611463894861 -1.5068672556704306 -1.5911544450552855 1.1386572579498326
Ni 3.5492658684886003 6.050432840907252 4.46608812763353 0.7040294949256326 -0.9097434588601171 1.60357595864809
Ni 8.77986230688129 9.392578209142501 10.58071523838916 0.1883587604854885 -0.6755311303756237 -0.004676579540062914
Ni 8.184671266442056 4.914681595948498 3.887752732959499 0.7052505118169273 -0.5905921663393828 0.4983355855958063
Ni 2.1776626964814225 3.243015403177169 7.2416551804938765 -0.08757125945276531 -3.462878979923998 1.9104661744132838
Ni 6.722200517563801 5.517957439308271 12.906548538591988 -0.23119488181440828 -1.4155912936725685 0.8358777219189023
Ni 2.359023986504709 0.7423914678101746 6.835108295321494 1.5634420667416817 0.5673293391567005 1.1916875462029346
P 3.534208507211157 4.983435133848483 1.9320912474017058 -1.1770209453296956 1.1817031812967131 1.0391406532097331
P 4.9879214984749085 3.680220982615392 4.803976810154238 -1.3417199003043987 1.0660598461980801 -0.7544958791063007
P 4.699812770121589 8.065006836625104 4.72494856260044 0.7174108013285452 -1.105286652909187 0.8423237346545622
P 3.1270709173629623 8.471742522975514 8.597557945627155 0.3928964447236846 -0.009232831452177648 -0.5676059898568547
P 4.309302769170088 2.05500735691352 7.928594246862124 -0.9464025048440476 0.6700739639157944 0.9603548532590817
P 1.0024688291820034 5.059226656256173 11.979818890897034 2.471808185638298 -2.2621892302224524 6.509425138478242
P 4.545659412238985 4.768061592001101 9.481949396478807 1.6975137837488314 1.2341302887481778 -0.07290517280015832
P 7.371087734625575 6.324372134315441 2.6258832357368194 -0.9985131094963577 0.5058894866836643 -2.2718329239598036
