# total energy = -340864.4081050596 ev
CRYSTAL
PRIMVEC
9.29035319389735 0.00000000000000 0.00000000000000

0.00000000000000 9.29035319389735 0.00000000000000

0.00000000000000 0.00000000000000 13.59737098256261

PRIMCOORD
 96 1
Ni 7.1330030270955325 0.3706042616754877 11.250437342637095 -0.1556299027938997 -0.7571515715615929 -1.237940149412571
Ni 2.7007799621260196 3.243206516843089 4.9137634327299615 -4.258654177395059 -0.09305927915053006 -2.942031072158288
Ni 6.539414497986881 2.2682489939493573 0.5465654070125932 -0.2579994036017621 -0.31557385958212103 -0.20121659028476313
Ni 4.00361262579108 6.676995336694877 8.713576370190586 -0.38968385132365785 -1.092602886793931 0.7579313871504108
Ni 4.632783207182237 6.387006255768995 1.2016950929697494 -0.30594147869867955 1.402419789287617 0.07951110815245016
Ni 8.58875490239768 1.0233788431277835 13.266084423545813 0.8720829681948659 0.6962202832938591 -0.48696539608565165
Ni 5.546972530603417 5.368764977892445 3.611012524171973 -1.2416993593446872 1.4830472704326976 1.3051205039138103
Ni 0.3999190417726727 6.533004154364185 11.013815765923123 -1.6837624956010098 -0.22307276692790615 0.8221205202338099
Ni 3.906147531666859 9.089867256984121 3.0232936401369743 -1.1761449704826454 0.013015438423061456 -1.1452292547403953
Ni 2.9964547391346423 6.02984792210094 13.065658991452699 1.3061026653214216 0.4482754357146215 1.4367648424263901
Ni 4.461051030565496 8.73559822312282 7.471877945909286 1.6958597930851762 0.0034180245426134685 -2.3657980027540546
Ni 1.5314775432276573 0.6922567239562625 5.34195859312588 1.028087737829681 -1.1175844964399333 1.4442025296513579
Ni 2.4535450860576016 7.5575071302142085 11.151163416768904 1.5397732623698321 0.692583200761904 -0.5363246632450699
Ni 6.435046671526916 6.440676625491197 9.058731567683967 0.21994964791789218 0.9057631340561305 -1.591551423383388
Ni 5.456614556582621 5.744132403590189 12.462506972887228 -0.7801665443995274 0.5393228266414454 1.7656732143338882
Ni 8.208491460628688 7.68316844592522 3.579344497640543 0.6644298782561396 0.05398236775372639 -1.488796514211649
Ni 8.69725693597663 6.97974007239462 1.4305118440642592 -0.10197329381070826 -1.0854752746102145 -0.591268366470801
Ni 7.656458680830649 2.604299645427894 11.568221301896866 0.7574073963261406 1.2006462980581194 0.4416167927475233
Ni 1.230470103553197 3.233479517172127 1.9144965037191013 1.6412973844582635 1.1182653245570418 -1.8319025177757677
Ni 1.4349972265295317 8.28920604815621 3.5932280012778737 -0.33467458496731395 -0.9324061905649554 -0.024404654096609586
Ni 5.253035049620076 4.311671443450507 8.798545939427086 0.037146784253626344 0.6114134739601084 -1.2755448471392226
Ni 3.961220744703593 6.388576325438901 6.077072644858756 -3.4050062759769295 -1.1827169672732083 0.7036158044269818
Ni 8.24062679191986 4.29358312601081 0.8752042148067999 -1.6856296307167358 -2.0288613612254416 2.0739860214782215
Ni 2.6218305416830083 1.7785916447060826 10.167651336762448 0.07315791224091273 -0.0026819177075373163 -0.22805685040605883
P 2.6547927143979773 3.8133369044339 13.328116111036751 -0.05554714113768498 -0.4450528150122658 0.6045257457013395
P 3.08739800539925 8.584137596918723 5.132925648907506 1.06589580981639 -1.9939990021306173 0.503079785149011
P 1.2221459471967675 0.5111199229203102 7.9925892293456435 -2.449174507399182 -0.10381060412976315 -0.011825017659386088
P 8.01985084141295 2.84959283770335 7.963721315231432 -1.5236496173350922 0.8780391857783008 -0.1733304053974563
P 8.372150320422062 8.31916743682751 12.488246825120624 2.5282621548609683 -0.5163122246788849 0.40793379867278134
P 2.0857307174109487 4.8540329656960415 6.636305448290982 1.6540230595550482 0.38429841864202846 1.2716971912583583
P 7.387252119736611 9.239033165978354 4.62574390665627 -0.4266997664263748 0.8318675723182448 0.6338203809003988
P 0.44158813339081743 1.43620497242946 10.990456102147894 -0.13310935309388044 1.4182904377712864 1.6669827050395096
Ni 1.1627155585672142 7.4368254437521335 13.139411388384785 -1.218978520708404 2.233801680218695 -0.20756567243124255
Ni 6.708294536209176 4.765904676413574 10.68991318012725 0.3382705298486884 -0.8385529547582204 -0.6432635285911696
Ni 7.754583390023293 -0.08336048008367278 1.7100594971676073 -0.8421653546998271 0.3943213500956693 -0.02873644870274406
Ni 2.814270915306983 8.785598903379855 8.91386523409348 -1.477852099385003 -0.22295398196185473 1.283251471754861
Ni 7.3080054079951555 4.412787646333742 6.726958855539607 -1.5053371921791492 1.1916749477974444 0.850535066820761
Ni 3.452295203179922 6.949787974076395 3.7762349503881 0.4480072696548994 -1.6899539691237024 -0.649013029480437
Ni 8.700489978847209 7.354197043490879 7.828862549974812 -0.007694283320464167 0.3176983621242916 1.1144230679928162
Ni 7.099381239312142 8.750481368751167 6.638549068558927 -0.7968314066497181 0.3303193933224118 1.4822787676977893
Ni 8.818319526914838 1.371804244904048 6.638983857082901 0.24619161233355663 -0.11030392516359067 -2.0264450384744648
Ni 0.5641483292449352 3.280693091506251 12.730606123894564 -0.5487096671729841 -0.8798379295499363 -0.7423283905058312
Ni 2.010943375146152 4.84384144837126 11.478207070939897 -0.8780371288957717 -0.3352484551929129 0.65461340638635
Ni 7.670784405274415 5.616167080316238 12.726091941334753 2.2523601599471723 -0.5191270684198608 0.572705258756633
Ni 0.6848188672833189 5.3679567171748 0.17612279748063428 2.008950224123811 -0.49640134468757097 -0.5999432685369798
Ni 4.181225595905164 3.702893187061987 10.79931730698992 0.428477684262404 0.2830398915101577 0.6442845136565162
Ni 0.8611506977081715 1.2148716007379678 3.0514945069003017 -2.430315979931782 0.36213036718542146 1.2569822536456867
Ni 4.215655644406199 2.041815218418937 0.21226877419487572 -1.2531870482693126 -0.2969901830426627 0.6642663560950819
Ni 0.23498647457252875 3.89095780438699 6.277852039404082 0.06045357730036685 -0.3708620906314645 -0.014052878548640313
Ni 0.8826513618328198 9.049788673812651 1.3328888139377397 0.160853098866052 -1.5203228669547044 -0.6291183474390392
Ni 5.9925192834400764 0.7966449891929962 3.34542920077772 0.32936165739483275 0.8421949223861818 -0.5614962774146911
Ni 1.1439769164121714 5.944859772158288 5.049056986510555 0.25676218876055135 -0.8888753571618562 -2.8373522064909587
Ni 8.716069900956285 3.4039574961235575 3.2730369115360123 -0.3907475167014819 0.37296216769360285 1.5245685296049356
Ni 2.7989697037901977 1.5716861913421962 7.296430557097304 0.3932252888180131 -0.1597120432830733 -0.2561019294687331
Ni 1.964445157998909 6.63368371065283 1.7183948019477286 0.3430810638634543 0.4291078616472352 0.3554737811008523
Ni -0.06479649656646579 8.108155647403867 5.674114728594802 1.4547797909465718 3.4546632768824246 -0.6709635656095994
P 4.263333736394142 2.4029962749690603 8.536538472931928 -0.2796969431798538 1.2968837178263148 1.7779687438717895
P 6.817065990027341 8.701409723801769 8.939088542695831 -1.5385123933795375 -1.1699223866117012 0.8764484442524132
P 8.364299972072526 2.032376219693343 1.6540247325874682 0.9307925662209325 0.17898837501418205 0.1928787598430291
P 6.6614990277634885 5.5331949369911575 1.7873608089748703 -0.41580985898674844 0.3701768916389818 -0.6566250374997401
P 3.3357755948960617 0.2916678477267834 11.701938282760402 -0.4849475943246745 -0.3968063213010521 0.52875096466287
P 2.500452078740205 1.2861286088337431 1.8640638220440144 1.486859445089936 -0.62278983411785 -1.4936582131793246
P 0.38641365550555035 2.248915769197427 4.869477248650203 -1.4007786541397682 2.538805991815086 -0.3949538414733456
P 4.091573688718172 5.983646996252141 10.996846006993822 -1.7445731991304794 0.29319677743850153 -2.371093703935355
Ni 0.47280557779804344 2.599756662773548 9.137446871229454 1.385478533447588 1.1194148647804527 0.09501974531101054
Ni 5.8649534453484105 1.9626892812674746 7.224554811486642 0.5919039431722709 -0.6436432805280915 -0.6027367721217167
Ni 4.869083337679765 0.616088835224317 9.543804127684053 0.34035800850533643 -1.4819694639874865 -0.1806433941191018
Ni 2.2154519174163343 4.329350985354843 9.440600382464558 1.2609764624067443 -0.9525032184251467 -3.1456660420765568
Ni 5.830857849558123 7.653950285500029 2.78187266702375 1.0275871440441786 0.19713342135432502 -1.2064590480851545
Ni 4.001252876109681 2.1688236353260217 3.0425209548638343 0.6011064356071453 1.382545161850877 -0.999571118447227
Ni 6.409851233983794 3.4041525935381616 2.9779873752894295 -0.12288021916670451 -1.4908636811533227 -1.1796807515500456
Ni 7.9630124612917035 6.509313754019435 5.464633989358145 -2.7142968951989705 -3.74603148575262 0.9953105433986602
Ni 1.7773095759815432 7.237538079910872 6.608022826420583 1.6380068866324498 1.6007158634914755 3.277566462464001
Ni 5.019837897050057 8.107105837506237 11.352404541862125 -0.9285410511825944 -0.2444381199775597 0.02503894524649881
Ni 5.074623109141424 1.5049350044884617 11.664042003526571 0.8138557091218565 1.168996275253006 0.5879742691005616
Ni 6.499809722822306 2.250866743343465 9.500591908419922 0.39923652800909953 0.9348160855580288 0.47307629680838525
Ni 6.611266088679544 7.718973466681558 13.432639086393092 -1.2382828774639707 -0.07867987050040644 1.6826209257973987
Ni 4.8246754499747055 4.153289504204513 1.3214644667597248 -0.31701444868338946 -0.8638204710757574 -0.7234094421141412
Ni 9.470771733115383 5.380833146538652 8.961849907732942 -1.1930885403155194 -1.2789798409627005 -1.0340151590577096
Ni 9.279241814092893 8.820251920354723 10.312667245037465 0.8774781710685081 -2.1992306271120445 0.6198613476171455
Ni 6.8936835318481835 2.646106234271569 5.215842979149436 0.41553397961754246 -0.6787714916897923 -0.7091328775904691
Ni 8.370320120866015 0.7897896376579411 8.717791403381337 -0.5036690819935777 -0.3726549208658292 0.44055775535538966
Ni 3.6156753523810043 8.594886535428085 0.37727938036086117 -0.45404010611254064 0.15403659016485083 -0.2623389115173805
Ni 5.54962957158326 7.624258317067943 5.069956564791162 0.8817996812619975 1.6426240736894873 -0.5294513331640043
Ni 3.893150327713014 3.489698164665397 6.566537683793349 2.7060451967131396 1.6920267924923313 3.428451908594379
Ni 4.129450458210542 1.1197476755889926 5.152546874604804 0.8628907601726364 0.58556360277654 1.2040620086078877
Ni 7.170944829059436 7.183412482887928 11.197162741955944 -0.11947916390495553 -0.005271789921900598 -2.434646488986336
Ni 1.8477304523004447 1.2405594269941373 13.396455948266544 0.6425279359767256 0.3162050654082167 -1.43356973252786
P 8.875947587047575 4.462175163287737 10.898918253286398 0.5826713688304095 -0.38847003352121484 0.5886651245199992
P 5.851501014093823 6.146330368972496 6.567258615192076 3.1616073958971613 -0.6168086768337507 1.7788899701344785
P 5.598283150644221 0.0395313813752715 0.9685090888234215 -0.06556570171595161 0.6298048319831024 1.0169435482874034
P 4.837496137220098 3.4850715688333636 4.6212027820725385 1.7992852459613786 -0.22971752593793338 -0.41234684013881245
P 9.010787771598041 5.579646702373019 3.5158309988339247 -0.5123450125010209 0.39713028029937414 -0.6187537163752634
P 2.6183652399855215 5.020739061298465 3.048979608322528 -0.013253779686112657 -0.2692626352204072 0.10470817624336805
P 5.87619477257082 3.648591073330591 12.497656094716374 -0.41170226457627807 -1.5078594443803708 0.454190772757792
P 1.355211674309647 7.165547133922065 9.090168264423797 -0.03677140319207861 0.06615191323672477 -0.08363027252714629
