# total energy = -340883.6851962027 ev
CRYSTAL
PRIMVEC
9.14966403106500 0.00000000000000 0.00000000000000
0.00000000000000 9.14966403106500 0.00000000000000
0.00000000000000 0.00000000000000 13.39145817168000
PRIMCOORD
 96 1
Ni 6.798749262772965 2.2290045223800212 11.5460752551059 -0.5438291991522313 -0.5583924416783866 0.11523247281345961
Ni 4.8532745255446255 0.9035595047121329 6.195236516497522 -1.7074477550330918 -1.1230079814483496 1.1435518670379723
Ni 2.6611156997182968 1.8236195133142405 5.05772559548045 -0.13740283826291175 1.034248615224754 1.4156113482772263
Ni 3.4707237105336626 4.802018108337329 5.183793324657357 -0.9590207078286904 0.20354369575604297 -2.4033656765951834
Ni 4.069084281063046 3.106530488377423 2.4027090617225944 0.13490372599014186 -0.42825785494211405 0.9560235728735793
Ni 5.251797286680119 5.2970057760448555 3.075174590167961 -0.11192166327267175 -0.7004258367347743 1.0743961339779176
Ni 5.51022954373476 3.3611839342384537 0.3827899140473194 -1.0382165987335668 0.03580441129311898 -0.3978766715470954
Ni 5.75017947969716 7.810272056689121 12.803827399323865 -0.8103587517121915 0.812259311169014 0.2794776280801961
Ni 2.190594233298223 5.45684125483712 11.955973793377026 0.890376624297731 -1.0310897578807985 -0.5278647054031748
Ni 0.9343545285240928 7.335459397896641 11.623290183783888 -1.2566773208107582 1.1014320550497867 0.05773643547951992
Ni 1.0608486320390664 0.14245203233526038 4.966382670763584 0.14889824049702097 0.5143712989024303 -0.7217891329018989
Ni 8.685382511415062 3.0118955145868 1.989340970897912 -0.34847806650930957 -2.2923153601838715 -0.1993211730342632
Ni 1.9664640662311135 1.3193632360688718 2.816102771606216 -1.0068221435826854 -0.23606172298840633 0.501862110691826
Ni 1.8600351756643017 6.85267738184112 0.6792509191988357 0.4003747553786008 -0.07221843114577885 -0.1460052352199421
Ni 7.6684156674742106 3.6022043808779785 4.558559276266574 -0.9366711364888964 1.6066707955233297 -1.3464394172672551
Ni 7.607945538712514 4.0368408654546 12.764363068959975 0.8708038443721261 0.5109905553556554 0.2578325390065947
Ni 8.1987850855103 0.14120493314472937 7.1839281540664155 -0.5464054445198396 0.21286265916412372 -1.1750442812192987
Ni 6.78474112733127 1.3381566457339538 0.38630978975236174 -0.4799074607976057 -0.0038090893334450527 -0.16756882032333076
Ni 1.9452276963028492 6.8544066683195535 9.465337376474068 1.5948879439557888 1.0398991286423123 -1.0494109247874894
Ni -0.233727249539215 5.22539135664437 1.6992957100780195 0.768866803115992 0.4415900532746459 0.1386138278518774
Ni 6.4786299716569875 2.3840455772849922 7.161524287023611 0.7891065272016345 1.0317340763330167 1.0430618426410099
Ni 3.243949290597415 4.5360282288954625 0.7260258310244594 0.25859101443917404 0.3342994610160823 -0.9384197437488869
Ni 6.584802671634402 6.221158429312586 5.25108544282815 -0.644761967513567 -0.2231180183435448 -0.7589176623230801
Ni 5.675390126920929 3.137621046333581 9.690902210841804 0.15468579371307553 1.4903018951125817 0.15536816449208082
P 0.03559951232955219 5.614791902864534 12.903205558883903 0.632869329841039 0.609503401421589 -1.0884153310751448
P 3.946204294791357 6.299333157734426 12.914735050373178 0.9433179523814529 0.5992932936578066 0.4262333683129176
P 2.593673527059427 8.75571597786856 1.6710131839749356 0.10635522492848781 -0.09102167989521098 -0.17834868454765412
P 6.3889724150318 8.388475917631274 6.113803592758381 0.764441934575419 0.0037090734204710315 -0.4095937028737075
P 4.815989645123394 1.445070468487839 12.789632610738467 -0.05617191920587746 -0.5260358797245521 0.9941252648413074
P 4.120972025079929 6.3250986112966805 8.724695872324487 -0.37108963326123834 1.1924894732789397 -0.5426981708715815
P 4.531252104335982 1.791248002411096 4.11863703085085 2.3404883203446722 0.9051481261799508 -0.8986442636231621
P 9.645301200895455 6.278645767640585 3.7541748085757436 -1.0659420896732932 -0.234471495683151 0.8976587597814412
Ni 0.6145893294013188 8.102612968183294 2.636028236251555 1.1066840474773456 -0.31211341183734637 0.4351054739915668
Ni 2.121422774160921 7.046824100284826 5.2691240052209 0.1725235932254448 -0.43459613845531603 -2.5209630500963938
Ni 6.377251695566868 5.923163025523858 9.10336569271446 -0.6901391100967856 -0.11643883441673496 1.1667614723852164
Ni 8.92202026904311 2.762301832866368 10.551009046692963 -0.03839068396305647 1.0600321519467615 -0.07706238950164147
Ni 2.397788372473382 5.456209928027534 6.947140341950292 -0.8980130577970662 1.3195595621572758 2.556863877758061
Ni 0.6334294023523266 0.7314689660827637 9.739098065472193 -0.06453880311333401 -1.4843737025536048 0.3242906706298286
Ni 1.830024278049176 1.7701305781136232 11.794446541728348 -1.2072123813114113 -0.7009097183497283 -0.4302869695570009
Ni 4.2744301881289815 6.939910277530941 1.8550788027258525 -0.9199558806167447 1.8517673750204948 -1.1509494450536242
Ni 5.467216973707715 8.023386028412142 8.297413887596353 1.4179055436280419 0.5728543827399876 0.06620436374121501
Ni 6.788428441885812 1.3547998843808786 5.089611259230131 0.7125365039553793 -1.60375593586938 0.34484098397735446
Ni 1.0530622680541664 8.088549934758158 7.0083387839589895 -1.4079466326431171 -1.9036830900531798 1.6600517822476313
Ni 5.112136816802899 5.0392963424388695 7.073876911558802 -0.5425816998983753 0.01407730402867253 1.2916096139115691
Ni 8.413198309508124 7.71988252695137 9.31813758353744 0.7281621263077782 0.3756415142979789 0.8506016583926382
Ni 4.942163510401621 0.7096955108831556 10.731391925721292 0.08375419969952028 -0.782915053678942 -0.28634298774146166
Ni 8.27631018779474 8.125212638033709 4.707137923553996 -0.69244333274993 -0.3522830420776965 0.707361387512343
Ni 7.564265043220254 6.890831480333522 7.2738922244324895 -0.2812964264564897 -0.20590448267873573 -0.47935904449330347
Ni 2.2634072586705316 5.47772078787301 2.7421423783799637 1.1180436954645392 0.8213597308083854 0.45240694138449183
Ni 3.563675146165389 4.3900819399141 9.228696873946848 0.6778700629214455 0.06753028164149015 0.7048172809342507
Ni 0.7240879322089461 4.068086967697178 3.8529500052843075 0.42410500911600507 -0.3699570623186919 1.370036230750589
Ni 1.0837959891179492 -0.024936494012275507 13.360764696446859 -1.554443462787497 0.12789181344868297 -0.1977548569884078
Ni 1.6064339411525823 3.6635986256942874 8.149371410613885 -2.1227043126195313 -1.0737986096032346 1.0085519817895985
Ni 5.422017634006886 3.84187067725926 5.0775858559570946 0.28520090371721846 -2.203142560571941 -0.587427395458156
Ni 4.376147001783662 7.120707636334259 6.237941657817289 0.11371115107292674 0.8762928925111554 0.35506266170536266
Ni 8.420399095002972 7.230329759604631 0.550030215839561 -0.657542664218003 2.034066816685781 -0.010145058853801884
P 0.332549109533705 6.234086904413249 8.017398488351368 1.0407077405865366 -0.8422445446771946 0.6771843497083305
P 8.787812998854493 1.9296641179969563 8.207182647044192 -0.19593040218515934 1.5235375172372598 0.3177536408422592
P 2.0586194811029266 3.6107318676393496 10.64947681469425 -1.1174063189908563 0.44273830794647623 -0.10840953635435524
P 4.054893152343211 6.8754234463140484 4.0917461686280285 -0.21853914072361072 -1.4602351576341885 -0.4654290646757726
P 7.308275746428794 4.517637404442291 10.49044010156107 1.0440635444326472 -1.3154275422667732 0.33613317179071145
P 6.574472701083342 8.086500410042976 10.40312760379526 -1.2298247193942884 -0.11873122999533747 -0.3521609146775354
P 2.936392488025819 8.816771685120308 6.4884429861973 -0.025003721133189195 0.7076820040765553 -0.7631198733298857
P 6.667954817221678 4.148466765120617 2.0088526291796973 1.4462709821446125 -0.5073179916000747 0.25636289643960364
Ni 2.641434772654231 1.818815939763039 0.554224421774553 1.0776557785657956 0.810791725484552 0.6509030474142984
Ni 1.5439783353230554 1.1314565884097751 7.439771971201753 0.5181348797099206 1.771070988310692 -0.2882021524373875
Ni 7.119792669943553 0.8839746491190912 9.226861451367093 -0.6611522359461323 -0.008599568743552933 1.058356049795919
Ni 2.9353951746599503 1.9271296610947033 9.580851883300582 -0.02947821196477504 0.13158674580176694 -0.3078623498704763
Ni 6.537023126711784 2.0564876094125837 2.941058816618414 -1.1830270423144593 0.5208111409905031 -1.9225686141037728
Ni 4.150525439499702 7.370905195872556 10.840974705436865 0.05078160142824158 -0.28161678591038597 -0.3631616366634132
Ni 7.294102917036773 6.3976371467517765 11.677606248601704 1.6594627425133808 0.18617049458491808 -0.23981013428724504
Ni 8.156760679185219 4.259927970836306 8.396256791817828 0.24391772869771539 -0.6309163198797264 -0.40218146957003637
Ni 3.2807309395037585 8.806707054822553 12.904236726006229 2.110675920700088 -0.5217853319783143 -0.8706652619117329
Ni 9.743751584535318 5.195755595249434 10.129687153033881 -1.6207653259431827 -0.8387658420999748 0.33480493989759114
Ni 9.062586555647128 2.304974181800262 5.6498424353596635 1.1113002060931185 -1.2827449644320876 1.6187367255489284
Ni 3.9055431883884246 3.0571772012627925 11.734332334892635 0.21847486314457853 0.958234464481969 0.1335829502961893
Ni 0.9128409237794449 3.714269464411533 -0.1453387512979348 0.8933830152242226 -0.6370026352831223 0.5406893679716689
Ni 3.385110305355391 8.878870454057461 8.770507324540697 -0.5683927474242081 -0.1463207095778319 -0.5394058732735549
Ni 5.944225551837888 8.170256433448118 3.7720258028583995 -0.4749447174756918 0.5758229784500084 -0.32758193978659067
Ni 3.6717784252271906 9.001109963855654 4.038662563538494 -1.234330577684442 -0.5117821980190155 -0.0902475207333478
Ni 3.7031709220922813 2.9422940212458664 7.224825321798149 0.1386074000939742 -0.165703742090134 -0.5847891865043606
Ni 5.4753693242488986 4.951166779686159 11.591217866890505 -1.5300650339431325 -0.32644499796867005 0.37215201308748164
Ni 8.501904301086979 0.44450988689871945 1.457044633642996 -0.20429831453388042 0.770552418348531 1.3011617763763785
Ni 4.739361209901847 0.6656087703134234 1.7136240837564605 -0.36912762443886105 -0.7511179637730032 -0.02699864007603092
Ni 6.196747126008575 5.8238525734767315 0.7086615988616588 0.08045958810864853 -0.021876488358117164 -0.34308414918724783
Ni 7.70883888261556 9.025795757076876 11.88557536430979 1.5021379685155614 0.6109123659539737 0.5579242437927167
Ni -0.15798541675026004 5.372646047564442 5.941656326212788 1.2721592184964414 0.05264436566859321 -0.2935166226717655
Ni 7.467736089000871 6.5571249383155745 3.0040652322151455 0.49288458978356403 -0.05504706157281488 -0.898748136190878
P 8.489643751451531 1.4340542731437504 3.693926101680597 1.1653213975045802 -0.8534517262469237 -0.4448203872864855
P 1.828917168716423 3.3768939071668593 2.1321480101927657 0.4632765371091441 0.3005131085942567 -1.3943946049902953
P 4.891492671684375 1.6014290749954254 8.582023333089065 -0.35149114230402045 -1.5847516268527353 -1.1688278679959418
P 8.937327656759606 1.8832753219882101 12.94249604563356 -1.0526957661863483 -0.741148511265117 -0.19120445746439974
P 6.60696315761728 8.203744203347922 1.4856217789238872 -0.180433849211457 0.18292524817474304 0.43507024987825715
P 1.6627684218282923 3.5196378137807547 6.005520065317611 0.8334901955233323 0.9755593289136618 -0.2740960520533086
P 7.06685271457736 4.475539800805952 6.49645077204875 0.24267537165018208 -0.2706294336609468 -0.18069584462359203
P 2.3737064570700257 8.960403109133187 10.765580559876376 0.09993466611412466 -0.385019355968453 0.18983020282469243
