# total energy = -381170.3130515498 ev
CRYSTAL
PRIMVEC
9.24531661820727 0.00000000000000 0.00000000000000
0.00000000000000 9.24531661820727 0.00000000000000
0.00000000000000 0.00000000000000 13.53145540166698
PRIMCOORD
 96 1
Ni 5.055995420445857 3.5971861923157653 11.901158336988257 0.3926033389632981 0.8518008209070619 1.3210721421470604
Ni 6.523892794588991 2.178279749732255 10.710525227837316 1.0312918465892753 -0.7829255952019032 -0.22381787262404682
Ni 4.467133483509253 7.128425542809529 10.235666362795136 0.708681134765031 1.2252684674821737 -0.1961018947660171
Ni 8.386861028782286 6.410184648287461 12.651612687413929 -1.159104470060591 -1.1520475632138096 -0.27121153141666193
Ni 6.169251703119736 8.468783777329149 8.551013470380214 0.7732785590304424 1.4369813293125702 3.9711130555804384
Ni 1.4720115399374405 4.6002198129677865 2.659323731440483 -0.8388157215013037 -0.933798700037108 0.30610345819784057
Ni 2.2854514573448514 6.133842141339522 1.0423798381518217 -0.10456548001791668 0.4758926832112578 -0.49627510352235177
Ni 4.229676777304807 7.186356695319926 2.119783708390324 -0.9275113243664994 0.12672581816503983 0.4506524205872303
Ni 6.933367857577423 4.431982790588005 9.676979289497766 2.862625893456083 0.46358661215039515 2.7483519279011506
Ni 1.311762470920089 7.28546648703896 12.242597116650163 -0.610927021241993 0.9575289537745123 1.5131613162092585
Ni 6.162299225193177 7.340411402354838 0.30949528699693984 0.36378872872445084 1.5108414098268304 0.27774161922569585
Ni 8.380842327811289 8.603987284241382 13.179177252141917 0.5025812482460377 -1.6568062787271403 -0.8042675512127891
Ni 7.518725819601574 1.288704651839187 2.8233513612671226 0.20791688512307419 0.6947087317453391 -1.315304643535664
Ni 3.3293493764481905 5.478931664100606 3.79136464795902 -0.06892587643743614 2.0966389829910472 -1.2224163427453592
Ni 3.851802205743208 3.9632175135795955 5.19090954895503 1.798460178956922 -0.6643460602930816 0.08054520584391935
Ni 1.4687294526183867 7.206049219234249 3.016581247448589 0.4196513442200257 1.7768644550640174 -0.5307607960040472
Ni 2.9198373321941915 7.692362106754108 5.1075556254307335 0.21788762318254087 -0.580323180313207 -0.33352967272959333
Ni 6.706691190285701 8.070208942366532 11.371401707743797 0.1428417498902959 0.926834352904133 0.019395116697160146
Ni 5.417736914903938 0.009689091578502533 2.7981828364539956 -0.02665719757621216 0.573272958334645 -1.5411233486398233
Ni 2.144941138823781 0.8591330446101144 9.66351533523653 0.1876949016492445 0.224444193354136 0.026077156703026058
Ni 0.1469626248308382 2.655023734786703 3.400116726236826 -0.37498819698469615 0.3616917369861061 -0.5757008510498473
Ni 1.405112430527093 7.821130873457718 10.004724831051922 1.2626983301938577 -2.0010911330907084 -2.159077966152559
Ni 4.363752355617253 5.633725996446854 0.22239793486564322 -0.34462295442927743 -1.5763927133650786 -0.3339338501465475
Ni 1.4531788304475457 2.39257693837549 1.099857045627387 0.48275110089398793 0.5164703475233041 -0.47152052228549124
P 4.510743640928905 6.128858915804395 5.818214435979966 0.025483488983085147 0.016554819034887615 -0.04457213018342001
Ni 0.2842352335515346 0.31209322090300773 1.435132897382585 -0.9458340339350871 0.5179780424170821 1.2473791833382841
P 3.112842557187339 3.94612292357134 1.3662571393276917 -0.5065155503034373 0.04012000794933736 -0.8449377752386416
Ni 7.479414734304061 6.664763680449337 4.980333600159455 -1.5374914083141908 -0.9819703746463282 -2.923973957546261
P 6.954974161984828 3.66548134450126 2.387584467523971 1.3137244435327375 0.024666649508744615 0.9499609116192672
P 7.039624278867242 0.49894383877420023 0.6986232576705168 -1.2801486644598212 0.6894217723147869 1.4573933173100189
P 2.6482099366060194 0.588515237571916 4.2725297433119795 1.1425249684353551 0.5971577353720425 0.5000183726148679
Ni 6.032393284573388 5.803664157042708 11.905352937035172 -0.1696899804313916 -0.25240931110849435 -1.7342476488347551
Ni 2.3014366093861023 0.5011996959737752 6.268067493777514 -0.7442538896633183 -0.7006106990520707 1.4436556560089526
Ni 0.4860179619269632 0.34023041680951027 3.9385731982058774 0.5512082652251217 1.3103115611964467 -0.4261204968841371
Ni 3.823668707963262 1.7972155440155193 1.078190646663436 0.7107169342481373 1.5508796566956387 0.2793081923818674
Ni 8.620527155266135 7.280779111628368 8.490825536138603 1.1977252677565826 -0.2749272897053523 2.4438070724396814
Ni 2.879583224624726 2.6969512446230666 3.2298771683266025 -0.10177351909507634 -0.6367938617064258 0.8344787846888468
Ni 5.353223097122648 2.3888233399204593 3.243435424815032 -0.30008347725600576 -0.13864082443507092 0.3628297072452913
Ni 5.845268080805362 4.971289831665094 4.316885997764443 0.42665657189326517 -0.12771209333770908 0.6070929922078835
Ni 8.473563605903658 1.50070900201728 12.683073574563247 -1.1906771026605494 1.566396264273999 0.4303355634067492
Ni 2.539429543941267 0.21781410699863796 2.3119439114652707 0.418082457071009 -0.726817953575058 -1.3095628559558803
Ni 1.5783696597075676 7.434954007776371 7.215716122053411 -0.6131420266154408 0.8663170122453662 -0.18546369832588058
Ni 8.8091685909224 5.899547333341038 2.4360003404040307 -1.3080765012183406 -0.9777321681952645 -0.363560928984361
Ni 0.44178929284070534 0.10967996194966516 11.11104342830547 -0.6365496069061036 1.5400604545929477 1.9465505788406667
Ni 2.1783537122633883 5.223594515994611 6.506600354809953 -0.09597619568700891 0.5938685230978096 0.3080032463237147
Ni 0.8830479045205271 4.922215692257946 13.147216193375806 -0.0073081036256390265 -1.3917635951253515 -0.013525031069628319
Ni 1.8654459789862718 0.2780380979741775 13.3750180156724 0.1951747549660574 0.5868144444645055 -0.9214836301151806
Ni 6.649971174222616 2.7366413878926386 5.307036270024629 -0.643852311215104 -1.0098910123159963 -0.870549819379791
Ni 3.176339390165541 8.814808233921338 11.558244004830236 0.25244504944243623 0.06678183351123983 -0.5741988125830241
Ni 6.674267865700005 5.001179939559463 0.367129664851164 1.2424092409275185 0.15986528103148598 1.5180479548775982
Ni 4.151979138348953 1.004891929246753 8.219858256140798 0.4279472656802307 0.46468653008279326 -0.49472549964704476
Ni 5.019587364495339 4.5179549877144325 2.1342350624421917 -0.7389083090806888 -0.04856942426827119 0.41702907610583023
Ni 5.405024604865349 7.569122039252735 4.254073318199227 -0.988246180352711 -0.3654563462348609 2.2613808753885443
Ni 6.617298226094345 4.6089104103759855 6.6717383471352365 -0.9546215503197302 1.288668271895058 0.1289660203494682
Ni 4.664668913534333 8.21733890742406 7.09722075092426 -1.9663460163000395 -1.925650081242574 -1.9620761852800919
Ni 2.6353589468215555 3.366755926569012 11.169620828431647 -1.4122977105229613 1.0950338648329272 1.7343294099152842
P -0.03585426149865522 9.02213445400523 7.098506774434345 -0.13504950753938677 1.4840307173918892 0.7252354395792865
Ni 8.216035317812828 4.561158351212851 4.8627313265937415 0.7698263388157839 -2.3490200119647673 -2.1831365497636592
P 0.9953507627305178 2.3537373642139543 12.081587158093775 0.6447815078975928 0.14248230966834816 0.4134709264409266
Ni 2.904425389769226 2.6720443622638244 6.626231975323645 -1.7330011780221637 -1.028687319086893 2.3736735488473895
P 4.40048399764148 7.220934178624887 12.458667556977327 -0.6150945223561213 1.0478942310326467 -0.39708965686942577
P 4.928141940065026 2.7048005182396206 6.6348245723780925 2.148238966555526 -1.090133342207516 0.06135603450997821
P 0.5669912164803971 4.372332009228751 8.221387431471985 -0.7577997466685529 -1.1217090601312683 -0.24997499063538883
Ni 2.7090903450453694 5.625044644355047 11.74102668348908 1.6289015818970722 0.37012932623049805 0.34063723030865206
Ni 8.39388746923998 0.621275091674269 9.26076531539142 -0.458835470618655 -0.3141173296412526 -1.1107348205079517
Ni 0.1452282034757551 2.727275882387845 10.000395249385688 -0.3754422538029792 0.2358318663657874 0.751437551895951
Ni 6.784804868479181 0.9384828216051656 7.170236561659356 -0.2510363420203676 0.418998284017059 -0.7870185343243542
Ni 6.3424349697690765 6.433556808125681 2.582261245720739 1.6770801984848278 0.06709756497944575 -1.233290566455702
Ni 0.9356537547893051 1.8339841673053137 7.903749794328875 -0.8771966352723473 -0.6579702386737248 -1.3744479866650394
Ni 4.8411157768699455 0.6405293875916251 5.329485747286958 -0.5267768716556347 0.7169760277839716 -0.25950992670901757
Ni 4.133747374424519 8.905532523673099 0.4783175379043156 0.41897642964018805 -1.3846393253757445 -0.510571979760998
Ni 1.4069152672234746 3.5204038396826896 5.220706279153844 -1.3733203008184993 0.05572737546929112 -1.4848493566384429
Ni 4.179373010817562 2.1589293025244247 10.31885756875094 0.8335758132586031 -1.3852779874010077 -1.17534638584075
Ni 8.759724638859584 1.8945687256201296 5.739583020068551 0.9771858087734914 -1.1124898555258451 -0.4662122226987003
Ni 4.468677451346666 4.882460831773631 9.9672970167034 0.12119383260321709 -1.3271725986178433 1.534212994673235
Ni 2.0183912480541797 5.259050304356784 9.511855165147068 0.9764304186647055 1.9377643480076048 -0.6562457997834504
Ni 8.229108195190694 8.15662491467976 2.803568233252161 -1.1064914718505652 -0.6965545267048261 -0.13317980132049964
Ni 7.775495991748282 3.745351632809164 12.110977094371354 0.3041836154673084 0.7193031332552516 -0.31126983289012844
Ni 4.760995865019464 1.2577790685089474 12.399278418071958 0.7578714804467529 -0.08586841782904565 0.267894551228287
Ni 7.20861017187475 9.213133445341379 4.670516576152084 -0.16988872670575902 0.11966839709762614 1.2420156050335256
Ni 6.417044673050103 6.246172735498687 8.3954693428746 -0.7896634281463691 -0.4673915877187821 0.002984279439304538
Ni 4.038215520149072 5.046787085319723 7.847784196083351 0.7674087305132268 0.6426040406302997 -1.9375871989997921
Ni 7.978606347557559 2.9962683628043827 7.606031191351684 0.8641701411056923 0.7667677544951182 1.4670773773670025
Ni 9.029502971169416 5.705127574939961 6.54639589468639 0.535363070662749 0.2675999028060037 1.6276144876545324
Ni 8.6602265438521 3.5250634791441064 0.9945501183309965 -0.2853510561418376 0.22163320626790217 0.6179489610857809
Ni 5.659344768168257 3.2951509511152888 8.548713235661959 -2.2781184998581994 -2.557407923186989 -1.339046981457926
Ni 2.495246176905328 3.1789465693880006 8.939744816980587 0.8111185126963514 -0.7359682526157584 -1.630825281282346
Ni 0.19558097013987563 5.096406698393982 10.788331036994954 -1.113972867829275 0.6023500782062594 0.06838517344261771
P 1.1698098830419135 5.888526916202131 4.56861192528784 -0.629867824010554 -1.4261747256153696 1.4274145115597416
Ni 0.07953468332288524 7.8224252177525555 5.21354763067175 1.3755101093809665 -0.08462066146487361 0.5271987896844017
P 0.42682759732401576 7.29889068643971 0.953660857525421 -0.23339857433394645 0.16890527974656716 -0.42973058283289867
Ni 7.371420193532603 7.732477534577697 6.794738960942064 -0.9381927153397454 1.7721207697314447 -1.0819508063967238
P 5.371732220538835 0.25653349204708126 10.326976805606131 -0.5253468240773276 0.6043833065862043 -0.27457659123415296
P 7.564351455994617 6.380220577861959 10.376880249893615 0.9587314587230455 -0.21850263105872045 -0.4851468548196742
P 3.03609718581983 7.052530740550056 8.625937514418558 0.8979490373283504 -0.15804673976550845 0.10076513243522
Ni 6.44148928958976 2.7391376233183977 0.4671750825890376 -0.9555944557559607 -2.4489739613526016 -0.47831877615424717
