# total energy = -340860.2836794167 ev
CRYSTAL
PRIMVEC
9.40341453128951 0.00000000000000 0.00000000000000

0.00000000000000 9.40341453128951 0.00000000000000

0.00000000000000 0.00000000000000 13.76284767824596

PRIMCOORD
 96 1
Ni 2.5771185662883394 6.686279025629935 12.26099077491174 0.17374512433737171 0.8476562026110691 -0.39670836227060713
Ni 8.122942086091067 4.8242525133000544 4.931351761641249 -1.6370650915444709 -1.489462687040738 -1.8551272926316629
Ni 0.41761033666888625 8.44865755521519 5.954757325974448 -0.4017875765657274 -0.761812981593004 -0.8659552580305733
Ni 6.602992983998422 8.351915227530307 6.266169261404804 0.7404175466363636 -1.127087550834362 -1.0019262489429648
Ni 3.844727042076179 1.3049776447438788 1.9298129059517724 0.899881735574689 -1.0848947195163963 -1.4029862033140483
Ni 7.3700389026982265 7.261119153322838 0.06779485669488076 0.059422307822375085 -0.02640420102514162 -0.4048952689567736
Ni 0.15265502990244872 5.66591452552431 1.5251849232488415 0.9686808566262736 0.6009956210608941 -0.16823910691747798
Ni 4.7335847913387745 3.186920588842479 1.1620137737558975 0.8546483176581862 2.073404952163771 -0.3569431665575272
Ni 4.912221455319114 6.071145267092385 8.891583764220123 3.829739405595237 1.0071088215851687 0.7431591139372427
Ni 8.568786174594505 5.566793133987923 9.058045827534286 -0.952407830497863 0.37445212197556804 0.4473665507471069
Ni 6.576823281631875 2.099500340416393 9.046168374764186 0.5613445823281752 -0.23754833483626184 0.4497381363030771
Ni 1.2216351826257685 8.979057146298572 8.42371593877357 0.6630934188329032 -1.1531737063984526 -0.4494578860584969
Ni 0.16788574025929215 4.515199894550893 6.995531937106515 0.8794640911502855 0.03473046150264986 0.5474644819119733
Ni 7.301074261247903 6.2340218084833126 2.5701703833639264 -0.43785886836698784 -1.020527666094236 -0.9516449841899094
Ni 5.7309015226695506 7.5496723286084455 3.763821944979057 -0.5207466063011548 0.4318617702432885 0.23269152096459278
Ni 3.3048770194878108 6.643455876302858 0.7288981470287293 -1.3395797140329446 -0.8603463964842281 1.2434135138223166
Ni 7.770060152670518 0.803688203720187 5.242833282338408 2.05212444551844 -1.2327043549349288 -0.8023114559276827
Ni 5.526217400710292 0.41265943897000495 10.756890187504172 0.8361119494168955 0.01460772261084581 0.9751587510411334
Ni 4.788876868203774 3.6034260243155085 8.658345233994154 -1.1620285856859214 0.368307699640727 0.2773243291826191
Ni 3.291890904156082 5.787905020961324 10.146879409149625 -2.2853929220324254 -0.7421293871211476 1.9907424428665328
Ni 1.942143603297533 0.13333007290155416 10.70614654220033 -0.28458023941408406 0.43807561236348425 0.2218625486698889
Ni 4.867461202618875 3.719370124272216 6.168811010074571 0.4338397199052657 0.7895071050741629 -0.7856504503322341
Ni 1.9937683485337312 0.6949922556082994 5.989205794407652 1.3719565877017532 -0.1963744317011134 1.1011116955958906
Ni 7.47563924677883 1.6558190372325052 11.379479913345508 0.6107701839491545 0.8384822494212849 -0.012989727391448597
P 1.1537989509073832 7.315066541923945 0.2816548304576879 0.447930393670377 -0.1784255605321766 0.2741500452196956
P 9.09446525163261 0.6857251906847524 7.0706492326202355 -0.8623346305588505 -2.1676299694876278 2.535098975277144
P 6.800079147095959 4.404521706676566 8.764511663623612 -0.08638932332952219 -1.2891125585213283 1.1767455801811217
P 2.8032330697400014 2.8294591925931454 10.032454900965261 -0.25427747466548467 0.1701178119974296 -0.6521230358643285
P 5.88752479346265 6.066735065723392 5.32117124729537 1.7210357781301715 -0.37943209168866265 1.0874524529412433
P 3.562765660307982 2.9735571153617246 3.9221086797853237 1.6369835875742582 1.6914876321594094 -0.5491341563049124
P 0.9400565198249863 5.761735318594777 5.423759677733139 0.8865140560185314 0.5242654180876907 -1.2157304460847513
P 7.748385282402861 8.331669676256439 3.6644269140826746 0.14977498667501948 0.9799248049712092 1.0331738941033368
Ni 8.501758636517343 7.7026940916737745 8.013211762391569 -1.5222650782827396 2.9606098636017397 1.095855589403274
Ni 1.1977599133808308 1.7275764927693775 1.6815721683396776 0.9269012015863264 0.8847927024520504 1.6564424676298182
Ni 8.723378307870115 3.8323615520970176 12.493183645452778 -1.2499821681787697 0.7755619557479804 0.03260441629858256
Ni 7.011402079644791 7.31931688524758 9.771842090983903 -1.1905372346485756 -0.6389507601484286 -0.500040741212371
Ni 4.947305594567975 8.004280399363275 0.31614937562161255 1.3919011491444802 1.4019557051670046 -0.09471147004197236
Ni 8.695732269437615 2.3774276573929103 0.4975158508117997 -0.8704066089337074 -0.93575839486664 0.41753764031113255
Ni 5.631911778935222 1.021944273730339 3.9304495083872375 0.049860375165552834 -0.26206637458228416 -0.8037368755202997
Ni 9.172438364109578 6.83502223512833 3.7744195930448483 1.6038927185575604 -2.1057949384587027 1.2765110677072338
Ni 6.753203126148337 5.140555164576921 11.05804863983698 0.8598532588978933 -1.1907238967380847 -0.5727209424859169
Ni 2.5137771666688438 3.3622378475280312 7.4722211056324985 0.041937006553418095 -0.6767099811750732 0.8113815365497509
Ni 7.882289903926261 2.0003601420511403 3.008695794414298 0.8774288058878115 0.5091625010079812 -0.11625911430576107
Ni 3.494224172507135 2.93003811336662 12.371863613464825 1.0242439386035587 -0.2798836052693631 0.15610607109936986
Ni 5.120949045484485 1.0023381546379029 13.004940967423089 -0.11034789102764866 0.24918283375139663 1.17192347620213
Ni 4.989714993660008 8.619310720342062 7.9026821484652805 -0.3433374028486345 -0.3871361452011397 0.21789893603645055
Ni 0.9733850415992409 6.637155588632868 7.590554613196586 1.974385084554432 0.1343869342547234 0.38580739908738715
Ni 5.4925719838696505 6.976045241377377 11.721610923045011 -1.613345379330028 0.37021828639987847 0.48227878924325973
Ni 3.8035494902748477 6.106511508774233 5.25235706047597 0.5340687773313576 0.3546883090850795 0.14279212759928311
Ni 7.619342226141232 3.3592099480806623 6.8140272317241655 -1.0745740543166784 -0.5304149826288542 1.1068627391470551
Ni 4.011364949240236 8.269785805874031 10.131712642010925 -1.3936299589101289 -1.126119273383822 -0.10931276489491498
Ni 2.3464904239089224 0.8644690535896251 13.132275423282273 -0.3452670157711796 0.33779050488847634 0.08101211817800888
Ni 1.1791129425605429 4.7641740984887475 9.21958050168565 2.493474871978454 -0.7387051919309472 0.4282642827000173
Ni 5.533862376644176 4.381041380837807 3.741182284390592 -0.13226963080140447 -0.1541674593157603 0.029132141479265957
Ni 4.1947409340947175 1.267984612365153 9.12933687371529 -1.3606645597277016 0.628248543239576 -0.9292445050075221
Ni 2.2452908777828813 7.52843941881913 4.44486329493482 -0.4127862416690762 0.7488705624997232 -0.39079379655838503
P 1.4413365574342452 7.361538216050956 10.38866564309503 0.1611282069043096 -0.2734933854723032 -0.19856475448421287
P 2.62072219901334 2.9031913651609105 0.6853142614740378 0.07833971355216832 -0.24709818330822605 -0.6701223006552266
P 6.712429921167616 9.300663323315552 9.042520790305694 0.7015913177977852 0.8991903659346191 -0.7362991535926158
P 0.581763861739791 1.3823583421115793 4.396087784271767 0.08789470423045508 -0.37875409178503155 -1.5029560935414825
P 3.982891410337648 8.584273598165364 3.125872682003149 -1.394564040688624 0.5890554179798824 -0.2625913938478187
P 4.824233706471189 4.509717703936557 11.91749721046092 0.5239512292813815 1.0493638735996378 0.0006731148076246472
P 4.465380604885797 5.312910347716135 1.969614738221582 0.08712337328206932 -0.3291693388783686 0.18527163691973256
P 7.863661739934838 5.277892032368302 0.35103886419171576 -0.4334116312289116 -2.488420340273682 -1.4178507791307065
Ni 1.880936778754288 4.795496871964482 0.01122579614990411 -0.32804242436277703 -0.21575694999278328 -0.07819084667912986
Ni 7.598598293902423 0.16535246041108964 13.334864464505898 -1.948877941422263 1.2410257303164305 -0.5904443279076089
Ni 2.9418488018942455 1.0632910869914618 3.8916651255590593 -2.004391143998219 -1.8732458566092447 0.7728345295144883
Ni 1.3494746018399972 3.487086980952622 11.748475537738143 0.2420742477310734 -0.6722023231127068 -1.7454918542900069
Ni 8.475419672691006 6.56421330287746 6.1859318067324125 -0.8264368882209768 0.6208332246121114 -1.0304282130373996
Ni 8.69954065228291 9.077068934931887 10.13603445128425 0.32220730573823864 0.26146936442823354 0.5056436892214452
Ni 0.434334309237662 2.3362501055915783 6.324496760448719 0.48982214880815644 2.778604556138105 -0.6916959130609442
Ni 0.2026087883939344 8.798718464305892 12.577894304370863 0.9727501415996408 -1.7662807660109 -1.6595103079218643
Ni 8.815889099060227 3.1793696470529222 9.62131787479193 -1.6766739641853448 0.8536314463578976 0.9112676088141275
Ni 6.106577332675262 1.3115976485045862 6.753057373224627 -1.715064391038085 0.03791271588537341 0.65254598233436
Ni 0.6420679584974849 3.669212311687538 4.044322976485837 -0.27152777710550013 -0.8056456625072383 -0.8234346110595432
Ni 2.312403046589939 8.938001838884867 1.39438248814683 1.4307150366878845 -1.0500565287912884 0.4583338483918881
Ni 6.645327155774991 6.046630565666015 7.472868060545477 -0.05951383909491686 0.45370894802536704 -1.4647155620030452
Ni 4.196931929657565 9.027606975015237 5.4716954634873405 -0.1848810863495332 -0.5275577156857173 0.825445727952301
Ni 6.464189183555521 3.1902117838939668 13.116695846249971 -0.36704554509885173 -0.03926357348631302 -0.050945894920247745
Ni 9.446199968492355 0.018037629565041097 0.9771539301039165 -1.2978941613687003 -0.7221053785907371 -0.4225446066074207
Ni 7.071809613961245 8.743943575234699 1.7032761891920765 -0.9630385707388318 1.6844260973269376 1.3220177938897815
Ni 0.15330198481542695 6.182378256418248 12.284621555381422 -0.5897719844309327 0.3843040750689833 -0.16457374225074883
Ni 0.6274635155418675 8.697594145495314 2.974977030941081 -0.02814972296133862 1.871522446160235 1.5392384729122845
Ni 2.172762342262517 5.353570711723661 2.991299477713575 0.5944717038994471 0.33072228518778524 -0.32779739823150644
Ni 0.968175550003457 1.8537515076289968 8.84688181268937 1.098169325138115 0.17074233295530594 -0.30486470069473304
Ni 3.2283144191757653 5.813501115047468 7.706616255833705 -1.3645754647463337 -1.9785299599607409 -1.5285200580535159
Ni 2.518939641192463 4.236661355636242 5.225298735445523 0.04088156870571024 -0.04498042136543221 1.2787281299632107
Ni 5.635419252518665 5.531803028883389 13.750447425023069 -0.5293299770947916 -0.5022233506859867 0.7189179820016909
P 3.8000138064481064 8.687965049116103 12.377259292666379 0.25781865504952367 0.5504675304043553 -0.7455394412439612
P 3.958498953298905 1.8646500649566387 6.626838162317174 -0.6059614497066016 -1.2303764781327002 0.8163887599563553
P 6.72020654490356 2.630106806617297 4.995816869285467 -0.5838561331671299 1.7671875940958854 -0.3953032543929644
P 0.1696263122708077 1.4671771402956428 12.096648241210733 -0.06591074376019616 1.1544988529677795 -0.03277925131355
P 3.0088293228992438 7.827289332908679 7.30553994276205 -0.4341253694664846 1.2982230054630286 -0.7145291089053759
P 7.5930220691437595 7.48926479429199 11.75797204597385 1.6023989076208534 0.6682230267499847 0.0021183318945834488
P 6.350859232811138 1.6963289466091067 1.553743092881325 -0.33799645025169534 -0.8380400196775439 -1.4913115673240187
P 8.433123114572167 4.190753886375201 2.6565736568799205 -0.3918605472600025 -0.2488691591657198 0.6211574407207496
