# total energy = -340867.1640121116 ev
CRYSTAL
PRIMVEC
9.22321062156665 0.00000000000000 0.00000000000000
0.00000000000000 9.22321062156665 0.00000000000000
0.00000000000000 0.00000000000000 13.49910104107833
PRIMCOORD
 96 1
Ni 3.8389308082598124 0.6589725683077673 9.306482299386596 0.9088577138210542 0.3034678203472064 0.5054495709327682
Ni 7.14957456303772 1.4637511828055907 8.462208052701541 -1.4972613571495503 1.1361735722960304 -1.2573689475611443
Ni 3.739209455868906 7.410499189299165 13.488436297914252 -3.1969981166916295 -1.2932224669246437 -0.12576653957556402
Ni 4.191432692002696 2.4296150140790025 2.4003294759628715 0.12708345861477469 0.3485842530698706 -1.0693035499463586
Ni 1.2718438410374078 1.1893883387829955 12.669365396358998 0.09739570174235485 0.960441499435617 0.2914787663061303
Ni 8.26885727848338 6.85292844234324 10.680002813450027 -0.3791150746688761 0.5121118134442921 -1.2965289055900575
Ni 1.3902145251462585 5.813942997884931 9.66582872767344 0.07525567531020587 0.13181865930691491 -1.4873453835874193
Ni 4.3800104547648555 3.1169563333749264 4.842302669848438 2.50396831531061 -0.08227144450640671 -0.8503548324891548
Ni 2.403393426505256 4.003103955925196 1.0983543284025399 0.6495038530739266 -0.4778112403902094 -0.5426799160391363
Ni 5.027138576093304 4.615276109295678 0.5290027746200407 -0.590940293707421 -1.0062881254560863 -0.08996469938560635
Ni 8.37591108325597 1.5729447724241574 13.574290553253759 -0.4291433428708609 0.23878940633221454 0.4078985745594717
Ni 7.510155979216271 6.181690848655392 7.742490497436528 0.6701688376224458 1.53805396568588 0.5064613000267342
Ni 7.235783911983133 8.703270495058637 0.5421836648070408 -1.2455606420723064 0.5434293926106512 -1.4191790110238267
Ni 0.21821747216314216 0.4446777275885627 8.129698400131662 0.19940139145289532 -1.129202797405152 0.1872434159341227
Ni 8.533166823014106 1.7683108181459648 10.075243354392954 3.107202853004352 -1.664592350430462 0.27160876685508056
Ni 6.9273966442674135 2.642864865043685 6.200298675925893 -0.20735381353075258 -0.5246587968713674 0.6094044139498795
Ni 0.325329383162154 8.218802914866524 12.430768318180045 2.6658493412205444 -1.76319724198957 0.6418339952334946
Ni 1.8055264726869662 -0.1057358079859963 3.3957527747055414 1.0513801326987182 0.7496498638679089 -1.3373189430232257
Ni 5.424031772179642 7.803666208326132 5.900605206468005 -0.7592611617054279 -2.2250257337982777 0.6460709161329776
Ni 1.5540279676004662 7.48598194438307 7.2379882593029095 -0.05196662287527824 -1.5640030814514743 1.72907047550919
Ni 5.097640797483989 7.892771645382047 11.518229400982035 -0.07277764608335853 -0.08948955952140071 -2.6764338016046096
Ni 7.413210813198807 3.047653129354831 4.014659716414521 -0.4436443647005134 1.3474421475001568 -1.8769772986272193
Ni 7.868874306865137 6.630003443518951 12.924106782272416 2.637309839019955 -1.3845917599672604 0.13398429949966603
Ni 2.807692860657623 6.778746159945897 2.241160842338118 0.38161187294880083 0.6377546829577985 -0.635622209995828
P 3.2514491895129396 3.9635456059062735 12.542918869098695 -0.5977498604300866 0.5277901434114974 1.2191559268265326
P 7.065735579201858 3.1794159151721164 1.407793964441215 0.48966813972879536 -0.6749613739150827 1.6238802174230806
P 2.124483539684962 1.4546294275785645 1.3558497649840981 -1.1207276700546054 -0.017020960038028752 1.1755129933256014
P 8.050737572351993 -0.11380242792690334 11.633443902443071 -3.131987259037883 2.3174748901686346 -1.535882669066174
P 4.657546083214243 8.506105923280947 7.936296898255514 0.20563066019205875 -0.6091997541382411 -0.8329808599870815
P 2.944703653273875 5.634044276243733 7.872270292987068 -1.6479460001230326 -1.089121356003234 -0.6983969792302037
P 5.529010354580058 2.6808368228492125 9.39392940318688 0.21820541153327583 -1.0808061512693192 1.4316447475910055
P 8.055699659624127 0.7411356947879664 6.37786576994182 0.8590521031528366 0.6024033000416981 0.5377979053564867
Ni 2.5370561936943994 1.321584615495802 7.3616539885844965 -0.33085881076564955 1.563657268076281 0.6674820348189021
Ni 1.14133541185397 5.200811630617977 2.6272628820891475 0.7272488704648895 -0.1908203346521036 0.8416642466936923
Ni 1.4117046057114466 8.652100122966079 10.035015399288607 -0.1226760735756984 0.08422985378435817 0.09175187319301617
Ni 2.008750693791409 3.1716407486843683 10.966291268704719 -0.27862839270602335 1.103579697520409 0.4872325337041093
Ni 9.41403876913378 2.846743934096681 2.043358946711905 -0.2865862141005193 -0.6120400518005137 0.4579522966827532
Ni 5.353972264895021 1.2240214943719572 11.265957990852032 0.13064520782410402 -0.41406176594739014 -0.9689117416901573
Ni 4.760772255611489 3.125958186864893 7.428703962268938 -1.174844506503667 -1.7116427669510457 -1.606525785305033
Ni 5.974989477176238 6.271202106975198 9.627369784351242 -0.7483753680308596 0.29284787873951496 -0.38406033448929344
Ni 4.102447156683841 8.92205427234912 1.9187755079812896 0.1082123327418846 1.0809583605764674 -0.20846247321389902
Ni 3.471690234069216 7.055119663866867 9.34095958271738 1.1021439935151471 1.2093101443807046 0.2291804224875408
Ni 6.829861192775199 8.538396383391985 7.5030836213719 0.4129621051253082 0.21069290520631453 1.149915347362155
Ni 7.320268520557005 4.171538226861447 13.068601287923258 -0.22763338971539507 1.1243166729574443 -0.19821302757174897
Ni 8.950185064505268 7.912177280364517 3.820825645963905 -0.42746338406527673 3.554242102319027 1.32199131152722
Ni 8.594796315862425 7.184189272205596 1.7151823584551271 1.6001569056642118 -1.6110606970609092 -1.7467275264693207
Ni 4.818472660768492 1.0906907627623619 6.293577615752515 0.7623022625245968 -0.6369722962658191 -0.7184600685286658
Ni 6.017600709884895 4.985975387439899 3.989524623042739 -0.9700584537000908 0.23994203187941904 0.9104548831048449
Ni 5.124535679427375 3.6529724372918637 11.61878453160603 1.0417824617079543 -0.8899390225396802 -0.7687385050682438
Ni 3.2622034530060766 0.5228610387194577 11.647334979841883 -0.9750255678973787 -1.4538791335091734 -0.35988579412561894
Ni 8.56854705865705 5.894563081241286 3.7096610562522994 -0.5884972314835671 -4.271679900230766 -0.7195769557419285
Ni 5.786771419625255 2.032113086096826 -0.02399971615393803 1.4221584053671248 -0.6391466782093186 1.5273190957668794
Ni 6.782546122689613 0.9906742676340794 2.517933711275599 -0.33626995447889185 1.6823746141145477 -0.7152227925382908
Ni 8.502684112169494 4.2242027590619715 10.01789896516291 -0.6987448494879256 2.002865451382312 -0.3570843201210818
Ni 3.5825255551644366 2.0235078306602077 13.49071812020259 -0.3777989269606139 0.1256115020549385 -0.6960194801369627
Ni 7.982513483965428 4.899710699231227 5.835944966635255 -3.3525431730812065 -0.8266186652144796 -0.45903884487871266
P -0.08476776113754209 3.252602090830815 11.722524436830522 1.858006413951671 -0.32554099809716197 2.6334364721074777
P 2.825991710374933 1.5842155357077023 5.044519716361585 -1.0353835001601461 -0.7864786026604842 1.2042239881070487
P 0.22163006006405186 3.901897666636867 4.48070301122594 0.30135385932799713 -1.0825383034690776 -1.4538243690118382
P 1.4891426814304671 7.411670537038127 4.822635095686547 1.101052303112865 0.30127749756410693 0.6606886660461525
P 8.636153191937234 3.8252620102350874 7.955317003037287 0.7728558696707271 -0.03207888281241572 -1.3670169843082909
P 2.2282631047147885 7.13468830122132 11.32540803904904 1.2357364568930331 0.02162734846178856 0.16848978947570337
P 1.4720059562415748 6.354054207282959 0.29018065010383853 0.1045125152927942 -0.016772591472648535 1.4390292129805347
P 5.075781788497081 4.943640851047533 6.203795195042743 0.055698836224200854 -0.32963985075688385 -0.5577635498451362
Ni 6.257164380528754 7.7810508960746985 2.818895372183149 0.16376153076209862 -0.9625423478287036 0.24718354393318076
Ni 0.7928557702288883 4.732706025929143 6.357671550457924 1.6870609638466236 1.3317972418740482 1.8122315217094014
Ni 6.575964652947518 4.273878971046565 8.039942726732468 -0.7374844321499686 -1.2131989379121493 0.8451779162739058
Ni 0.027392935312707412 4.778757516170337 0.6727050064852388 -0.045304123253438106 0.231204394896105 -0.9136337950534588
Ni 5.875544821101622 6.757486659644284 13.383197620976523 -1.7296566870299632 -0.476558856040347 1.3862694047799997
Ni 3.080653776677682 8.70600978858991 6.201932106513057 1.5066607960865792 -0.9688811455625378 -0.9401711792223552
Ni 1.6030032155837917 8.460976754094052 0.8439136191528229 0.05926392786763987 1.1487251837087957 1.0235929352831212
Ni 0.7003986184616479 5.628814715865852 11.840466241649123 0.19327856638460908 -1.5370244959801012 1.393653613059213
Ni 2.176465554305305 3.071412119713597 3.553166231363962 -2.0410741012415494 -1.2218591846903084 0.2380862096176029
Ni 1.692173215113507 3.5513234338974704 8.500343261333681 -0.17030087454251316 -0.03250645726813757 -0.3399720859208274
Ni 3.997634592073198 4.203616553129997 9.229132766488789 -0.6102798745762974 1.783511785177206 1.9841030831731439
Ni 6.857853636773201 9.16302909420606 4.8814100048718085 -0.3792366878484049 0.3992596679375511 -1.3171206136984799
Ni 0.36655252268408856 2.3223398522533794 6.656109740960909 -0.49439614133208404 1.0532796637142763 -0.21878056731045548
Ni 2.8143981347223828 5.981371938871994 5.638817287699735 1.5146970361274945 0.5021192210079546 0.1667041583301903
Ni 7.044125596899611 5.466762906625357 1.7776834446997605 -0.012820805913752113 -1.1669285940906997 -0.48605676822845323
Ni 4.096313721672746 5.7014936149446855 11.551450483036865 -0.5641218879629962 1.232557544944419 -0.3719023589705208
Ni 8.686816287449927 7.613087008876142 6.298693730640715 -0.3726235534072615 0.16631926418694581 -1.1561731553464087
Ni 3.4538617680895984 4.846594229714096 3.3640433768587106 1.523861476235582 0.9323853646293491 0.37473597176457396
Ni 2.709484114795768 3.6856871650878817 6.181103330143803 0.06435239813414079 -1.1770327724042373 0.7504186237131334
Ni 4.089174956712465 7.880827587728863 4.160828234778917 -0.8490129737492796 -0.14039097435695821 -1.6123107674179267
Ni 7.192517831325924 2.4895843290295825 11.624723356874666 -0.6937111437187601 -0.7797633954238377 -0.5863490747923127
Ni 0.9979513807525057 0.3080045044781844 5.51555737968204 0.4224749297117499 -0.6539564895286415 2.0504180043502944
Ni 6.671369542804301 8.719042185087167 9.915845985146733 0.2118049073235707 0.27638253409464014 0.33966329643115695
Ni 8.762483506744692 1.3047614794653717 4.183573594299006 0.17139230783447904 -0.09635774739614372 -1.5797775706769117
P 9.068657203930092 7.246104684580748 8.741910213307479 0.7142038643554733 1.3950245252648104 -0.9809581313317298
P 4.994783553508463 8.997998187960174 -0.2962578235306207 1.0254109623284664 3.0285024136786554 1.6680258015920433
P 5.120348341840852 1.217980291466293 3.833205039154718 0.4752594205026331 -1.5623143808951416 0.9606728987201325
P 7.129163598106063 6.620171501080113 4.901158743286479 -1.9892977400002063 2.8982490419763316 1.3678860171768055
P 6.692924185843291 5.391012678435706 11.365054931889178 -0.6490135437010693 0.4135953678339329 0.5759718453230468
P 1.8892086619435973 1.588402873294224 9.640437229048562 -0.8421910657314398 -1.638106902545424 -1.6013419271112483
P 4.989775350183614 5.961403688046401 2.246506615168841 -1.13288153180832 1.0961957463515124 0.014025367744814554
P 8.633828942880397 -0.015055968890391777 2.1112454655925954 1.2993715172451752 1.751769202658286 0.2140559081412765
