# total energy = -340870.06465923553 ev
CRYSTAL
PRIMVEC
9.25523754796383 0.00000000000000 0.00000000000000

0.00000000000000 9.25523754796383 0.00000000000000

0.00000000000000 0.00000000000000 13.54597568519187

PRIMCOORD
 96 1
Ni 7.2126250209730305 6.0610513619685 1.0149719080343678 1.0409234561417686 0.46045115184520696 0.26631820788010263
Ni 1.9756877633472643 6.851291297405262 5.3480593400172 0.33939770147459614 -0.16948686328165005 -0.7016103439611788
Ni 5.221129312136313 7.213661607562503 6.04877891716814 -1.191463603117587 0.5047602581752275 0.003118233914007533
Ni 8.442386925583474 6.932857704664368 12.09421299153775 -1.9750643700096435 -0.6616471733046798 -1.178873168047086
Ni 1.9757988261961363 8.975590407780718 3.8914062159223315 1.3298938542037484 0.5791741543104284 -1.1725464544981097
Ni 8.556429960900244 0.7290554119931576 3.9964281713394705 -0.3065266617781882 0.5199518783140012 -0.663371097974322
Ni 3.4139146352905225 3.115923756529441 12.053886071112313 -1.3880360097621192 -0.15675090377222037 0.2239140318822789
Ni 3.165198640479001 5.766438644860608 7.29874778160711 2.2099174174019294 0.4589992498900289 1.2133866284429233
Ni 4.858768257216479 5.795685195063579 1.680351286674224 -0.7427904177439143 -0.6794494915934234 -0.9750651628860627
Ni 8.751178666397362 2.320084402462046 9.48287367209871 2.196889637683694 0.2870022185920154 -2.516282356791273
Ni 4.994570355674762 4.082762876910149 4.000465305895969 1.229433654603457 1.686646244906708 0.21369672502964487
Ni 2.8726776070248667 4.675098070894347 2.9657427212371905 0.5260160822302102 0.3083423748306883 0.33852198373786213
Ni 3.323370647747594 1.2301969007685265 8.468768054285546 -1.5139071932363477 -0.4432543283509463 0.4641807940909683
Ni 0.6069640222281271 -0.053025106146472975 5.909404297071139 -0.6659357733777048 -2.6418578634019534 -0.335690427826338
Ni 1.4332197885066102 6.342540152434678 2.29115253033088 0.13923860592006987 1.3662063154815374 -0.6222355042762767
Ni 4.564507239130016 1.9859425663931156 4.6560767069775295 0.2756636536507446 -1.5901943951348616 -0.4750066810618787
Ni 6.344289392304413 1.3072930283605324 2.564388425602125 -0.11144420941562097 0.38734080501277807 -0.28813144710045213
Ni 0.7585166837039466 0.4268894956382277 8.78173390716954 0.6026233864723041 -0.1069758892316222 -0.042899884687319666
Ni 5.059819779387084 3.9497836258606958 -0.01735634670747762 -0.9037458465157855 3.46785046499666 0.4077741331664655
Ni 4.972626187785129 9.019756400682166 10.103644657489113 -0.6815634526126326 1.6883706837969825 0.9720901394181387
Ni 7.461840798604475 0.8465534274335887 13.37128674424394 -1.309900441800957 0.8491548986437827 -1.5990999251546074
Ni 5.602047118055182 1.697762239282397 8.70719037405411 0.17490803429722135 0.9139595538239937 -0.6166397553560542
Ni 2.437903574640465 1.0874903952053645 5.767077256241623 1.961778708644331 2.0679035627295677 0.037852294961083194
Ni 6.872948552935309 6.515298413855132 7.616753111258674 0.2221471697898432 -0.23187288171803935 1.2814169896492833
P 0.1267819440823929 8.095944879001966 3.873173398232505 -0.7356314381016299 -1.7427094064488633 -0.22245158840413948
P 6.578585727237381 5.96090043799814 3.18581005418217 -0.05311924842248271 -0.616247405013642 -0.18470085201792708
P 8.535087383442 8.632628330463868 7.384804830055609 -0.7154184534888647 -1.9378620499277333 2.269706364535104
P 3.9526249837443386 5.524321634319568 9.48879332194359 -1.0361784852576155 0.7372640886090465 -0.8164828623320584
P 0.48524376748307724 3.537148121351454 13.38044387613344 0.2524288514925201 -0.2856341345998952 -1.1952714068994512
P 5.845487627545282 2.226884161783594 0.31022352604059616 1.7407697662239892 -2.613786044866402 2.336092762380138
P 7.93967945063901 5.68027238461072 9.596077257382756 0.9238842691368734 -1.7666026681266929 0.01562485102145051
P 8.752168976799803 4.254540083165566 5.766399772863504 0.1648889594983225 0.9668800559721089 -0.49372945428236265
Ni 1.0762730474692888 8.1026271604091 12.387618825687898 2.026146790507756 1.231215171983912 -2.113179403848232
Ni 0.610676297951675 1.1281671636047481 13.12613123926251 0.3005575886789469 0.5998890182602766 0.8951588761777229
Ni 6.3358486157901375 8.737804848345686 8.116992214386958 2.6277383932814358 -0.25727589517217625 1.0339274844399096
Ni 5.943648675473351 4.698782223416308 9.037468148506035 0.7633949813681434 -0.2786700445772362 1.5024796681256962
Ni 3.8556393509668325 7.350907523056122 11.247426332121531 0.06828901418438561 -0.9383413251024678 -1.5143465947666113
Ni 2.3555967483888796 3.9814550482640385 0.702218925610711 0.5142304024491919 0.25904815658125063 -0.17015637854484886
Ni 7.675497954122057 3.75961626287955 -0.023929416313221024 -0.7613123878075018 -0.5176072893412247 1.5322000780082645
Ni 1.6141411693191592 4.568764648336778 6.466022604381831 -1.8970650705160297 -1.871221112869732 -1.1350859956588064
Ni 8.95036988584936 6.4864868598102445 6.533752431718961 1.387277791439856 -0.35939239942896817 0.8473715814911149
Ni 7.197307603066094 4.909431426776939 11.718380013049739 -0.1364211910759328 -0.45037628410770825 -1.991746458651015
Ni 2.85245491329275 0.6554355515708465 12.018816125533485 1.4156797396213168 -1.2778207876575927 0.7909518079404895
Ni 6.881111672327405 8.252682324472628 2.978882381782493 0.999563405137743 -1.8150491936638549 0.1673587611950537
Ni 5.5104757991601865 4.636485220436502 6.888494575206173 -1.086978341518302 -0.5370396870342234 -1.7738927740302028
Ni 2.4480010386504145 3.574363430960992 9.637676772951519 0.9746658705651149 -0.28319724302362836 -0.01066673568522679
Ni 4.572179830939593 7.0379046492225035 3.6322854832189813 -0.022768404044767238 0.5618678018214969 1.1291709157259522
Ni 4.891170843374895 0.46112091670807076 6.806663468157256 -1.4338188724241887 -0.1427121662909671 -2.2610463748672607
Ni 7.541713497418282 0.8442007460849827 6.337335932441283 -1.0987897323309335 2.00916876789252 -0.30281604569582043
Ni 3.5961780255269415 2.9813155836965315 6.823757891646144 0.5101243507006182 0.6909808892717906 -0.17361039853172033
Ni 6.572070040103554 3.7269360195989534 2.130741681133775 -0.17747296681092015 0.9253616250133484 0.03898486590362963
Ni 8.298773406754524 2.4768958898319564 11.612842540909085 -0.5560259983287392 0.03163511040677777 1.8896744344789134
Ni 4.858259219159149 4.844691041121948 11.332414400649634 -0.7630813067824664 -0.42769349779821186 -1.0333052774748785
Ni 0.2335947879375935 4.534066763301672 11.097323966347231 -0.6133664839214211 -0.9142997107722318 0.35599237260848365
Ni 7.487227914809142 7.9855113862735365 5.389713461486659 0.4140666510433966 0.11681935768460527 -0.3981929172359336
Ni 4.427890679780004 7.55197755570154 8.458608580184976 -1.2286024169514131 -1.3102084599596788 -0.23421309981544178
P 2.7647615388708706 1.28886585068518 0.6871930476820649 0.950822488288614 0.5818871823662172 -0.8538875282327617
P 3.3707482080289237 7.551283412896089 1.8302509627493315 0.6959518601238208 -1.7610930511623732 0.6911233283869258
P 2.0206311961908154 7.9754694536880235 10.245580201776356 -0.1607134879643942 0.07557449210220533 -0.47164213546502
P 9.157529864707927 7.342337173218164 0.4778793750791206 -0.7590791276016089 -0.5501302016695945 1.9701311943740842
P 5.903268074670959 8.797778786736586 12.322110255328207 0.23174766899408475 -0.6713124643085857 -1.3639347458385414
P 3.844634873691095 5.907960480035803 13.13149557486303 -2.0042340495950643 -0.9832662106396163 -0.11980672244770334
P 3.9882391372826387 1.8915669105641022 10.434735967309026 -1.3801707480814296 -0.6843286740625957 -0.6016260555560414
P 6.815001511536324 2.831464034855935 9.930635579134957 0.8779967625761396 1.5011864032355693 0.1752350786193369
Ni 1.707008221450994 8.53798427275008 1.071157677754991 -0.12300131812560107 0.6794142674801137 0.29485179654342125
Ni 1.706536204343288 7.528154574618487 7.934474305121873 -3.2926063875162583 -2.2415669259864104 4.107879545810932
Ni 9.247666621804992 5.981067600305821 4.141749281469828 -1.4592236856505385 -0.04445231677610409 0.11939046084589115
Ni 1.3673595191254924 1.8476230433603993 11.046363703666037 -0.04901113979138011 2.3549057813215826 -2.1876406082816002
Ni 6.978800703147767 5.697949888056186 5.362838103107107 0.22528442986724426 -1.492283958539617 -1.3820155145996522
Ni 7.611470221747328 2.753720040645509 4.588712461517936 -1.0477908726855631 1.2391490821190079 0.20042957560709354
Ni 5.718117050363866 2.3376138221090157 11.64658621096763 0.30877354883083596 -0.21833165269849492 0.7417105544161743
Ni 4.080115879012032 0.17668803522304283 2.429497968028333 -0.015090318674219174 0.7306298711219804 0.3106833642590391
Ni 2.0743578493326633 5.801497484154549 10.975639807028065 1.39018108112958 0.36219053099939563 -1.3192065496932313
Ni 1.06807290712757 5.793824892344972 13.015934680611673 0.6342620964235076 -1.4327066131966164 1.870366735289237
Ni 8.569914841800792 7.676201352164913 9.376226496993079 1.1042515267764532 1.0503694320460168 -0.4813040840348162
Ni -0.03197684523774072 4.5842394052796145 1.8622870415064705 -0.700059197423975 -0.919136727149559 -0.7890152530394089
Ni 8.567258588665268 9.178705847892862 1.5357613402989407 0.03993077475666671 -1.0398960433185187 0.7469280940613717
Ni 4.097127005364266 2.803096732206536 2.1320281591332093 0.13562209221340513 -1.2710996668836754 -0.5671020536372428
Ni 6.026214648372304 8.500963323126067 0.92040466879105 -0.003440136029800527 -0.3784902966006837 -0.10874995041290948
Ni 0.27050652576021506 2.1784885253876043 6.178522537220454 -0.4344691259591485 1.6865927659609534 -0.2775061061761221
Ni 0.7948416394750276 4.945193664113736 8.855979421640496 -1.3681698669658113 0.7328569606802863 -1.1252672097961718
Ni 7.672564043864353 3.4885673802073436 7.6328859155810775 -0.5100117363821539 0.16310821344881588 -0.44387679242629363
Ni 0.9300680621666577 3.863922788445205 3.9156271722138416 -0.37681008068478333 -1.4858068354557055 0.9142061226171609
Ni 3.9818067472854666 8.255764318528827 13.269867852748959 -0.6713273767069212 -0.13461756220829074 1.9058057928231373
Ni 5.769233726557222 6.478351506130368 12.581353157165317 1.4060093064110883 2.1858997143310934 1.893233098364449
Ni 7.198307168705942 0.3898981627739145 10.433828028519496 -0.05746055611031394 0.05312027686374722 0.46843005628562556
Ni 1.0032677348107362 1.4065832152521336 1.949130785134479 0.29032819764145484 1.7543274503037658 1.7365896667043703
Ni 6.577132654964639 7.053397916640153 10.454458878221217 -1.6765757480445838 0.6863986692177468 -0.25137778452018644
P 5.95291316811676 2.4086385139626834 6.421293893046099 -0.6156020581201591 0.9435375245914266 -0.06047028947091521
P 2.6948659859807353 8.41023423083502 6.621150564067589 4.328773045699332 2.346231136365721 -2.95614694273438
P 5.709287553878539 9.014703041058487 4.4920350281460495 -1.8988825833407426 0.6248284618144336 1.1361897702459465
P 1.5608680228102052 2.6061175144945716 7.792417517224613 0.655127369908291 0.08393417692081027 1.1713825160969955
P 9.16741445825754 0.3716181433733178 11.14642762840478 0.008468699592643479 -1.1305181737824659 -0.14425302841552576
P 8.288796260830853 2.420735109252329 2.4159788427493845 0.6167413139309249 0.11203916268714254 0.8281279027701545
P 2.4298330076224306 2.2071149746843717 3.7149430829682544 0.6055621573856539 -0.5923307462970443 0.0016678746207261597
P 3.4256687867961464 5.107678612013527 5.0542879239895155 -0.12821602955732114 0.4321793014837073 1.2058478968637167
