# total energy = -340871.2184091221 ev
CRYSTAL
PRIMVEC
9.29611221452994 0.00000000000000 0.00000000000000
0.00000000000000 9.29611221452994 0.00000000000000
0.00000000000000 0.00000000000000 13.60579989138596
PRIMCOORD
 96 1
Ni 6.678233980089927 7.294315218083914 0.3130326312010999 0.9174876215819102 -0.7590410752748218 0.21421377387537946
Ni 6.255418912902982 9.490493816191217 5.881324769294665 -2.213342898143711 -2.331827045125249 1.4664855094192744
Ni 7.7274303774908795 1.3193785998221068 8.301047904968778 -0.22223510151795917 1.0263306459292583 -0.5814022723099986
Ni 6.488574700782317 1.413046225461921 4.072433357104931 1.9887326115253554 2.0591528131201313 -2.49203068333276
Ni 1.1511096744840483 1.7047024468616363 0.30481207926051956 -0.12207263566374461 -1.0621299150160546 0.933009114256277
Ni 2.1292465909014013 6.862046004879135 2.1444912851537565 -0.17545645060152362 -0.15227435605810546 -0.6655097415838797
Ni 6.997192882762383 5.045037227593262 8.425922578968343 -0.2648529361884858 0.9713704876432949 1.665839592574002
Ni 1.932921999209536 2.9188304653524626 8.775945369874027 0.4542151982378242 -2.488170429046405 -0.8917375092009998
Ni 6.475699585507292 1.842842672844927 1.5949125739861003 -1.340734139352362 0.9271914791332354 0.5004186933770801
Ni 0.7694196776690727 6.6449446026171035 13.416543155091995 1.1437241309497785 -0.7014437364763274 -1.7021291710336557
Ni 4.231822636153673 7.7633040741308195 0.19779337740555045 -0.26607292463851595 1.4289761996199069 -0.12782342210459277
Ni 0.2395849790159463 7.655896794789572 3.6950762781453266 0.6024673205104141 -1.0057121983479582 -1.3387731589712493
Ni 4.651012219616967 2.556672529695865 4.966402344849652 1.149617099395446 1.0548210400594673 -1.9095421199371176
Ni 9.376895326183423 6.284432078804317 10.973485848405726 -0.5150217880022356 -0.5978182517741769 -0.48207155832846016
Ni 0.9366204797254702 4.4185815284823615 12.476491480386013 -0.7447963924303496 -0.17913569922532374 -0.19632352385851998
Ni 3.1788799055716135 5.829573313167547 5.243688636146745 0.2077531058517003 1.0186376481603747 -0.012173916358372583
Ni 5.055393096485954 3.3301927224175105 10.467880536361136 0.6940541288804756 -0.5454235402225446 0.4710302129126339
Ni 7.297048275044822 7.907830729135007 11.795126435863569 0.25430164303520075 -1.2224094007668238 -1.7767343572440562
Ni 8.624021798462376 3.170624958016219 0.8065994780607396 0.49885212022090863 0.2148262106483978 -0.1561495227427956
Ni 9.38925915529229 8.768994666847936 12.094957658254518 -0.4398288476091651 1.0567707075866704 0.05797657651478402
Ni 6.509286438567698 3.240113396052901 13.230197939752289 -0.5182019855024301 0.1166316671538314 -0.913626081743975
Ni 5.263802633923329 6.127420745233807 1.8362117560754867 -1.7146797540051566 0.8937987626054027 1.255307179936109
Ni 6.862687436614857 1.1875876184112646 11.15110945136202 1.1810501210937465 1.6579406494418996 0.7751580354413424
Ni 0.4420440750904748 4.707541877369618 2.631497865696007 1.6802855927960028 -1.5639478027335065 -0.8010076495145947
P 7.382014739747869 6.557347338186379 9.975486858850024 0.2862044052810684 0.9625732010666391 -0.5027650821220697
P 7.6416365588098705 1.6664954260816007 5.960306397020051 1.191706058145696 2.859451866603475 1.3134930442482218
P 7.387769033145154 4.986601866857666 6.382929964297491 0.6737989781758654 -1.695182050291861 -1.6343847164988303
P 8.7123999363105 1.8636659639756517 12.521063549129087 0.607385840857954 0.5753457817032737 -0.6965473276159746
P 4.925805293645639 7.359973657930481 4.023792380090464 -0.3637581325968316 -0.5163785591404462 -0.06340083285414888
P 7.6917611953174 8.252958187402548 2.3372182814583047 1.249078682527894 0.023126301604818236 -1.3584809218128218
P 2.60913049034349 9.097788856134814 1.648478631197468 -0.5194050046715958 -0.7373849304576269 -0.08024258700183601
P 1.0425031966803613 8.565084447672735 5.521206400635424 -0.02345206037535316 0.3096166135574216 -0.22096420522533558
Ni 9.193092597506327 3.378839277099244 10.555475011958226 -0.9436051446045685 -1.132343657026979 0.42349334367393515
Ni 5.673789066395811 8.892381962909592 10.057597557912285 -0.7161447901319279 0.531550124674562 0.45512434031565485
Ni 5.412540427714221 5.179152237032088 4.258112041206213 -0.03950371452157713 1.267543831211617 -0.2371361869995077
Ni 1.7585083437654911 4.990608491177909 6.945107696210447 -0.47332903624913963 0.5339633621017449 0.5738051766890311
Ni 3.711547129585245 4.5460405216490445 8.494985255070299 0.7735832347550547 0.7144866857032146 -0.5836627862094013
Ni 2.6481090884288156 8.169776576224992 4.141945965033104 0.08020504889568122 -0.20346142045488183 -1.407261947871267
Ni 2.791166957719318 4.188800229299658 10.522453362514225 -0.45070667086393346 -0.10072168079179428 2.9509327455232923
Ni 6.087001249771132 3.125259930909997 7.519544211165405 1.4648019510692645 -1.7403841007497962 0.24585788314322177
Ni 3.0627342808451505 0.9860014272640463 5.375325302096528 -1.069510523750842 0.8935763621819515 1.5966627764680243
Ni 7.58842561308118 0.351170860751507 -0.03508631594406021 -0.7616900828618947 -0.17202479921215535 0.5520040216535397
Ni 4.04407835594112 1.1573752540474895 0.81633157783072 0.1329913394587774 0.2968117484832694 -0.36730882606256743
Ni 4.455840345826981 3.7422614840030644 1.3529189723219528 1.0967822149826014 0.13431391492494288 -0.44943706012289053
Ni 8.697898001415888 3.0058978513928065 4.254438217699579 -0.3255489685169619 -0.45256840666302056 0.15926775665680312
Ni 6.4152004878828475 6.760783455643872 6.787429831401511 -0.7781371726743244 1.2416859896082486 -0.8383385247545692
Ni 3.880801442807168 7.726249771252664 11.268976716051613 0.11851242911631202 -0.08917614204603996 0.4455061004996005
Ni 4.653949791044337 0.19316391357380894 3.9525525545318945 -0.7226561088878845 -0.12340832375603263 -0.5640362702277254
Ni 1.7097595318505265 3.253323171363955 5.22602881196771 0.9899083985464822 -0.4295241232490474 0.23581566841587126
Ni 5.1039931706071275 5.485226728317408 12.811180334363067 -0.5359623948096446 -0.28804017293822654 0.04521721996658664
Ni 0.3971689530925515 8.329892811240887 1.2280796235484124 0.8724408657549168 3.2498767098582158 0.1687114185682062
Ni 8.16378988002491 8.451811321588858 6.885323469607409 0.5939729098861577 0.7798721530875601 1.9329039345915098
Ni 9.266252999827223 3.551328637336119 7.4733258009673085 -1.7892911108631442 0.858734829022734 0.3153828266172375
Ni 8.537168223000608 0.1686444882673804 4.805908687682012 -0.3794323487989788 1.2444116160695278 -0.7514542640664993
Ni 8.753284237378772 6.354264472989142 1.5878103443325853 -1.8283636513845738 0.5724697457070592 0.5938476971622031
Ni 4.15429306114017 1.0852002396104592 11.748512940900715 0.2805706040340587 -0.5488459356405323 -1.1222891010044542
P 3.263139865754154 6.609015129304492 7.428848552567776 1.7220922444191438 -1.2563980990074426 0.27922771685291914
P 7.216190691895248 3.1876182509568283 9.513827987203374 -0.4169424299292948 -1.1070501725675128 0.5732637023632643
P 0.8572484152913832 5.156479019591088 4.629441521072442 0.7809625579382615 0.43316660509764116 1.1731766318829409
P 3.3884607531350923 5.9103937118686725 0.6581814705264982 -0.5856754457640558 -2.4248873527170436 0.3496188649819721
P 8.189921251171546 5.210405765952399 13.36881412667571 0.15024267034005737 -0.23649418254013466 -0.34969496963554614
P 4.0661473260948435 2.8899939255812535 12.816609263836433 -0.12593366128104763 1.083082606008322 0.768202944279748
P 1.7580621303841186 7.459460649752364 11.540752272088755 -0.09745586555632894 0.5428154131757362 1.317676229091634
P 1.094626497291957 4.72936914860843 9.44662918157986 -1.3946707414698174 1.8962670000947668 -1.4144091004390091
Ni 8.918894474652818 6.582214438085796 5.80555401869274 0.6237460273835322 -0.846114312045246 0.3278866155112031
Ni 7.146776622755461 5.010148918837186 11.435660654274587 0.02082387872388672 -0.7187686009080201 -0.06470232527439179
Ni 7.010263216391758 4.776082111970883 1.6842891142750476 0.19244861428414597 -1.3384173182937273 0.11813139162780946
Ni 2.1582411645785133 3.845067187848907 0.7220708602381646 0.3699436925822532 0.5342297283892542 0.635638407945744
Ni 1.5990800210458789 0.031237725529720883 10.17368275791002 1.5144170429932304 0.44042637198384793 1.4105910122444996
Ni 2.203336604433489 6.828059418997916 9.576646464799746 0.18649933867924656 -1.3744081345660393 -0.6632412572646771
Ni 3.5820894723144976 8.66718364699807 8.87605613081862 -0.3366612763800395 0.07172015135312165 -0.9009302314438613
Ni 0.5833961078084376 1.4769384040072209 6.64742666455099 -0.01151982771414145 -1.2927797229602704 -0.1907743119055166
Ni 4.980977719029948 4.695735814987466 6.483979632565389 -0.18194900030440278 1.879088688543267 -0.5090786830449233
Ni 2.259633859383342 9.16131848630775 12.819683488111849 1.1139379008262817 -0.11006352701801045 0.8572484742851946
Ni 1.2066446482407225 0.9394093133590495 3.9969619413130104 0.8310633312493946 0.8645804891702337 -1.3851550886698982
Ni 7.17720279769781 7.75444487928815 4.313052063787724 -2.275680065620036 -1.0059351129920417 0.6960145950409561
Ni 3.1487047256562866 2.436966494030533 2.959342921936257 -0.8817102068719848 -1.2086426860000345 0.012206055147888657
Ni 3.9467480621292053 8.211023425665628 6.040702893008873 1.096961420872943 -0.6884414106793886 1.3661104133336215
Ni 9.16811394426157 6.408758282189279 8.336028245234761 -0.30366810928347054 -0.3220882636618711 0.6449494009340248
Ni 7.979169093481964 8.665677676835937 9.533434417258647 0.8916410928324515 -1.2872883608283958 0.3319918959288282
Ni 5.687630977330475 8.726632283953867 1.9405132043601385 -0.18986825515147945 0.4836324750576767 0.35708483434171406
Ni 4.81882563546154 1.168865248617836 7.6375471990918316 0.20384014395053926 -0.7924862423071448 -1.4160317236440967
Ni 8.532390021375074 1.030343882037956 2.232875000669149 0.26938296284835545 -0.3514885712008592 0.5962771325393021
Ni 2.9828620855794417 4.7375218389305935 3.2863308766397874 -0.22446424795879408 0.22548497591382458 -0.8393086019773223
Ni 1.8693272962518175 2.241822508576883 11.692457384865772 0.11947890679463939 -0.39481834433674584 0.0429523351918099
Ni 7.978165113373875 5.596398933063987 3.827746671761957 -0.973782182408581 -0.8576092000587231 0.7980652790568191
Ni 5.075825950907977 6.808695617468763 9.091966701119112 0.06868676384343654 -1.6511369962565048 -1.1077988778080792
Ni 1.6114531462668589 7.8906050333916 7.3949558574188865 -1.157365375882297 0.95912432328609 0.5246071176978255
P 5.901367187007987 3.501659510322073 3.16528062316307 0.3337813837290832 -1.9776352160606132 -1.0051424418874173
P 5.633992410444635 8.95843083946486 12.488981736619603 -0.38674276641746297 0.07110540058725819 0.5927133264474438
P 0.4356213912323419 0.24705998276514984 8.563844346317003 -1.050899079297242 0.6511835547691947 -1.9214550693246195
P 3.9151040965001926 1.4275667525807567 9.447105142519991 -1.0317939830366745 1.0260845913567231 2.4144661573837194
P 4.370409075518337 5.595004516247197 10.680920467241464 0.45965642385805355 -0.332183443114344 0.8138757637265145
P 5.993175590225415 8.485993125824429 7.9985635721810855 0.5411210561924487 1.58974753740543 -1.1126063264990516
P 0.7957630001718621 2.5582156843064454 2.5122696501932276 1.1207888623098439 0.06371862120488381 -0.5170249344751934
P 3.7461379627537394 2.944506327005616 6.722203660768149 -1.9114215963480174 0.12259559804675016 1.9726580745609963
