# total energy = -340858.46660959866 ev
CRYSTAL
PRIMVEC
9.40696234271972 0.00000000000000 0.00000000000000
0.00000000000000 9.40696234271972 0.00000000000000
0.00000000000000 0.00000000000000 13.76804025889841
PRIMCOORD
 96 1
Ni 7.665328864443402 3.6681037418304534 7.379311124409855 -0.14198197299316193 0.8315253584874776 -0.0705929797272139
Ni 2.5782507480917305 6.009346081404307 2.7406798208854326 1.132563743457585 -0.16602461576466246 0.27060989327692103
Ni 8.090203711798766 5.623717079666588 11.834484091507248 -0.6548756589088012 -1.550926193662858 0.7768243674001718
Ni 5.765301265282883 8.5888385484849 11.308998963079398 -1.5907417829978991 -0.40730464972921465 -2.614939698854871
Ni 5.494926362420379 8.373494373537836 5.060443244040598 0.2513885831534638 -0.09979711209499587 0.8494490328454338
Ni 6.211830939247026 6.297161491883091 4.080406184423598 1.0252600385728987 0.3542388802524867 0.7344513017505997
Ni 3.4655436282914405 3.2290902305337363 11.032798328627486 0.13324639289237697 0.0677357127840769 0.003028759523994784
Ni 3.76499545080978 6.059043061844868 5.021052531207585 0.4820571601507569 0.6466208750991767 -0.009817500311054059
Ni 6.665763892334152 1.38777148144506 0.2544282208176745 -0.44101926837284045 -1.631292707837068 0.34244085917629413
Ni 3.243266522323236 8.482445807848375 1.6322424329467524 -0.9036800262748567 -0.6326083628701685 -0.5004310346722542
Ni 7.970669445196795 7.069096796625181 0.21445145424976736 0.1387701509240836 3.2358305161777947 -2.2642689955696165
Ni 4.6906217013095635 5.72809673042723 8.20482942560992 0.9331502678198317 -1.430805796629478 -1.1679506075973112
Ni 5.050870719471921 4.7520491634100495 2.8645234167964744 -0.8736472273581921 -0.4950975382744828 -0.5156702202195118
Ni 0.5133031125901575 6.683016260709694 3.7618967975148494 -0.7630034023566794 -0.2318266018611362 0.2563752377347778
Ni 2.674935503906247 5.579476137207387 11.318264820685673 -0.04740728563936997 0.9010189345029257 0.619082817579908
Ni 0.34572843156231053 7.795464777260877 7.276822273018617 1.484241804961431 -1.3836792754553202 1.2726253594995824
Ni 2.6489722886846017 1.393895413731035 2.0957573175645914 0.3818373586960456 1.314259232990285 -0.0875558328337976
Ni 0.6609152794796522 2.7896063711351777 1.1356442035415937 1.9942651113078107 -0.6948036054519904 0.04507812328556107
Ni 0.40339781232908345 6.8684933311898275 11.020145964687954 -1.0015719509273397 0.8303315952896926 1.307257347751155
Ni 1.264145186357069 9.0359702680194 9.732613189314923 0.21253895727611782 -2.0135540414444097 0.08182638654918811
Ni 7.8911900229476375 3.106555143042017 0.9022800521167839 -1.439950182132907 1.0441944135835566 1.2330293423745151
Ni 5.795121334939627 7.569763537111268 8.62337809099552 -0.7152065945883747 2.6102944867733755 1.3317152236832033
Ni 5.501191399136905 2.338533134507247 12.28124329534509 -1.1518812128392744 -0.7201384846723533 -0.6059527079558532
Ni 8.414282960929523 6.5493057023182235 5.6814231475853045 -0.9453254697297847 -0.20860696921156335 0.0035496650244713056
P 3.0545816777885433 3.7376494121687216 2.1047475511831877 -0.10196635183217279 0.04789939478444009 -0.45027189731936
P 7.700002926511149 7.729503159458641 11.819077369083333 1.0741017426659503 -0.12497849645662992 -0.6459755282056939
P 2.817460385726225 0.35349764150852664 8.31526245644126 0.16340646141552503 -1.2652347234624661 -0.17613779293926438
P 1.3788442744721106 0.0868272002961244 0.7791654957635963 0.4552660080998417 0.39300983037309734 -1.0446757240953493
P 2.382520088991454 7.668865882169249 4.292820090696189 1.0114758403046127 -0.18044336229315375 0.5377986766874352
P 4.185750048793015 6.994574843369431 10.387476970116284 1.1730195374797863 -1.032970519843279 -1.4441997014378805
P 3.6176353905028726 6.814958310238241 13.934770861292572 -0.5025416532573539 -0.37282255679194504 -0.1012011915313741
P 0.9924909366575554 6.806228649468065 9.15830686861214 -0.9467298062764792 -0.1400356479000685 -1.297927585709797
Ni 6.572935990954735 2.7118013881285745 3.4858335047086744 -0.20523548163616914 1.7756280115537548 -0.17830754689707357
Ni 0.9518904885066065 4.166700950668438 2.931587530549427 0.10126983998578044 0.33510653029841 0.4238610114259991
Ni 5.0431099757915385 2.6181174532038063 1.4158917130617494 -0.7000823373524265 0.05922973219559476 0.013017752415906615
Ni 0.6914841433145278 2.986766888465052 8.13349737318086 0.5652287478739297 -1.1037342208204024 1.2080618737959001
Ni 2.7117637602804274 2.8456060161404135 13.116329417632812 -0.34264474765698405 -1.0222235657394203 1.0863803029229873
Ni 7.498242404745266 9.081490557315608 6.405304868154667 -1.0112788938024582 0.699425163384402 2.155593350038068
Ni 3.2535483318294887 8.018343928799439 11.931094532321675 0.43766115053388494 0.7184240730844078 0.7079098038166453
Ni 8.869786876676798 1.8693232750723128 6.657425561184708 -1.2943195566435644 -1.2550778375341223 -1.8522042054475971
Ni 3.410757481388955 8.58874447886453 6.407329246384992 -1.1212678588287914 -0.1192732185417365 -0.8485242070383192
Ni 3.8074020356718 0.4367586624964896 13.653228013099945 0.2851345692556573 0.9679002697065072 -0.8174609099746114
Ni 2.9405034491679323 4.555631796081085 9.064079211281642 -1.4451690073296855 -0.8985571032259945 -0.9333140470912056
Ni 0.654480917446462 8.669277480861814 5.386401063490107 0.6876659659659448 1.18406833909478 -1.4666143216876546
Ni 6.91047660276019 2.7865585154352455 9.761595098654185 -0.4127641301818892 -0.021004627276125114 -0.22794963540423321
Ni 8.826232642446286 0.20132968290459624 8.313376360552876 -0.20513109484782094 1.6402239488884267 1.328343736107809
Ni 4.716039312733072 3.683963879824545 5.153487505546861 -1.1305371999458593 -0.13059815663625252 0.07730690141227976
Ni 0.859295879785703 7.510621966785731 1.546233638347832 -0.9548434365225489 -1.7926515426949448 -1.6149168375822058
Ni 0.8907584050140772 4.248024137476815 10.561959183367774 -0.9787598381288306 -0.774463323367163 0.20234221924877407
Ni 1.9049944751159638 1.7910103161157211 9.929400250251934 2.5087618800445117 1.7211743605905647 -1.0630017760980468
Ni 6.489928957941767 8.603504002300314 13.312014923315314 -1.8937570891887192 1.0016102603644428 2.8484850831793267
Ni 1.2346825812577242 8.996536283161017 3.0601261412130496 -0.24012792263798002 2.5314955741966014 1.1598752867883444
Ni 7.916767552725772 7.110280476422414 2.4146937805498125 -0.6430966639960022 0.5684192297867695 1.5088310642650207
Ni 5.048923478330298 1.272827812317061 10.060017799525696 -0.8515542521138948 0.059926501152303246 -0.8513629620386951
Ni 7.100497235904112 0.5632371484740469 3.59151696040762 -0.4950826258761473 -2.123347859740801 -0.27409450939141183
Ni 6.659066135363931 5.504220440912764 9.838076522102208 -0.10159791274916051 -0.324335407824835 -0.7634631156019175
P 4.949369599094549 3.750348810918439 9.641097559139643 0.4960097656761071 0.8716397100098602 1.2495656494666414
P 3.088446741121124 4.893887337001338 6.793453995022053 1.3593180730021364 -0.23243183954530294 0.9107757567793735
P 6.310858028608712 2.4534203618630253 5.894414641326956 1.0631069342173434 -0.5926855585333018 -0.2558581888890432
P 8.648996070710414 1.7926753483962394 3.0103266248862868 1.3713163830145931 2.5486990825590814 1.3227582716002315
P 6.7019242544037185 0.28085143648292016 8.73952491056803 -0.48106522855113276 -0.37458247690584523 -0.02114938038410551
P 9.40460088935657 3.8466666952135187 5.83654771435741 -0.4466772379895662 0.3094433212043509 -0.1677634528326401
P 6.4852631047715 3.934537127599528 13.149676157357163 -0.39786381603128895 1.5144365833772564 0.5178641425470372
P 3.373430656026822 0.9022932218636356 11.50765800946174 1.9614920306418475 0.7696767006117969 0.13245295045680414
Ni 8.110579191570535 7.3604586317918494 8.754367215269735 -0.2948908773114728 -0.8012524185355491 0.8319976701382059
Ni 1.4607789138128808 0.3916710934539739 12.203824938478201 0.7206845869838104 -0.1412193837955245 0.787677765174908
Ni 5.059750891634687 5.2260283525976545 11.628858249040432 0.2930651369566436 -0.3750856417945089 0.2959635415503612
Ni 8.737619060059368 5.307210434975479 0.743153763694212 1.725741411135957 -3.1623190772522056 1.5839299022823883
Ni 0.6847638096354182 5.122805758167543 7.770406511787176 -1.7628804820800992 0.46318346317470555 3.807952391627132
Ni 3.4194024795008 2.106190579159637 7.3181395316767714 -0.7929107314390731 2.1533837439812595 -0.21849517485955272
Ni 4.849599359731953 0.9509027574927394 3.4351262165453575 -1.2460427239150478 -0.6064795269936006 -0.3816427261867363
Ni 1.28288385473443 5.803549972924625 5.962621700967383 0.5548636025895218 4.029137968834655 -2.6800598283929715
Ni 5.198776383576965 3.2645921052607245 7.6377928051692 1.5092007888996135 1.2116840439295196 -0.4526529959570269
Ni 8.795152039876607 0.7905610895750095 1.268227807881052 -0.31349666533811815 -2.1028052597027593 -1.2021383092226134
Ni 1.6736772786303677 5.233111795011386 0.7374409156492464 0.2878838498660203 -0.884570044918283 -1.1811318821742756
Ni 5.804500076090345 5.903593014186289 0.29943394929046985 1.7450179999773816 0.9957648573272592 0.2925300903887801
Ni 1.0388108177268955 2.0285361075456234 4.347396462345253 -0.2402114834907218 -0.731786867544559 -0.4280061439426242
Ni 7.141624473929124 4.46475113584329 5.09427067952503 1.227392198693396 -0.3979005828064953 0.2816507244721149
Ni 4.646343131002214 7.501817050319262 2.972203029839635 0.2614397967418788 -0.1434665279584884 0.41599677818657393
Ni 2.829435448399107 7.128642866318301 8.344451318945335 0.851136704960502 1.0126865727832621 -0.18908226891507435
Ni 1.392305637146811 7.192798347409467 13.033266883543826 0.1199368202676644 0.19042901275095592 0.8789071902055509
Ni 1.615805648179803 1.1761430565025448 6.613546786763924 -1.0111840200958069 -1.7681939238732127 -0.8635384210589644
Ni 8.699812479633357 0.1833144099078673 12.655692122702039 -0.7853398610703507 -0.611768543306682 0.6618742017138214
Ni 2.044584384780452 4.041277925831413 5.0743758955133424 1.941095726373683 -2.3836206327577725 -1.0356359824905843
Ni 7.502108666142403 0.7397935968546571 10.722219010715783 -0.20252811000733506 -0.4244413094095013 -0.289344750682263
Ni 4.0577965511680825 4.603108733480954 0.19712383017793053 -1.1844442343769601 -0.7791381031350131 0.06594648209413805
Ni 5.078461339125937 0.623622319180852 7.155333239705393 2.0054393827570753 -0.37721965741837615 0.30563628875343496
Ni 8.093571404207951 2.7052447355889058 12.23057645711853 1.0420956220729989 0.1517642491909064 -0.41109702689211136
P 0.12915382598083114 1.3792111459915466 10.679593243638307 -2.490837691465923 -0.5898786852121259 1.0664887062053827
P 8.35204650009387 4.253922302673906 9.35607131290478 1.6536201676896747 0.8621464258074442 0.5380892113446604
P 8.070289173166802 8.462662966684928 4.603289347152061 1.3009200926792175 -2.3711083592233746 -2.3408446752428267
P 6.147148668281798 8.763337694268055 1.9277047628652735 0.03479936706737233 0.18561153675765454 -0.6303095395336629
P 0.7201622077800011 3.660860381062096 12.9707049418217 -0.667693893719392 1.3819923746712004 -0.8588258460746434
P 7.379103230548842 4.904206774355738 2.7283162506804297 -0.2340259235053002 -0.047187199208763894 0.0303475019436058
P 6.5711016333575545 6.96139648826554 6.792779515844011 -0.2744117835215145 -0.38209986832881293 -1.024704680290061
P 3.4169002275990037 1.6064457209531595 5.00952900271247 -1.0826023239377938 0.43819028356447765 0.15750757943258678
