# total energy = -340857.74866743997 ev
CRYSTAL
PRIMVEC
9.33587909669639 0.00000000000000 0.00000000000000

0.00000000000000 9.33587909669639 0.00000000000000

0.00000000000000 0.00000000000000 13.66400274313646

PRIMCOORD
 96 1
Ni 9.444082090468356 0.1388039855125747 1.6145385551969833 -1.1412401881856604 -1.7406550950229958 1.3584284713083314
Ni 3.8759116370516855 4.348335134737478 8.000929739366313 -0.7861870395619944 -1.8711869171976871 0.5897719844309327
Ni 0.5224423379433096 1.7367442809910516 3.335847827024074 -0.05063067767267409 0.1969033076213899 0.2632179716882241
Ni 4.144299493729573 4.850493407834396 10.468116013638113 2.4663805868648234 1.5029404098121988 -0.13589720025166274
Ni 6.610661409863601 8.29729069104086 2.47304827285285 0.5496805157266856 -1.9057566847527565 -1.1237073215082196
Ni 6.396571026903488 1.44279478692677 6.562697396628999 0.5093879867552259 0.2232655996650026 -1.5573693781850406
Ni 3.1942337418572606 0.04642826109798257 10.98975266520215 -0.9519149500218443 -0.4147449080573438 -0.38463086228078275
Ni 2.405716044526279 6.199976081657803 9.68866625582262 1.2390189842990467 -0.24852283156989455 -0.18205030176895742
Ni 3.133345137389013 0.9722011215739705 5.943895714595139 0.9654559219310729 1.3974290209412448 2.7167304443411275
Ni 7.36112606337174 6.707371783013949 10.5312022840818 0.7787125855618202 0.7643383191180192 -1.228634555740929
Ni 6.015853871090066 4.973783029209385 1.339753754057022 -0.7288678941255512 0.07587505406175965 -0.5749323483149388
Ni 0.6670214983599103 4.576093244919533 6.239215715733315 -1.1966338344646166 1.5856006051165918 -2.4674938745336603
Ni 2.610815975768679 3.3991282837561614 6.032425056758748 2.2659376415212913 0.6848287536274658 -1.490410395665988
Ni 8.150708050937219 -0.23158115273491517 4.289663801591096 0.9448598429472761 1.646868450788138 -0.9936151579741082
Ni 7.791239356296707 8.713092081075636 6.584928925886932 0.05658638103547674 0.16554690479729556 0.6768339083474474
Ni 5.799177449577714 5.895906494486563 11.920845109674767 -2.1568130813777824 0.2869204575114865 1.4425320839274705
Ni 1.3575208658576234 7.080368166687653 3.954239663958861 -0.1287806438115395 1.476647537553941 -0.09006702929142553
Ni 8.059888617593593 6.072130551208833 0.9746966020974852 -1.1195344210774525 -2.2721244870582935 -3.6981837701417213
Ni 7.208316391808374 0.953492019557048 2.4505432023328932 1.235564192981227 4.137669375478855 1.1899165703454408
Ni 0.3424120432508308 6.999015314903491 9.305267835488607 0.3224433330084447 -1.3849388588940343 -0.5047913685234791
Ni 6.0611142136938785 3.6792513406512506 7.641593614211153 -1.4805183333632568 0.6030347629781099 0.16563226542225024
Ni 5.325129508902428 2.050579197857751 12.12031177137774 0.7612062012469406 -0.6993482873998794 -0.15907929479508087
Ni 1.122639479807847 4.683623902120588 8.319095570617069 0.6089639839783513 -0.3758214915192689 2.4706437330165514
Ni 1.1335344508925518 6.43705139933132 12.71144470807849 -0.9678624744900364 -0.3053871488571063 -0.23185514110622651
P 8.733416290202802 7.331064532186865 2.2091687122647685 1.8549493722929022 3.7272344076507746 4.182913334918318
P 0.713214495300794 5.393094709842147 10.889636563301414 -0.36789066670796644 0.041612533334463825 -0.9590222504905871
P 2.6854469944928696 3.721841621789574 9.786760206277812 -2.236301049601781 -1.7741318866242026 -0.5481823339146044
P 8.697949284932198 1.3917742068257313 6.154472072605566 0.7615237324873594 -0.4766326467010759 -0.8557490069215327
P 0.540207582568061 3.892193410463618 4.2412105882837965 -0.6780374417372451 -1.004719495417386 -0.846702323338232
P 4.374456924878869 8.553803309312796 6.856460173108282 1.0895481591280074 -0.6985702715832743 -0.6391739319028282
P 3.0488087507806134 6.711834333295432 2.6034434319249846 0.7922934095700483 -0.033432311516516613 -0.26731271058288797
P 0.8127349681053814 9.345868640758763 8.56276575339276 -0.4614819071025665 -0.22975480693377204 0.5104210560054306
Ni 5.201261063013942 6.250847287690842 8.242372381352963 0.4774949947013712 0.6979187540422045 0.23903211847063996
Ni 4.988608405458324 2.908761226151944 5.147817822247538 -0.3190101389571796 -0.4313658044434765 1.619869296491475
Ni 7.1279531432247065 4.881497862823517 5.321801267949818 0.5278973584133231 1.3998453436922214 0.89122611678222
Ni 0.9365380628391183 8.880568418940692 6.203621742504913 -0.6591223500002971 -0.22573848668552737 0.7309934251089862
Ni 3.7016574508511577 7.072610051030936 5.159008740704468 0.6360970927497174 0.5116508146474736 -1.286382818294991
Ni 5.401637039355862 9.332565012827569 10.561645652728 -0.6213374179420396 -0.8791092789140279 1.6542922540560347
Ni 7.8677562226293905 2.639365094515061 4.465915865951115 0.5122691649577629 -0.8233417942354206 0.9404804829326577
Ni 0.976645000096952 1.8264900882209298 0.30593582943330694 1.1129230864085222 3.0122759245174637 -0.04644877838084258
Ni 7.989150660516637 8.307793555197065 8.838109773699793 -0.7492433724581097 2.3221242160151876 0.5959464886727607
Ni 6.215865748141236 3.9031257250653226 3.4739497544170512 -1.7184919286623952 0.2597762929965268 -1.869207424873813
Ni 3.7050370391396434 1.426671723462087 3.5535838708312966 -0.6420512534506232 0.719300047931458 -0.775091186759149
Ni 7.229107394898038 1.727277699431591 0.19900360209217519 0.06667950360542065 -0.7552255581834735 0.6352501713683898
Ni 6.473013206202171 3.931282736883206 10.75186232527011 -1.338916883637965 -0.26704017364779176 -0.6790355439844564
Ni 1.2260903577766682 3.3040796971123054 11.644081102133814 -0.6562895085371923 1.387489650340346 0.02894959315481466
Ni 8.430821771953056 1.5869407625461724 8.29279266441823 -0.8383647500068142 -2.548613979044443 0.6709044302368897
Ni 8.149288997291224 2.646030912299533 11.902166816059369 0.24546758968333854 -2.9501662996709124 0.8016308849208904
Ni 5.214508675669637 0.5496844335946967 1.387538518410024 0.5010157035311307 -0.7431729978943137 1.8313345610874396
Ni 4.4079540596277305 8.532424145830385 3.477460978602962 0.7464272431655531 -0.3383000975350432 0.16786192608371736
Ni 1.5529861697140632 9.092240809175065 13.275043336107329 2.362017709776016 -1.9961422737258652 -1.4346082010947037
Ni 0.28422991017714694 1.1504510640934817 10.618405931391914 0.44118381897516273 2.2842572657660853 -0.4355980973572691
Ni 8.10419670051391 4.80122797303235 12.066353190076738 1.715072361457885 0.9788295150245013 0.6329855437039292
Ni 2.2169819096090615 1.553266246091562 9.304707682733609 0.6805339829068537 0.26255385574166396 0.11240528777730964
Ni 4.782481527498428 2.662891510224963 0.8732893480964805 -0.6351347288364481 1.2026430167731739 0.8783698296448421
Ni -0.01065970692760582 4.023913330801322 0.8364471678123582 0.3889084066102141 -0.17409042349193243 -0.37061680738987784
P 3.9421777079679106 3.6909118538344523 3.452797452800414 0.4759258504420384 -0.5961807161707539 -1.0117314079588446
P 4.7907064371176435 7.267113759324629 10.178520773656013 -0.56331738978383 -0.5501428000750848 0.2972537211166945
P 2.1474856244723495 4.604577012511165 13.551985658941955 -1.1770523127882633 -1.7169893759749397 0.2415011488364228
P 8.984486090872013 0.46756043818448706 13.228613207833495 -3.03510217838336 -0.07000651109612459 -2.438319052741917
P 7.609236390318712 6.689642948318273 12.717675473889914 0.0025831873461439384 2.958581006097169 -0.45146566051714504
P 2.2967289901622308 9.176534462922966 4.566973958068171 -0.5993647703256904 -1.7449552650602465 -3.073782111452061
P 6.7388150243278195 1.8343135550323972 10.340015613685617 0.8128632633016001 -0.8986730599785685 -0.9340349844176302
P 4.364962335681659 1.8932976401336528 7.564214112635773 0.15308502488485892 0.9660624451668202 -1.2530831757015968
Ni 3.110210828607609 7.218996637670329 11.707017064921576 0.8318696292007738 -0.13730487923246676 0.2583534445070712
Ni 8.666291318395581 7.101355223241566 4.903750864603725 -0.6579180452795508 -2.5765911809836592 1.5896943155699912
Ni 2.87831692391782 5.863772398108196 6.722566860081187 -1.879968520045059 0.15857870100957852 1.0962641376956024
Ni 1.189661756943319 2.4470926613621073 7.282189337137467 -1.9512590400599297 -1.4742150168530483 0.8618052404179417
Ni 4.122304162216664 4.251690112741878 12.644805201992266 -0.07059066573436874 -0.5279940318921874 0.7730687570124815
Ni 4.638905040513273 2.3088936408249303 9.601544764249905 -0.36516915401174527 0.6425374490584225 0.8622865509297344
Ni 8.901975590060854 3.196455681118752 9.713480089281092 -0.1751605166276596 2.520630863567956 0.17820573121188663
Ni 3.033899351618425 2.061259443719707 11.962602630383993 -0.19984002165221065 -0.29243084580675444 0.5355515325244712
Ni 8.233862727416623 5.3091558195057456 3.065546115099944 0.43753645203056263 -0.5648610801218659 1.7146967232860209
Ni 4.136746767416354 9.273674286518814 13.337692687402118 -3.2839299427881827 0.1883227650412305 -1.6860572051724574
Ni 6.103872540658701 7.586354150277057 5.3803101567972496 -0.3294475322404197 0.30575713060201537 0.4571922785882772
Ni 7.536911333769261 9.371262232318658 11.431318281203046 0.9498860925172739 0.5404983350067852 0.08463120298783489
Ni 2.310695465520173 4.965446089039169 3.8093328141805864 0.4519423430432475 0.4921477116175395 0.15889263270557152
Ni 5.7689198649285895 6.463994746846709 3.275274775274475 -0.7375037154236783 -2.252799047256804 0.5334622540956102
Ni 1.9891771200307555 3.1342787253140094 2.032397573018451 0.6863804143853017 1.5690923230489235 0.8601111405449702
Ni 0.2648915698987771 8.459408234216438 10.963271443709635 0.9549331680228781 -3.005985977743694 2.0062443951568736
Ni 3.3900538091251993 6.262946587198791 0.34706971340863646 0.4419659485568259 0.7678118794889165 0.02529399868009838
Ni 7.874169971674114 6.218339756142477 7.65294884414288 0.17101024190471192 0.7547321634868228 -2.182939860371821
Ni 6.110939801250922 8.503893698842504 12.992594711691074 1.199587774886618 -1.4830989496062392 0.889834378641016
Ni 2.317604016165144 8.841871199449603 2.3549503339287643 0.25587232995643033 1.8935025499757518 0.001089119299120705
Ni 1.32459321974301 7.182017219961232 1.1661530794039916 -0.9651129367693574 -0.5009833076312985 1.1485202667868413
Ni 5.98100303384996 0.42572356250163546 8.507044558089365 0.08893831500362101 -0.24198451623074455 -0.6563956950977534
Ni 3.0205677160494804 8.346369408257907 8.503983323283304 -0.3628757299918783 -0.21916674700528063 0.4118891837761035
Ni 8.037090400465189 3.363866667829058 6.84360186661731 2.077343110875913 0.3224410190155995 -0.10219415157226272
P 6.136212026380567 0.4702603744635759 4.476273090391022 -0.9089407604531637 0.031104948934920627 -0.44541662610958777
P 5.244850283232012 7.063199484746975 1.0313233776881254 1.2786476544342624 0.8365559789328496 0.408541093239477
P 7.901159998585752 3.193673589102263 2.338088802415409 0.5383733182439824 -0.8318117793796448 -1.1717491554077948
P 0.6100763692868464 6.6753310454280825 7.17039031594333 0.9944139997263196 -0.009468344501751434 -1.4718909967055618
P 7.150629993922863 4.97505270878738 9.03178258874024 -0.6206941279310858 -1.151595049057423 0.8793797589665951
P 3.023751250873717 1.4558743537559657 1.3611627923530332 -0.0475641229322084 -1.788820341874313 -0.9519859124690959
P 6.266354183125028 3.6167382931935097 13.328251312716631 0.8894471705049262 1.0757001975013216 -1.3446514721288971
P 5.07141765440548 5.20415518558143 5.58281097925646 -0.7476395183060995 0.6246564550129435 0.7392098994815076
