# total energy = -381174.15695367585 ev
CRYSTAL
PRIMVEC
9.20090289772241 0.00000000000000 0.00000000000000

0.00000000000000 9.20090289772241 0.00000000000000

0.00000000000000 0.00000000000000 13.46645143233360

PRIMCOORD
 96 1
Ni 1.6199293976802758 8.652658066988327 2.398765601227665 -0.7133420305758101 -1.2302252972668166 0.4839518060703084
Ni 2.3541338605779654 4.662898068079392 13.120202560920275 0.49193868093052695 -0.7454160282922195 -0.19608878213989456
Ni 4.684906628241444 4.673341093072674 4.09679042405153 -0.11575414964488452 0.08300832267243125 -0.5216063831982888
Ni 7.509160631578629 7.559968018374136 4.124383932381796 0.8147555952283065 -0.8777213974275657 -0.7491736955624387
Ni 6.19644938766546 1.6659983193907253 2.8980342049372947 -0.5323086001071413 0.20296931130981175 -1.618643908724806
Ni 9.091311121221537 3.5201275040128386 10.104282705389217 -0.9805616672242596 0.8649658975341104 -0.46432143343389065
Ni 0.6422644388929628 6.64413772872105 3.2293495238651104 -0.5634909392472167 -1.410613895062635 -0.4424336322218638
Ni 4.356415986558508 8.340186197563808 12.5099701460023 -1.0266576902513738 -0.37557312295388867 0.1571530243066455
Ni 2.042922514875101 0.37700240316053696 8.041841394724912 -0.12647333583460155 0.808154287861705 1.871168919475558
Ni 8.69220354841663 1.6867003513157326 5.605571992461904 -0.26162800149328486 -0.6489132706777792 -1.2198915194409765
Ni 5.759976947461686 2.6608183619665606 10.415654146805636 0.2252767165577604 0.700898919716451 0.5677911092844673
Ni 5.631624349526641 3.3232925844698697 8.298068143634957 -2.0441974773618794 0.43400684161074937 -1.9621692592145301
Ni 0.4077619422398666 8.243319089960929 0.3997249534014249 1.0574273673340626 0.7337614747724266 -0.6113150007090311
Ni 0.5776575376614003 8.387423633965135 4.569679118546855 -0.9128997451009117 1.7571098981449096 1.0331091023036725
Ni 8.361753114378127 8.5433053339089 11.988495162714445 -0.9859612409732762 -1.185485274046965 -0.5896678547529005
Ni 5.5997432203621305 7.94208152319438 9.498776794382298 -0.38995433137622515 0.15829382277930804 0.40373621565166595
Ni 2.904393869144657 6.169637956096807 3.715677057395841 -1.5935455709952815 -1.079063714656916 0.17984429525657414
Ni 1.4742054947343806 3.3828132264800352 6.032203146733684 0.4089113320947022 0.7439967793471897 -0.24152326032360985
Ni 1.3258225307990066 8.003911591877069 9.888482884422327 0.6560696792169023 0.32235694394222547 0.016896261534706383
Ni 0.21466810988832372 4.543497948839029 4.321343984206623 -0.3067583181730201 -0.2862838523687521 0.05612898178308398
Ni 4.8558410056204595 7.398712991032946 4.071110703561444 1.9412849595663533 1.0587144615766024 0.3058748871268022
Ni 2.2415240078090037 0.23615497884586564 11.591907717262544 0.3140268268099753 0.45245090724854975 -0.2623383972967482
Ni 8.114460442356608 3.8745554914720395 6.481322228217868 0.3497121960267267 0.09279548396618212 0.5448697246016034
Ni 3.831154831654147 5.006680610677601 1.8515694933858744 0.09907000412098423 -0.9989026316252925 -1.2413273207172495
P 3.6042237581437564 4.651700569033732 7.311435064617731 0.03576507341475131 -0.2697372608639806 0.43432540129243263
Ni 3.5718917847284337 4.583972721478187 9.612353662064736 0.817314099984102 -0.5364383060047988 -0.4154043960182136
P 5.927598999732699 3.1308096920826918 1.1874335877867186 0.1942887528166783 0.8444736911180295 0.6027858801920973
Ni 2.6813455767330905 0.19243412760086598 0.5882036127691528 0.5043951615263248 0.6752588505508436 -1.387463939308733
P 0.20708840593284775 2.0293419819322964 7.48058722707058 0.6899730168325665 -0.7334539708343369 1.3072036116950843
P 2.7999452174056874 2.526393168000181 0.4471188051550748 -0.1779699610519967 -0.5025025724893023 -0.2836173612801825
P 7.746681944531545 1.99458097010444 11.081597109769268 1.0548896885138734 -0.5417594611073959 -1.3840101764321777
Ni 2.034494487655854 6.641920311079304 1.1251959190976843 -1.4406191831754738 -0.9325781973664455 1.1259012438357447
Ni 7.49240578707399 7.068943423822198 8.269034693973019 0.8055243064380258 1.017658314966241 0.10032187425021431
Ni 0.10068824265108066 1.307199902969578 12.490227768268303 0.3841744914696545 1.5458436369336281 -2.077261349795384
Ni 0.48109590004070435 1.2511295996135805 10.02955757104302 0.645231708061134 -0.29180863884172326 -0.5103729763763145
Ni 5.376722530659797 6.239914453804898 7.952519027645814 -1.4198387560950125 -1.2657078064441427 0.18887169556616504
Ni 6.310420974089934 8.591554869648784 2.4323912216157235 -0.5475439289996571 -0.44117996232042084 -1.4594424865295639
Ni 2.2101673301199263 6.289838553904937 8.405059004894317 1.024846605184564 -0.05410938024989391 -1.0827946424542578
Ni 0.17885083438713792 4.142725012577044 12.297078730498294 2.2953142949111953 -1.7558446582792406 0.1222083899106605
Ni 6.878898770750632 0.41784613201311455 4.719318005752346 0.10202651564614687 0.15647322463080152 -0.03473226127486276
Ni 4.485283835065908 0.3011381970133094 5.509313984642775 0.17306249644805033 0.7004865147693807 -1.2135984873434131
Ni 2.690896114127827 7.85816008622194 5.312272964870865 -0.5757648715185633 2.440133480242836 -0.18290982155577531
Ni 8.121140297991076 7.114837528374169 1.6039888330980203 -0.9022888023542848 -0.7962973885231188 -0.23707936561964332
Ni 6.242012259706632 1.9733176830916879 6.32900311794582 -0.05927832604534307 0.47444129547671193 1.1123792980899099
Ni 3.7021857732128907 6.847698508413876 10.66681671866167 0.4117148629817683 -0.2100485867540963 -0.7945487812631284
Ni 8.21735414147543 6.385224316112293 6.0596880844076315 -0.15603793686559578 -0.5423783256383176 -0.07250433781731384
Ni 6.453918258491005 2.253153949299319 12.740583420924416 0.2673114250313074 1.5489413020223453 0.3434353618790795
Ni 5.92005425920892 5.840494050295347 2.488856243713758 0.3323899026981953 1.6483182958607867 -0.7726684362502693
Ni 6.001509854156515 7.681245121842367 6.06295992554209 1.3147986504335227 0.03693929622851057 1.3259060732005938
Ni 3.8565769268580556 2.083930939892771 7.17804957269914 -0.8549285679027663 0.7505142687507332 -0.7084415079503993
Ni 7.275439291596836 4.363381070188388 11.573391819908815 -1.6040256445909988 -0.3405701245161425 -1.1829673927211175
Ni 8.433612167415596 3.17882920524563 0.5785215024604039 -0.9703867835737868 -0.2102941271059991 0.766407285831906
Ni 4.903538487175676 4.479183636325339 12.56774077624707 -0.5904546123202541 0.15693319498635552 -0.48011906258777964
Ni 4.1879658530104935 1.9454849512814005 11.979499439775298 -1.9373863958428958 0.10436879062607833 0.829928446314003
Ni 7.6831681105856235 4.38849953559073 2.5390324485581286 -0.3624507266393177 -0.6505898870492538 0.27691886621408435
Ni 1.6752636287900506 5.395262350361525 10.692294939374353 -1.4177952433024226 -0.14327189544917907 -0.17706390429795957
P 6.9183246404389225 5.522888076953425 4.364302080586474 0.20028122295468734 -1.2429813113809045 1.0876722822615335
Ni 1.6715280621404716 3.677978197215249 2.1570965211672855 -0.14080209375244784 0.3318317162018801 -0.4804162821132242
P 5.505535173748731 5.290822899525634 10.38569140593284 -0.5785092670329198 0.3169871949898799 0.41078566629927965
Ni 7.7892269203632045 9.075145134513875 9.744405023037048 -0.24228996328630534 -0.9665476123333548 -0.6905427732931075
P 3.6245577539456524 8.975315336119952 9.818942458960459 -0.17530295574279486 0.3928928451792588 -0.5860832227254358
P 8.546820078884613 0.3991793398489125 2.6906375687513417 -0.4224530753348789 -1.4883920796843786 0.6339743899797597
P 2.593375742406426 3.703685520414569 4.1690110725799565 0.16527359653125084 0.18958054870773156 -0.3869075741301014
Ni 0.0545843575089357 5.494825322566193 8.12163070612512 0.15091064294135945 -0.010355375092395069 0.24719999899341297
Ni 6.358532496283651 6.8805641342077095 11.718654757610516 -0.2649789202433888 0.04288420095803582 0.17152266276475622
Ni 2.1096566648982464 7.065842719484986 12.356250658281812 -0.6987037118373451 0.6742633194067936 -0.22656123969713884
Ni 1.9813132678662797 2.8670658053581 11.056495205992466 0.12305274018882678 0.4838852144984311 0.8199818766242523
Ni 1.4008466944952327 6.108911995783451 5.84448080159895 -0.20953899410752946 -0.8366451962125461 0.41145235334900104
Ni 5.035534642729522 0.9495423985300755 0.6032986143585604 -0.4152853539418461 -0.07212715698355321 1.1529672468146015
Ni 8.604822571886945 6.113392835582331 12.395774977633035 0.9801271507900025 2.915755683401527 -0.2097462250223291
Ni 7.050780841146659 4.79430536583626 9.052108833478034 1.7824419491517949 0.24594092977533127 -0.00455316658832119
Ni 3.9513922330745883 7.453909208596554 2.098800519356773 0.06858237705508834 1.185109635875101 -2.691783801698119
Ni 0.682537711754718 1.4545339639540849 1.078666952233346 1.9977317297001722 -0.1955956445535599 2.2881774267560977
Ni 7.383062254897641 0.12732301688064107 7.1873820486909334 0.6863313063149212 -0.7868637539140448 0.06541606351196476
Ni 6.847017641586121 5.202052586631202 0.21827946434635276 -0.09497732210884934 -0.18288153942100116 1.884745886829044
Ni 3.5938267376658644 2.1378114283162564 9.494265591603263 -0.5348236532195112 -1.0299083359781875 0.522422708451997
Ni 2.140507292918046 1.1435434399250874 3.6565051296123237 0.7982959070103864 1.3500266203978815 0.21431790355341154
Ni 7.541382194157018 2.0109677784859676 8.684272369963583 0.9710627265948889 0.8295561505762487 0.0195961769643727
Ni 5.965755144796257 0.3896692864277181 11.378518532902032 0.6189108107784179 -0.5604035585711445 -0.711908126342761
Ni 1.4178591642860496 3.518333327912671 8.387067559016025 1.7573891199482252 0.14416483957709364 0.5895015043783653
Ni 3.9286844042786253 2.4393894284966837 2.4630946351862786 -0.1606198998093234 0.346057629993275 -0.706773633329673
Ni 0.5249483241997164 8.000203627936722 7.185146229243033 -0.13881205990561254 -0.26793954553360955 -0.06125113350099774
Ni 4.479505667933061 2.5715512003059295 4.9049526659787315 -0.8604677525534407 -0.5665346111695468 -0.4335450714829824
Ni 4.156627577127572 6.316429163799724 5.807151817722085 -0.9740552335643096 -2.3496825852494307 2.4520312601216867
Ni 6.828100584858203 3.143672554585429 4.348842723235186 0.9970136421326958 1.118069663606468 1.6737261944109303
Ni 5.4272262876537365 0.9008815824226152 8.529138703440042 0.006277862588911768 -0.4387479558401605 0.18276352578589813
Ni 9.145311221385032 2.318176731349997 3.230507917562603 -0.6534605237288295 0.7405414738087375 0.45032614759606315
Ni 3.8967756724048805 8.338870468423684 7.31684795589839 0.15668971151698174 -0.7950784285143533 1.7154950508176003
P 3.965626030135916 6.41492483124737 13.505908098302084 -0.3382669303042626 -1.052627117731942 -0.4192127140207103
Ni 1.9411881295440767 1.0598244228203584 5.8976325784986745 -0.2741816697885794 -0.714805245384898 0.2382057659146027
P 4.168386331260976 0.12608917577791062 3.236446180409003 0.040796465191071676 1.3058059600166092 0.0048164475520368665
Ni 5.8161944652669275 4.556784052883344 6.129201827250574 0.25331511075221536 -0.02544055156029167 0.7049283525908182
P 6.265621777004218 8.414667507978445 13.46519962272475 0.9279741229355308 -0.8936357546649771 -0.1472661042102367
P 9.214704432397658 5.148365317172351 1.3468199117128108 1.147559959756101 0.9375288565035016 -0.9743251993962447
P 8.793266267822977 6.90249908714514 10.164221988489421 -1.0682244579495668 -0.449916056641838 0.2685959481706858
Ni 7.617630077962589 0.6747316655835286 0.6483407152855294 0.5745451401788493 -0.08127359936951163 0.9406362917842317
