# total energy = -340888.8420885534 ev
CRYSTAL
PRIMVEC
9.07841994308918 0.00000000000000 0.00000000000000

0.00000000000000 9.07841994308918 0.00000000000000

0.00000000000000 0.00000000000000 13.28718524746322

PRIMCOORD
 96 1
Ni 6.700300439924873 1.8451071025432948 11.301162756660812 -0.5957220313667805 1.3071357345716264 -0.3034462230806516
Ni 4.836709674829346 0.08923814233284537 5.459876916221332 -1.6784778501633029 0.8127665898227358 1.572984716124794
Ni 3.000826246722725 1.9789048523933894 4.931485653192084 -0.11132182490514377 -1.4574501386898835 -1.2408421535507146
Ni 3.4083383511650545 4.726633835710579 4.625561065429261 0.8486085392220094 -0.7508382277490553 0.8719945222461176
Ni 3.9141697411872807 3.070058275516104 2.31125308859655 -0.7289074891142349 -1.2269137163950805 0.8015072148588325
Ni 5.349095683890233 4.924507071952447 2.491174657681845 -0.9630126025969028 -0.26646218965713464 0.07507826919207715
Ni 5.212093251878577 4.893404405987837 11.271757755184055 -0.30600472783644717 -0.8421908086211238 -0.6550314677603751
Ni 5.596046857144559 7.7773278419615 12.483536141141498 0.7538669872730501 0.09770603389392205 -0.9814445840498451
Ni 1.9424096051144248 6.904292531058787 0.21499695151987452 -0.3374945709146123 -0.30218098321498277 -0.2888582979641477
Ni 2.9363240746040575 1.8557924025550712 0.10654161032132957 -0.09229309040846685 -0.2118509300701577 0.9252261278767485
Ni 7.7420581813448885 8.862725546981016 6.978243522423212 0.8088806245047683 0.03323716478657502 -0.11818101391882227
Ni 8.84629360728576 2.245819470614493 1.3806451633483106 0.05192779921754282 0.8735616096229214 0.35960143011598067
Ni 6.842368630140922 0.705686445289219 4.657543430264849 1.8295633281196295 0.84962926717704 -1.0184268177011493
Ni 0.8775881383928634 7.403587458881796 2.2565755823000946 -0.15389929325603816 -0.09974183337702822 1.2281874409011817
Ni 7.880404219475272 3.812673008704986 3.6111112105304195 0.4071557828561762 0.13884676979828992 0.04327860818297708
Ni 7.643412072655032 4.101802519983709 12.559086750060786 1.1025947078993206 -0.9698162557822975 -0.48226593372745324
Ni 8.252147350216328 7.412230114456317 9.266216819328854 0.42992495823189186 -0.31252093168841016 -0.7455821215564385
Ni 6.92726093295326 0.9889576523218928 0.5284647982289892 0.020862445271306006 -1.4814976665573905 -1.7600602390224849
Ni 2.0176152340843108 6.80373995422749 9.03552509579508 0.912420491471648 -0.4702776510173256 0.16923052429646984
Ni 0.3096185967473532 5.232492460991969 1.174920909731604 0.20477628261156341 -1.945401295727572 0.16830749826156818
Ni 6.42260065907506 1.9766443258828266 6.703544159291234 -0.17850809294365386 0.22360575661324072 0.009933714173944182
Ni 3.5382414589547815 4.546681399998231 0.32866784484821177 -0.7522698179892593 0.14432424797309337 -0.30744248872423824
Ni 6.092836141124534 5.7695536148549005 4.637041635008608 1.2129675386276335 0.6580188325234732 -0.352598002214954
Ni 5.229215151472638 2.7316601804107794 9.22565080864693 1.0044670130869475 0.004370361153553764 -0.06975428587600245
P 0.2988969830566922 5.828962793510011 12.267553273239907 2.9377884948318504 -2.7008279141782587 -2.197564809373848
P 3.6994923500415897 6.3941398132493 12.41073538555574 2.040727773645724 0.29004666184529404 0.4439115023189709
P 2.229777902967247 8.872630102896775 1.2451343156968377 0.9205174095471697 -0.11598554892940026 -0.5554356730429079
P 6.5468115976996355 7.776774058358511 5.628066443501004 -0.4051341244404571 -0.831396031998465 -0.6100870418392009
P 4.947085101798911 1.1128145325773442 12.52610848258179 0.418768170284124 1.351903268595304 0.5018464269625422
P 4.216644529456072 6.146026602270667 7.994248510620284 0.5648549094742787 3.4830328291640535 -0.07999910353246223
P 4.602077917136599 1.1877750442147597 3.5647259328072503 0.7949012795065408 1.1383402409300458 -0.47533449671494266
P 0.4739334544900447 5.430964872935432 3.4179024663412703 -0.24915095207219673 0.628998276921407 0.20251294049868346
Ni 0.7992250350439661 9.138972780675447 4.952758206282649 -0.644833958402083 -0.5994352185523096 -0.45118361050035205
Ni 1.8085119926473976 6.5447780316821005 4.867096053477959 -0.26415822411430634 0.4349715195168638 -0.3377437108109409
Ni 6.176058014708184 5.708882535858552 9.01961970444365 -0.5960079380383154 0.40451988789522586 1.1445324857836872
Ni 8.90433194456298 2.7346742157581962 10.223212987180517 -1.113204879314999 -0.6228589967928886 0.3243588048636027
Ni 2.5133332645371924 5.1960789194904935 7.129531755708046 -1.9975584373471018 1.0275971713465077 -1.877205612587941
Ni 0.8982987373026897 0.004018108568574561 9.122051514157222 -0.4654426915225274 1.015176943305284 0.12292367081013023
Ni 1.4952066496512915 1.2010295370076174 11.47627457897785 -0.012006794652889 -0.03603632479826697 -0.6655549929995183
Ni 4.336216395603148 6.997073980608791 1.3110463663981977 -0.26728134312432034 0.5350547953937108 -0.5633194466663589
Ni 5.5128612972397955 8.099039801619378 8.042069086501364 1.798925548629115 -0.585832025946578 -0.32221373349614185
Ni 5.445944265475306 3.312098023701297 4.506082707005313 -0.02297100697387657 -1.0173662376471189 0.16791154837473019
Ni 0.7318985665500534 7.689957130565293 7.129664300635975 0.680484360615841 0.035811096161338325 -1.205826299597162
Ni 5.186246990932504 4.882337812347774 6.5984024412909035 0.7402771644037573 -0.37225511432424924 0.40636182619997113
Ni 1.0097018413846874 7.584738245997333 11.112803704286693 0.36505165459727457 -0.38792701653355127 0.683663529674771
Ni 4.81363233189822 0.525298245430257 10.50126047150565 0.03710796059589093 -0.9827129092393073 -1.334602058312695
Ni 8.267390016928115 7.105597409955245 4.308104161094679 0.9564722303752237 1.1894925954341449 2.4475413426711334
Ni 7.427391075390613 6.262548119391441 7.166974790005898 0.0845970073157898 0.12900870066194559 -1.7820493416990661
Ni 2.54793112209444 5.303776212642324 2.563908232961666 -0.4187951668673175 0.4993082339217207 -1.166418230113185
Ni 2.579061023318213 5.134872213730599 11.167453975323985 -0.23952962693234875 -0.05926984140491083 0.29199298693838743
Ni 1.45170286234761 3.2789073212008257 3.6424562703015844 -1.227752410246292 1.5232955764297829 0.2591479153839085
Ni 1.5432678036549825 1.1981607563757388 2.747377648473981 1.035214064461817 -0.7980935611915932 -0.8938668968391767
Ni 0.9903012584406208 3.4450424020976045 8.12625599610137 0.13752599410433733 -0.1594348783622867 -1.1090165522652642
Ni 3.964800087972053 2.969269659772058 6.725627415262896 -0.4457632108157291 -0.3706435468627552 1.1227441862640017
Ni 4.194629361632319 6.91663010345981 5.596389113568046 -0.07637513362662975 -0.46926926435746924 1.0514310405413119
Ni 0.2920327899055417 9.039019379545746 0.16980094678017366 0.5307674808722666 -0.1262177681803697 0.4054040902723921
P 0.28827160061507523 5.80041116348704 7.965547994513886 0.0944312197973922 -0.5653485612812458 -0.707155185038808
P 8.793084989300185 1.6088049156218596 7.90627408431262 0.1394419801801276 -0.04268339780113939 0.23495100642273084
P 1.9687733359846022 3.262112244716725 10.207414721181797 -0.07512429193866416 -0.03645181506913077 0.5169102632742001
P 4.2683642866073805 6.587274114396736 3.4340593299189752 -0.40551130527421775 -1.3124345210767205 0.3267558443408695
P 6.906743704383493 3.951273242587561 10.233510638670202 0.14696631358163076 -0.1378448108963368 0.6405566711829678
P 6.3917975809612475 7.945169665765854 10.185862552763822 -0.40713778513404725 -0.25441374313303283 0.06155683766687463
P 2.6362913812402513 8.36354863861438 5.816983818687973 -0.9859715253859211 1.0933168821418204 0.31164495684136
P 6.993406299041453 4.079732881641628 1.4508277026864926 1.7729820892904757 0.7691357405066624 -0.4973819634332854
Ni 5.418736241571063 3.1252913810994922 0.2400279703749892 -0.33565520371302837 -1.2940783871670358 -0.7924944698372609
Ni 1.7518898888466758 0.9800517225754588 6.9924612355484825 -0.3494093200743273 1.2417235277144034 -0.1818440992954223
Ni 7.037863320415853 0.8559061485728755 8.928204557061678 -0.49064901558482593 0.2914810802989754 1.3255821142022721
Ni 2.9024978827231065 1.6768204361726065 9.084701079740528 0.09806753099839885 -0.1632794489193575 -0.03861025617303027
Ni 6.49776089594634 2.26305938966493 2.312182718775994 -0.8336082091584353 -0.8695486318087864 2.3737077445194346
Ni 4.295971760979354 6.869567575625444 10.205262227865918 -0.00047308298167660464 1.3888009129526018 0.1026716054293135
Ni 8.180618481233502 6.912581128264184 0.12747009130446318 -0.5391726742168262 1.696457317459859 1.9225542159260698
Ni 7.381381644243898 3.8732986956027284 8.091284107651614 1.1520455063312804 -0.6987476777014031 -0.26336066791367546
Ni 3.377961958778135 8.664897702837752 12.474101847367292 -1.1264398899480343 -0.09708382692889087 -0.11961003305586497
Ni 0.6402328547837765 5.114591024073581 9.902248181465689 -1.622159378077232 -0.3556069642446069 1.5138963946030701
Ni 8.824714203608622 2.3732260129809086 5.7492052448919475 0.2811254480962642 0.08406401763045522 0.34749410532948544
Ni 3.8450012613319493 2.7763350838584873 11.298757883276684 0.001227444649197886 0.047276673598776645 0.06443518765593419
Ni 1.044463110496915 3.30476266056662 12.718998574238729 -0.4329598884034737 0.8031483500066814 -1.215437597434681
Ni 3.3133871593016986 8.505970887199554 8.051170202271804 -0.8947955793010333 -0.06998979892557623 -0.5951527891268718
Ni 5.673095405317836 8.288687989593898 3.0528238035175 0.34588099520609467 -0.48891274962000963 0.5581787830056838
Ni 3.0797267925191134 8.439271737508372 3.490184844160951 0.17577243918004568 0.23059401500561577 -0.18326900466740692
Ni 3.708280260331649 4.43097694065236 8.86821254386047 -0.2898193763258364 -2.018155030551531 2.773957544284397
Ni 7.491938639607886 6.231972001770656 11.364927761098123 -1.3761058339834364 -0.23755681947669408 -2.076102296490276
Ni 8.075508537702195 -0.24039383068975098 2.565329913489996 -0.0793594130659343 0.49823736945504515 -0.418686152093279
Ni 4.722521311576904 0.6440793812196215 1.3261038333476731 -1.1799149790480388 -0.6421445844953779 0.7589258898531962
Ni 5.910496081025529 5.440733252555373 0.06836140834212222 -0.07184510696676014 1.7244394044950817 1.2055591619787043
Ni 8.105730596953855 8.906274726383302 11.209109396372444 -0.10838202555052948 0.009517709682448125 0.24263654799244666
Ni 0.0117338574895676 4.934974489890917 5.618167334637078 0.2335106744317785 0.38907449987443316 0.5235552793945435
Ni 7.414762993558513 6.256392950820512 2.5089529270217446 -0.3883733600423505 -0.9392157572876212 -2.135640561065225
P 8.760811207191548 1.4801455513339274 3.703098298354825 -1.2661132694126775 1.1399574648184947 -0.37732661530988565
P 1.8200234288537973 3.2671689245013975 1.4173437672290286 0.8450347058278221 0.5248362029894961 0.5003269049942223
P 4.672617238369822 1.169981341561334 7.752660867737204 0.5578743643913876 -0.11055435061149992 0.16114954706054826
P 8.476057494218413 1.6825852326955275 12.45471578989478 1.6880824631326026 0.907163613948083 -0.5298195151367003
P 6.678294350520841 7.888465856187641 1.0653343974358054 -2.121166021598134 1.029221594323808 1.8445855125600747
P 1.8079672874641295 3.6241505447758864 5.86974668626524 0.7047614879956507 -1.2847383407130326 -0.08506854763556962
P 7.131516298259086 3.979370951624475 5.848672950566568 -0.97838728528076 -0.06136117671630078 -0.39019061575674735
P 2.7865301492053223 8.772449741274045 10.224342342593825 -1.1667915542922034 -0.4453505487583427 0.4452978411435363
