# total energy = -340861.4948289963 ev
CRYSTAL
PRIMVEC
9.37086693061929 0.00000000000000 0.00000000000000

0.00000000000000 9.37086693061929 0.00000000000000

0.00000000000000 0.00000000000000 13.71521097470975

PRIMCOORD
 96 1
Ni 6.411106674490571 0.02760282542118419 5.088946705037499 -0.746876671998146 1.56734988643652 -1.6584903512977824
Ni 1.5289131533197744 8.118431761947338 9.91756510619947 -1.4413807439318465 -1.5997046486181417 0.8686384612896911
Ni 3.4840882983420296 6.622185450499593 11.56613298427414 -0.4162330625670961 -1.8800759921572008 0.3434947543621052
Ni 1.641326072165689 4.200594149282131 2.4794629636813426 -0.16796168488637525 0.07198523208905022 0.019624459099146847
Ni 6.396010207980003 3.0043467694726904 1.6945010561596154 0.7347901731472571 1.2132614157189685 0.050831223719254394
Ni 6.331388710117264 2.7967820685359617 11.650495150262989 -1.4154020604798978 0.03656134406380155 -0.17602466440016779
Ni 7.996179432899006 3.306894576896765 6.2798114589228735 -0.6418180543938946 -0.7078774079168131 -0.2254086141499344
Ni 9.064973652553121 4.9528592281578785 12.096006776668142 0.6372528036207155 0.37314574445931864 -0.48159873245709967
Ni 2.679693087127183 1.9541630914014347 6.964296120717562 1.0102792488933503 0.18117612669412023 0.6539863143253124
Ni 4.045375110622268 2.795376438507044 12.71157246105835 -0.06403101023898004 -0.9928194015456903 -0.94098107671816
Ni 0.9344731511775022 3.6730799411633366 7.365699076815305 -0.06507950610815244 -1.9882890962300337 -0.4065721424385643
Ni 2.4943560823810595 5.923109411918061 4.681851884409329 -0.8025022317822502 0.031578289026913356 1.5302984901101775
Ni 2.7314483847919035 4.2098150822718265 11.216889210202758 -0.21474702067103016 1.8709395770735713 0.7067931737136989
Ni 5.651813445470239 7.873074354966464 12.399702515282499 -0.3386304842912684 -0.7277345518520564 0.6331436665483483
Ni 6.283025666255663 5.849182643263891 8.106581363716883 0.7237732532114632 1.3285746211716927 -0.5000412554330034
Ni 1.2840805148830285 9.56250108672169 0.8657303460699782 -0.5587824780279538 -2.1798396241799427 -1.086464120886045
Ni 6.968617027426452 4.6067931150385375 13.40106397701604 -0.1928075402854615 0.16472595155789696 0.48330568784587735
Ni 2.5485196928286578 0.44625098780036476 8.876566751823843 0.2198123510090795 0.6368321711435291 -1.6692257354374156
Ni 4.05869111242954 -0.2379684784622019 6.853764871937024 0.5945637493926212 0.09647421836934998 1.5094748684966068
Ni 8.938064002675645 8.904769312724033 2.3742946620044654 -1.4478349841976226 0.5711782805891453 1.3658928980061769
Ni 5.196811005109838 3.836311070988027 7.741811000346088 -0.6521937412012638 -1.0561770398667294 -0.6508320849670469
Ni 4.98126232560886 5.5961879797925675 4.76412903252195 -1.7753917271732325 0.976603711017776 -0.20616493542897396
Ni 9.37995660029968 1.4862101130412788 5.200753328797607 -1.3432674472971768 1.3900545828540447 -0.06955219716752538
Ni 8.07883047859932 4.537645488482686 8.479675868118925 0.25550929019005675 -1.5511290537022833 0.17374049635168143
P 2.3487702948527063 7.846695364757124 3.3848451957803807 -1.579904583173079 -1.6875944677525903 0.5022516328207608
P 3.105917595362226 7.2506520072952 13.616708239358983 -0.4307618523108904 -0.03186702391192576 0.2675150564016812
P 8.42678013595741 8.871052933763746 4.69526534323194 0.45392414935996667 -0.3360470398348084 -1.0025890793379444
P 6.4208992303586925 4.812886589878334 5.971794813599626 1.5674984961992424 0.2744871168441402 1.6451280710582634
P 1.0052878549476498 5.665166930744949 7.134556337773523 -0.3458264878190754 3.4154470116942792 0.5845927542228384
P 3.6118038427694192 7.867095741910137 8.62793703813565 0.046566277795313346 -0.6478125814144328 0.7654125260188044
P 5.112210819102759 1.4401241898265236 3.4312300496479526 0.7036214608539366 0.25034188705650434 0.5002112053519644
P 6.4511577594478435 3.0410243423605623 9.47299993734712 0.40573653391114634 -0.14176754298951066 -0.09030974142985092
Ni 6.064131587285863 3.5192759033992496 4.133984153471817 1.3080754727770763 -0.35549049327140064 -0.3522272491390966
Ni 7.897522946602758 7.019622655742418 12.678395844029168 -0.41067305198081533 -0.18016105516604455 1.3736347467351244
Ni 4.442278176454104 2.5058635068844595 5.453250399238693 0.8287395682122244 -1.1873269552413939 0.64202091443332
Ni 8.80297358602987 0.4319669754465112 12.847490325247813 -0.757693817218308 -1.343459508703325 0.7560490825260334
Ni 9.506744428907984 6.939604823629607 4.184565281519049 0.9208835346373367 2.3165048129458814 -2.3867463228709473
Ni 9.30349969759346 5.172643539479327 5.340195576012907 -0.06214330629796394 -2.1648894306280138 0.5250963986294183
Ni 4.283610658789964 6.218226121922594 7.045051440052211 -1.8506890543546513 -0.0918950836390998 0.15935980214997716
Ni 1.9576396830062894 5.284587914982269 13.691387488621967 -0.03875089551595262 0.20838096924368626 0.0712637805419934
Ni 7.440243385595512 1.5313870621706682 3.3007988280046954 0.41112145237214354 -0.2457007887400672 0.38530551975030414
Ni 5.024433909230328 7.3297421235889235 0.8988835359320123 0.14403217065397128 -0.5919458521537999 1.3205985449447515
Ni 1.0222210113626689 7.682583373447645 12.472188044613684 0.8896232910714744 -0.8706979149218811 0.3385394672393589
Ni 8.588258913679384 2.0205837957011883 9.213316349111524 -0.2744197539413145 0.5133451716307611 -0.6336907973010699
Ni 3.412476133802143 8.743159342866027 10.98596574944549 -1.2081122674178615 3.118742221102519 0.8646177701660723
Ni 3.7118847008283025 9.404883106145807 13.815469010881264 -1.6341669440610693 -1.2736340032697548 -1.8623862881869215
Ni 2.0390350325474373 2.7132126778834214 4.799582770197978 -0.4891480055592672 0.7813903895042995 -0.9955735672520597
Ni 9.505901050890635 2.2005887772042865 1.7299679130492467 -0.22853173315994837 0.06928711643159681 0.3046788099361721
Ni 0.8218484507405645 3.7345621986281623 9.706323277107096 0.40218455489382987 0.6777625908093037 1.0510500030528092
Ni 3.8419429619705543 3.63039564261856 3.31935501855977 -0.20414841921957744 -0.008335516448888872 2.1158206981258205
Ni 5.228962449304597 7.902630069041157 10.262474854348357 1.411073608307873 -0.06090326324327575 -3.4752832671256213
Ni 2.6295027242279905 5.684742671614332 8.956828226474999 -0.9427919046746538 1.778561640260782 -0.13062258211628472
Ni 1.5737058969079265 0.5540590626715475 12.031655159770954 1.074863303422323 1.033538219421291 0.5144692579328752
Ni 1.3806191852690413 0.48327247150197816 3.4625830959862864 -0.3363848827902013 0.6865292812583403 -0.8721014801376271
Ni 6.912129441997712 0.653697615814665 10.375543733874434 -1.1661230674702692 0.27586882768301524 -0.015465442625450784
Ni 1.3804786222661496 3.0247096631582666 12.684485033314434 0.651939973319245 -0.8439584420445078 0.7839218976769016
P 5.764929179330612 5.081118282863117 2.1457860736368746 0.018946716305831886 0.779821759465599 0.07147563944248336
P 7.053132875631796 7.852936362085514 8.915970309881128 1.1664362278353138 -4.049932022761871 3.1525442572536284
P 0.8623380922668588 0.9787776726022771 10.162010727834922 -0.4047728844462964 0.14282658038164434 -0.2135028638512839
P 9.084174558748126 3.3850757191051226 4.051514902588576 0.170592437641003 -0.6601515625957598 -0.6561136450809604
P 3.166453395274247 3.6857212405567297 8.945471672928036 -0.1325856193799265 -1.8613493622819752 -0.1458314286462392
P 0.7449801669792147 1.2848489259655032 7.439747666738647 -1.2494841454964287 -0.6041969016070111 -0.49830164703407737
P 2.4590091725872294 1.7021429980834935 1.3065602873921534 1.9540252899511572 2.5938738793235068 0.4797282549072641
P 1.3010043004311878 6.034978820486127 10.955971478801775 0.5869478847185762 -0.7686246051981988 0.623967399365719
Ni 3.6564185398872415 -0.09489033490543633 2.631784530308266 0.9937853650033853 0.28157539114948926 -2.85056690540902
Ni 6.624874889288254 -0.07211350591686683 7.75825593459773 -1.0806284880408743 1.7070559189113117 -1.1922850705776176
Ni 3.979413578798627 3.433944789777134 1.2044871830389516 -0.9086916205568351 0.2541877431651558 -1.3418178593348438
Ni 8.483979907267468 2.6179015910559964 12.27883051492256 0.4627152652890354 0.6222776703681219 -0.01278506757981024
Ni 4.763783247534836 4.745650620161809 10.098111723807044 1.462715500853881 -0.1991172845535732 -0.07695851693392552
Ni 1.647295314355156 7.971683986928414 7.485268526681777 0.16912536617717325 -2.4753984740927173 1.5217308030458243
Ni 3.116441078845384 2.109588289132206 10.379040941386377 -0.3408696580344323 -0.994804807406835 1.139494152028831
Ni 0.6332035299930566 6.702381329082732 1.814097681539981 2.475181215875589 -2.6088428419285132 2.335477240283326
Ni 7.107315227813113 5.730107038080911 3.8596801387621134 0.9409054862852182 0.579365444385628 0.534745234573092
Ni 1.0280590614161038 8.951736097423575 5.709176269863652 0.18917945661457095 -0.21088496661246262 -0.920096519959667
Ni 5.965849935663995 7.9877550235923644 3.161959127528457 -1.387619748160307 0.32865460402547914 0.6079175449917078
Ni 3.273412469607964 0.3087438245915399 4.763429965854236 0.5307885639181891 0.36154107034085475 1.2943753495821644
Ni 8.86827915717335 9.00174841385244 8.64013041009316 1.2736805402369742 0.29201304154304547 -0.5171334350285997
Ni 8.458481778542916 4.649177545843812 2.1978215602206923 -0.23338983258319804 -0.3959439733007568 0.7509266736978035
Ni 9.333402133741954 6.34532318913726 9.399994324905235 -0.6892279111364258 -0.12824045503735335 -1.3061630862457116
Ni 5.124064965679958 1.1866422412785087 1.2070632343386136 1.3452646802328638 0.9493392188748682 0.6064080503257169
Ni 8.446065379954149 8.247187472596126 10.87784937305463 0.21138067530195853 -0.04982232283876581 -0.6547468466404208
Ni 8.36047188205997 7.159079896344693 6.152904620305454 0.6149819080376571 0.3844056336438541 1.636067503517892
Ni 6.799950794823284 6.218301088857469 10.380864512077224 1.168616009095452 -0.8051792643937811 1.369209106863603
Ni 6.731046810805777 8.95620600091553 0.3649605919680425 1.0276143977376881 0.4089113320947022 0.7162898003502245
Ni 4.737882171535328 1.4709262291935226 8.63623494073969 0.9679558055347911 0.519445370991228 -0.3460861692383652
Ni 3.7787364650035906 6.011823408476436 2.845521821245312 0.2515798732286635 0.5218532091017722 -2.781418628548132
Ni 6.143896405993469 7.5036841542339605 6.058310404792776 -1.0918300131836487 -2.0539064771195275 0.8240149090430454
Ni 7.460437603677618 7.023698982826277 1.847809375066838 0.271641419865229 -1.2741633934106638 -1.4640054233098978
P 9.316900037202469 3.973369369674284 0.4221894129653652 0.8181731055502878 0.7024945463383451 -1.631368555380326
P 5.241678715632865 5.363631176941696 12.215356948250104 0.600575759914656 -0.21248804943352434 -0.7515846189967765
P 9.176861802854907 7.874564322797115 0.5447584773135473 -3.0041486674246394 1.6256689338923873 -2.9343864111288367
P 7.2536787972908 1.7683200598449014 0.1271092493415836 -0.3899355623231478 -0.3393979585849123 -0.00433822236403769
P 4.067733998948905 7.6196017772853075 5.3237375225476615 0.1802063065816832 -0.27116936532481684 -0.7111018283913817
P 3.133233672257511 4.166980849857299 6.130137162183743 0.11642700734219304 0.039494458550196496 -0.35816752588293155
P 6.332597551942133 1.5011191622146576 6.533789126327752 -0.9373190544855406 4.1099505694073475 -0.016303365145713858
P 4.951631644599291 0.53114541902683 11.910220907399452 0.7304054138160001 1.5953628267096782 -0.20171795540121387
