# total energy = -340864.76463350904 ev
CRYSTAL
PRIMVEC
9.34472687391409 0.00000000000000 0.00000000000000
0.00000000000000 9.34472687391409 0.00000000000000
0.00000000000000 0.00000000000000 13.67695235944458
PRIMCOORD
 96 1
Ni 6.313045316321584 2.3160438863360775 2.7489037934237306 -0.8028909825802366 1.1333803258216093 0.2493281010800093
Ni 0.11131252018502728 8.863034445428037 8.863978262864418 0.1591929375548097 0.4051086705191604 -0.2756561974515769
Ni 4.690595109000708 0.11552418868579055 8.989875098623312 0.3204216745927256 0.2895938905785916 -1.7238385376862893
Ni 1.9739147380113726 3.4848075932973877 11.085799265922935 -0.1752322504058595 -0.33148384594415814 0.5972047865598941
Ni 0.19600471630055316 7.020403778344605 0.6672574346493241 3.168023583836151 1.003248567298814 -0.4045538264569549
Ni 3.2140815046894167 1.7492581539713248 12.175592553167693 0.2957488544363939 0.023088763498663463 -0.4041239380083879
Ni 8.953603540412278 2.2958592758154457 2.5748638581550036 -0.20239826929769014 0.023478799848230533 1.2597505604194434
Ni 2.415602608783674 0.2963895126231607 0.11910695705320264 -1.7878417800111275 -0.14212004123292296 1.3778665254282851
Ni 7.443243334570557 3.153985564755074 6.833935356042342 -0.7216083843496605 -0.889402690420236 0.30441372920024345
Ni 6.7995411535042685 8.590187103769981 0.25874708294760146 1.0951922447876623 -2.124141302176374 -0.8503360634360775
Ni 1.9000259808879312 2.9025283034126317 2.110777611013766 0.43339234795520204 0.8646367963294658 0.036923098278594475
Ni 1.7782828763218257 2.558941377661437 6.262663220200294 0.14665289610627 1.7150998722617108 -1.3812030460006857
Ni 1.1935833021200126 8.162777975995608 4.451205628226018 0.09471609802766269 -2.9897265784620384 -0.1466636947395474
Ni 3.3500846627992646 3.7347977324862467 3.7796393399141643 0.11426239559070644 0.7887270323750287 0.9360617850396716
Ni 4.424943207204174 4.408945034421154 11.46796029064085 -0.8911237868764008 0.18155922106515182 2.1437948147412436
Ni 2.875774349745702 3.5948324100890154 13.62231329856145 0.793504399159014 0.0365924544120531 0.03160991359579718
Ni 2.9967605314172836 5.382170326963847 1.9497044190591264 -0.017610771103227736 -0.45162609735440934 -0.8350426276121167
Ni 6.120254251668274 8.789397995936103 10.813764915521961 0.4111134819523436 0.5832529523654922 -0.3524072263603866
Ni 7.230192901579874 4.140657919584427 9.093600634881625 -1.138438457070807 -0.7489952610030455 -1.7407520256121762
Ni 2.448981973959459 6.021153420848229 13.302956315689396 -0.5081116911459637 -0.03475694386521111 -0.8770197433748508
Ni 4.207622233932041 4.092411093603862 9.089894516116587 0.6841222144787443 -0.627500352219642 -0.3600233481447477
Ni 4.244197495773593 6.230624823362339 10.045775995174886 0.14151120400433048 1.7170958196458168 -0.6664574502091296
Ni 4.185895743441083 2.956709031097179 6.7639508258983065 -0.7039765302005102 1.861732970873639 -0.1816669502876097
Ni 5.0259960538185355 -0.006933787502920654 1.5576136873323119 -1.3309171532619402 2.041450767854678 0.9592428511418254
P 6.779945260790488 9.071038725788563 2.6758822269745086 0.35243190895073495 0.5385332408606144 -0.07551304273665059
P 1.077372275992895 3.4506245815916143 4.3743134758149225 -0.07988417522115274 -0.13912033517465072 -0.8681311826359694
P 7.467866690460309 8.019607412205517 6.206395814955906 -0.016276625672836484 0.048922179621999615 0.16757601941218236
P 0.2205607901552363 0.6691011493047502 13.247141195236303 -0.14252524709114164 -1.7285549693253521 -0.5586852903284572
P 1.4356023890986407 9.185978869031048 6.537104772300395 -0.25193417124428874 -0.8392936895789868 -0.47209336406982566
P 6.179817542158323 3.400677015280144 11.04337327044853 0.42789687205826954 -0.2982399962893638 0.5726147559253558
P 1.278760489571659 7.4171061328917585 9.992094275917097 -0.45381024948992166 -0.1596768191697637 -0.3374958564661929
P 8.2056048602623 6.750752333352316 12.716173801818579 -1.3061291476839827 -0.0026767755012147448 -0.43128404336294757
Ni 8.100373888469322 0.17807031606388826 4.362715735019943 -0.7833495701131993 0.5563826103372095 0.6292415032804648
Ni 6.824257956664949 5.778424134610541 6.951475202362067 0.9491049913768751 0.3803471473037643 0.07148309564165109
Ni 7.2696930630014975 5.452844497967336 10.915808400903556 -0.8867277146912341 2.2092134493563695 -1.3846249271980413
Ni 5.064692568710172 8.311032071324227 7.042372297267268 0.9846880306878074 -1.790810375721148 0.6956710956586083
Ni 3.06735994460403 7.658246815523655 6.2018140952622645 -0.9485218651798955 -0.8149738818866996 -0.876328116624465
Ni 8.477162629581537 0.7724547654247674 6.717695361261235 1.0340814935192708 -0.48289791088449746 -1.0981680395865345
Ni 8.482236816392975 6.897184206897824 4.500770995199389 -0.7998434540031645 -0.008855907728733134 0.0632383391343556
Ni 7.167527161694985 9.018297086076322 8.393218011633442 -1.227850369276737 -1.6085104198352298 0.13688964607191909
Ni 5.339137858701111 4.747233499910684 1.88606589308387 0.7649211882046826 0.6296842472448381 -0.5664898739745404
Ni 1.4843351408880359 1.3389218425956526 8.02526657893297 0.6597913510428636 -0.7242553350542044 1.5379678337299771
Ni 4.482880515180061 5.671071909767479 7.417175283872245 -0.34333046087009905 1.202149622076523 0.7548280656347388
Ni 1.957561465598824 5.904998463083668 7.830110363852449 0.283488291901486 -0.09697224105169105 0.6461367363739066
Ni 0.04107194451864806 4.5416681933214 9.935636238240015 1.4581160544086567 0.7668366600598406 -1.2409712229294112
Ni 5.6747630769691675 7.136568080836258 2.8027088630791437 -2.5141298292246446 2.662271651171615 -1.6909381874138427
Ni 4.66860696615115 2.027347887528489 10.256524821882591 0.86778845458457 0.3043440523045726 0.36598753614798263
Ni 7.668675530959314 5.946900219368165 0.9137872213956876 -2.3397177607272353 -1.348146372656033 2.076867713901391
Ni 3.4062558173545963 8.952827928063568 10.746159552895776 -0.42282974194800726 0.04173491784494102 1.038518960465334
Ni 3.382127732000767 7.023730501189672 3.768233166024589 0.8405758987255201 -1.0116733010273997 0.8018949372155545
Ni 1.4382095679575555 8.17674834299947 11.989791344379862 -0.6694057342041763 -0.06216310379230586 1.0844815432383774
Ni 8.446072722543509 7.500395685470641 10.780310792529432 0.24323638635997466 1.5973572314318876 -0.21453053378484988
Ni 8.463538017480111 4.679110439403552 5.4290388056982115 1.2240047702784018 -0.1971503906351895 -0.4398872116509263
Ni 0.2871868253820876 2.7036631661489463 12.967652556033332 0.4550996577253066 1.076247071143727 0.42582404868964085
Ni 8.618380145409215 8.11960533682648 2.487167332279115 0.7527303025654456 -0.16352087550620226 -0.48589478872929226
Ni 6.041721165179668 0.9182231633466802 6.770734163295032 0.3355495313730995 1.8978875664173251 -0.9157850370685068
P 7.003050620133117 5.832885204107875 3.2906746258335393 2.7375142138556985 -2.8528767844891187 0.5721702121887695
P 5.628721606582524 2.4962662930494575 8.1922344247378 0.6967193344174646 0.12230120673478292 1.1977046989312923
P 8.014607983210825 0.5790590969285477 10.130545752525281 -0.7211566415242224 -0.3497795589295524 2.2749655560515145
P 2.5522972766983956 1.6976939498727857 9.90897946973485 0.08144894860511134 -0.5073835547306875 0.07591979125676604
P 2.1883855695201757 5.576811647581548 10.812684665070025 0.74714869471261 -0.0774987057081117 0.1353580399187411
P 4.434203831753223 9.451070087202009 13.068861557285533 1.2144631493365536 -1.0155127293781478 -1.0274246503243856
P 0.10303402645344048 3.8618673314952963 7.712611634331932 -1.2169982570535816 1.025444386669563 -0.9611878906833383
P 4.243608777966741 2.904668245916902 1.8318776896176487 -0.7185446578226722 -0.6922296740772271 -0.09055605311270211
Ni 0.7497302580802897 4.525305576181759 0.7148454573698408 -0.6887437724111558 0.2055959502993814 0.9983824974557645
Ni 3.633855990428903 0.7946522301612063 6.293312990592248 -1.0242138566965717 -0.9251816477920584 -0.5690614913564586
Ni 5.490354232518176 6.852778063752434 5.233404140590537 0.24110314206705571 -0.4955662503807852 -0.4801008077553345
Ni 8.785538623646742 6.546420530739294 8.613047109657305 -0.5589362299969987 -0.8752135434040474 -0.1487295761296406
Ni 7.161752120351584 1.231401412664918 1.0703955027453471 1.0332695391409366 -1.1045580022732784 -0.9438645689135422
Ni 1.9677565628571616 3.659114787760971 8.622005899521255 0.5402929038641985 -0.9045099783753195 0.1461453603422322
Ni 5.7840683497746435 3.0149920939755024 13.465465792198211 -1.8885755449877797 -0.7858527961510272 0.6717333538960883
Ni 2.421293547583241 8.305883126696049 8.452588800745378 1.3607578907724567 0.2930959901945791 -0.3599801536116381
Ni 3.77536319279646 7.716931701666973 0.6837097611690574 0.3462828586302036 -1.869171172319239 -0.9907614905753968
Ni 0.43346077303972547 5.200191111557004 12.208828009546249 -0.4302504598921106 0.6423003933469519 -0.30392624804086366
Ni 0.3635893140935152 6.871953443747034 6.473438212143862 -0.17567576570118132 1.0246162343413128 -0.04345112920509936
Ni 8.707715736417196 2.018190054977462 8.70615983935623 -0.36225815101253744 0.7878569710652497 0.7352483437305983
Ni 3.233537226496803 1.315092788508796 3.5146761445043757 0.21437241094043077 -1.3119609238744117 -0.5361279738532314
Ni 5.847135912924524 4.372416496215067 4.449413309569603 0.6197559323875327 0.7871735718449798 0.09665805224538192
Ni 7.403687104786376 1.2775082961412125 12.346430984934397 0.20626623689352863 -1.1289094345344495 -0.3059833876802085
Ni 5.491587736494437 7.304997441958417 12.48889041499272 -0.3266910525412051 -0.5082330472151764 -0.4899599599376013
Ni 7.378531099452329 4.381751878580859 12.765616752867032 1.5605189795576155 -0.0044840039132826 2.3310312886968307
Ni 8.234339896072921 3.009235742086285 11.098313724445728 0.8134299344383474 -0.736445449362493 -1.2130058480647365
Ni 1.0164913789827492 0.9013493896350577 4.621360025969523 -0.22195485127337905 3.4134783180036825 -0.003835314585690169
Ni 2.394819935729098 8.464210837830798 2.3780386748156954 -0.35238948574857376 0.8072531162036741 -0.9421306169415711
Ni 5.016249503460657 2.246696666579778 4.670488059714947 0.14733038178926885 -1.6271182647444042 1.2712793869946493
Ni 9.374443325040353 4.980057375429913 3.0230575279293714 -0.6551890763841619 -0.4914499142195665 0.2812231500163931
Ni 1.9280134385311216 5.478635944743699 5.063221708665752 -0.9371107951294764 -0.08242828179924513 -0.1823359513301763
Ni 0.6749462761013498 1.1329920916497465 11.078235643813956 -0.013508061788763832 -0.2820605583160239 -0.4131415681259659
P 7.854738392105747 3.130128476486938 0.9083654107363959 0.6898346914824893 2.669700339535518 -0.6723522184270098
P 1.320120251684768 0.8961434421716116 2.2327758266295072 -0.4387155599403283 -0.37708493161272477 0.3857364366401357
P 4.579682543135256 5.633160351951645 -0.20542607015559977 -0.06862197204377214 -0.7289835937678091 1.1388932852200386
P 3.976228101658023 4.9604801721703184 5.566109131642067 0.21545844491575797 -0.033311212557620054 -0.9837063835008284
P 6.278217518446402 6.433368022369571 8.96343699673212 0.06840471382664348 0.032714459513885595 0.7764970659677402
P 7.25227449170036 2.487650454669817 4.702054547834713 0.4606077320277293 -0.1562361689193309 0.6358150427329244
P 4.481740458474729 8.76645669092307 4.563288153923499 -0.8350999632126134 0.4606218730951164 0.48701836081077415
P 1.393158638642757 6.544523551139437 2.695987407314851 -0.3852890646900719 0.8891756620110944 0.340988957221116
