# total energy = -340861.54507195944 ev
CRYSTAL
PRIMVEC
9.34250862078476 0.00000000000000 0.00000000000000
0.00000000000000 9.34250862078476 0.00000000000000
0.00000000000000 0.00000000000000 13.67370572176451
PRIMCOORD
 96 1
Ni 4.833206780750227 3.2597040816460177 11.439313425539478 0.37368644745413704 -1.3452240568029155 -0.4291384577748545
Ni 4.737371325664188 5.510482612394533 9.204660064948742 -0.7375062865268395 0.5963321541469536 1.2295444691497082
Ni 5.023607109727949 8.376988526931356 9.702383154562137 0.46878255452903783 -2.033223237738563 -0.8026151032110306
Ni 4.092187011686147 2.8750356250548146 0.5604916691163266 0.7637238254624718 1.3083117571575982 0.8840835922001677
Ni 8.34996064902495 7.024025090135689 7.423701352834341 -0.8323344846523343 -0.6476441741573684 0.05574768718426528
Ni 6.771870778108765 8.747568480279261 12.878456834594958 0.858040888279503 -1.3029337806751367 -0.4925413475115324
Ni 4.700300250817103 5.000325577843135 12.949341251476834 -0.4726240397623151 -0.8466876680502128 0.7801153794466178
Ni 8.730808019524304 3.360575148965569 13.101857707343434 3.1185612154399647 0.2811254480962642 0.17971676853977434
Ni 5.1734142380477595 2.720482502273733 5.253574831899313 -0.23604475370754185 0.17369190250193314 0.6564085506135598
Ni 3.5151095867290865 9.17129796608812 7.095271996358309 -0.13882234431825768 -0.2702147147210314 -1.0598529460564199
Ni 9.304680963969128 0.013732553658702306 8.494147324061494 2.205533172291305 -1.566180291608451 0.7215798451045702
Ni 3.475534719528418 0.9367546705563391 4.661133651250208 0.8037127071505836 0.40070668479672283 -0.31022596500664634
Ni 5.108792104802475 0.44626174848935396 11.41956803322866 -1.19554908604087 0.35496213157175643 0.9382032568627069
Ni 0.9738818004561167 0.9796928409185378 12.738383666175139 -0.12998006343627935 1.052651028991342 0.8207138696942705
Ni 5.183905875409977 5.393327552267907 5.168811183970854 -0.33324736560248414 0.4520403020736925 -0.09889645465759742
Ni 1.1319103365041128 6.892547964046216 2.4350679247319125 0.9639109460414561 0.6866763483591657 -0.9457224480578874
Ni 4.342687699658652 2.52560711158942 2.886861372671105 0.834953153222104 0.12476509489424321 0.46016010296734944
Ni 7.6759546954543545 1.7250662190750425 11.879688459245276 0.23033073404190008 -0.7256979810380018 -0.4392079261957145
Ni 4.247291342485369 8.289991085153115 2.9207036764831216 -0.9603584528035074 1.1982348604031492 0.3444697166808648
Ni 0.017619971562903975 5.652245840653018 0.27723053984876395 -0.04035937765365308 1.1356863482469668 -1.8696943918125606
Ni 2.759945259369017 5.4116855820245915 7.3024430628506485 1.1496016727764782 -1.4729855153213214 0.7545853534963133
Ni 6.717712254699352 6.497995133163627 10.308374709948694 -0.008592112544385203 1.5310669928450857 -0.7780420418573568
Ni 4.345434397240568 6.777494968395545 0.7927922157305638 -0.15815498320859858 0.34479573256171586 0.9248556319112073
Ni 9.003768098608802 6.480169626407519 9.491329341419988 1.0592651918737497 -0.044129386219046586 2.262038306466885
P 5.6098121657650495 1.3287476540326513 13.37128444960657 0.4134207899292816 0.38523609996494945 0.8373239674471257
P 7.869288572189633 7.909508072496261 1.3935286099272304 -0.03936847449529349 -0.519865232137466 -0.568552412930524
P 6.304409008691234 4.950072223104609 11.492175208729945 -0.174713401787912 -2.1175927024245786 2.215998590599003
P 6.242711080694725 1.7674344964015374 10.293429498650086 -2.0540831119067073 0.35701361478414645 -1.329839346816729
P 0.19908325663973803 5.732049550669098 3.8755248905221458 0.48406750571256635 -1.0521977435040073 0.7469250087375781
P 9.05605812026181 6.991139459222952 11.942942849204872 -0.14440780882583518 -0.04884787474063845 -1.0699599525834347
P 3.615223910837294 7.072475340679285 6.372042232516967 0.965310397492144 -0.38407524688762884 -0.20533009823250442
P 4.27370261481216 6.2273987088009815 3.0752297059887357 0.4482111581355893 -2.197358349789996 0.30173798214029324
Ni 6.8477599769451745 3.820273293585235 9.82641710390497 0.5127345346299557 0.1330399333085257 -1.410889517321525
Ni 5.868711769132597 8.244408984805602 4.808166988712636 -0.7895292165613499 -0.2679230904733773 0.9738099503227229
Ni 4.050659560150034 6.7775883934833665 11.542043652106653 -2.063187645311137 1.091582930169849 -2.518633373521953
Ni 5.80085712784873 8.927383746806946 1.3179196863542815 0.3830709739928306 0.66384675205916 0.19547994491130205
Ni 8.742383387905235 8.027812261203076 3.6072192493128528 1.0558412537938655 -1.5562977423874165 1.550308357573201
Ni 1.068241139154595 3.3846414515880716 3.8377036122198636 -0.091013709475411 -1.5633963011054106 2.3972577639252326
Ni 2.5068660389726722 4.123540471158631 12.598815927480429 0.3215406186885172 -0.32508231329318854 -0.7305596800056772
Ni 0.08261393665771329 9.055815215033478 11.075646928690272 -1.1419387569145816 -0.9621376561911174 -0.8450061665827318
Ni 5.645033423873293 7.053323197676127 7.333372372424429 -0.4963622639195193 -0.39465122263126223 -0.3449427996625414
Ni 2.2094939844407353 1.8877192969701422 6.652381025037512 -0.20952562437109076 0.6623519126811883 0.2432361292496585
Ni 1.862485180749886 7.704944500204985 7.807372029487623 -1.0128791484100428 -0.4359966183472685 0.22395696930507233
Ni 0.5405313991035248 0.18104380643252102 6.366778663069171 -0.08538736442756907 -1.1590221947594297 -0.2112122680448943
Ni 2.5207583495315475 8.200060095617317 4.924899767442314 -0.6275628300264611 0.3680935267473919 -0.4193525820326843
Ni 2.5755988760820494 2.269986728804364 10.864593115548121 -2.2607797514694354 -1.1279763811972188 -1.4813523992287778
Ni 2.67821699254384 1.218104322527099 1.7350841912420107 0.9290215903634388 2.8156703506421508 -1.4988994069736057
Ni 8.02622403471013 0.9385484322424884 0.427360918972434 -0.7520420182491694 0.22641802925105523 -1.2033698676368694
Ni 6.984104550110085 9.073341761508562 7.548678895564158 -0.38571252538073575 1.0212781711070154 -1.0803353822804878
Ni 2.5505235825110875 8.394169400581504 1.0239866093050087 -0.17055361398326757 -0.9666090616989096 -2.025591689335234
Ni 2.2146790768147606 6.332473905072445 9.859206506977252 -0.1972843451098925 -3.1116963699993314 -0.3715861132816827
Ni 0.6858924274939698 3.9067755823980277 8.982011264157217 0.4318224323649208 -0.9444111854456316 0.5891083827050048
Ni 3.2180364924781744 3.0110905804474815 8.725930295689206 -0.6347518915757325 0.05264308011701256 -0.3907904541242754
Ni 6.39032271945076 3.896368027614849 3.5570509114042426 0.2006733161867834 1.0027775411996667 -0.449224172781136
Ni 6.605172393911047 2.2975658147289093 7.609485548222862 0.657552691520332 0.03709279108723934 -0.9644737605234616
Ni 7.9200837924375165 5.5068857465134515 1.94898186405741 -0.33692044357869716 -0.08622554405814828 0.6728096176794026
P 1.587983587716352 3.041220171269521 0.5011181573047852 0.9860417165022244 -1.1138101169991657 -0.15372265846885783
P 2.4495777751212797 0.7125185775227483 8.869189259603695 -0.1392943988586698 1.955662311333948 -1.3520559921230844
P 7.613948464668037 8.368598954045094 9.442665147425284 0.2269175945952931 -0.3824302550850382 0.5387790383228334
P 2.9383778345969613 3.1080658216049275 4.904690052445032 0.6966928520549033 0.31415049687203317 0.12640340182861456
P 5.330639318340501 0.8117864703353039 6.4530044136220175 -0.0346795536600564 0.4843179311604756 -0.1570406670984973
P 8.786489371865187 1.9733994450101169 5.8966355936312 0.15770941103074773 1.900193331732366 0.03461373341912748
P 8.02981155808243 3.4191433365200994 1.6558176754808978 -1.2456192632243839 -0.970663177163625 -0.2684828196315892
P 2.0397219148537307 9.142121311161848 2.952125336269715 -1.0287914487649248 -2.2610399471093574 2.0138299208136154
Ni 0.25277465461005044 8.129169138979293 13.579972739525111 -0.6714590171887791 1.151123251627327 1.387187545718895
Ni 8.062538366345873 1.5289109046875917 9.39240058167622 0.8732222240056315 1.3669311094627041 0.5570986625676277
Ni 7.714100158811372 6.038689373912807 4.876617682056796 -0.9818533894524898 0.17993685497038042 -0.705683742699604
Ni 0.6699083292187988 4.420436057742685 2.081124176772164 -3.4631582017273135 -0.843752753791605 0.673306097699847
Ni 6.531964495095079 6.83796902774161 2.9434844498972175 -2.3018814066057516 0.9433788875263752 -0.04878642537508372
Ni 7.56166778552381 4.106864092982712 5.844661348775023 -2.101303221235936 -2.0532457036070766 1.300370647933651
Ni 7.950661823681092 0.33956469269333006 2.5981815883099664 -1.5883226320334451 2.222485740985243 0.2757970939048153
Ni 0.5452409577805449 5.090826460414637 11.700070319652891 -0.24597024035136997 -1.2482299613743537 -1.761713972575824
Ni 3.244074064453685 1.5897306368585913 12.799039904442454 0.22392303074334338 -2.7491057753480397 0.4662752147261518
Ni 2.8912075077565045 4.253672275983494 2.8566420937647585 2.0206831962900234 1.043837287354454 0.600221719009347
Ni 4.948661504278523 3.984645393096228 7.584872708836611 0.6687426466988805 -0.1833937031707293 -2.0592929382424217
Ni 2.0003525828462663 6.61283325111231 12.750456990274154 0.30905919839205487 1.0023008586735642 0.06196615729015135
Ni 6.588103630366283 3.4868017851195434 13.567570559116971 -1.154197519677277 -1.1540568803343545 -0.4178232898723514
Ni 0.33904244645241466 1.8064301280577204 1.6678368130289762 0.27204945393692503 0.27541579930599663 0.9712007948346499
Ni 8.183962952985885 2.427669592027425 3.663335962562979 0.9247903258909105 0.9244044033064015 -0.15515579137095858
Ni 2.3734083010214087 8.467900479889266 10.18280858916561 0.28449436456849714 1.1373480522201056 1.5089729891595238
Ni 4.772060060771856 1.0379807532096077 8.612465526531482 0.35430161516962205 1.3336042131758 0.9134828712978913
Ni 7.052809359693116 0.9348955113087157 4.933308959597017 -0.03272063016147268 -0.6310140217998552 1.3167159220608937
Ni 2.4247920993225605 5.754508941781092 4.8601683268442795 1.1327784305715523 -1.2717990069435452 -1.129422369615126
Ni 0.4580977728653047 4.206455236599126 5.900696782198747 1.2473876679787161 0.1954804591319343 1.231521390370421
Ni 0.8614503127696842 1.0602813216723075 4.272472206405567 -0.04240751843193342 -0.25256254885690693 -1.1256809002948225
Ni 5.395990167270785 4.539160659344692 1.4516007102654358 -0.523252403442144 1.6888861899808205 2.6034748927483804
Ni 2.179177543443056 5.156877997503572 0.9643832717774293 4.212385890456138 2.346109780296508 -2.7598622425335955
Ni 0.6450609928621184 6.9945588174371744 5.67662511731972 -0.8977047825280281 -0.08093138553874449 0.43911382382001146
P 2.9345567485051123 8.708797068833848 12.352825802747889 -0.4243196962299724 0.2798378396330922 0.24517448392295194
P 6.7806433938550885 5.2157171178127815 7.902704857601189 -0.20049770984086762 -0.30107000953899116 -0.07502710423916756
P 0.7460133400080736 5.5642020378911905 7.773748340381106 -1.1139016482717075 1.8014799396198524 -0.8010451876207495
P 0.08133214445281911 2.9855761889637646 10.81955194645909 -0.2350978164132403 -0.8462325827906652 1.0200386422729595
P 5.666231576299714 6.828953506766954 12.666131506007574 2.635015129448507 2.3453351069140123 1.2269088312990741
P 7.893186709654058 8.0089310509546 5.639733418641249 -0.07802475341491079 1.8945153075109826 -0.023656463076675387
P 5.507268789373516 0.8521358315140027 3.366685149709015 0.4410904879304081 -1.1643904010498785 -0.5351692094843881
P 3.106328114971471 4.296162005924154 10.540881726007015 0.11537902569365291 1.7391864808972692 -1.597167741128901
