# total energy = -340886.6557114119 ev
CRYSTAL
PRIMVEC
9.14227192321928 0.00000000000000 0.00000000000000

0.00000000000000 9.14227192321928 0.00000000000000

0.00000000000000 0.00000000000000 13.38063907464261

PRIMCOORD
 96 1
Ni 6.686136507426268 2.4292204749314017 11.720369631184283 0.7138945606451704 -1.1209174174679082 -0.6284467752933113
Ni 4.886132891237773 0.5322968923848794 6.0275894121963445 -0.09083861735012742 -0.8667191327797911 0.517441967407954
Ni 3.10264936024722 1.6555191521772663 4.838653416712594 -1.2534541858877704 0.5537431158318333 0.10935570231770844
Ni 3.417902319782732 4.4856191046098335 4.508271825751761 -0.06865153973012693 -0.574330453064882 1.2255782854131085
Ni 3.7976722916269794 2.791236154880571 2.357855901021527 1.1806719118187217 1.1221361203663578 0.9060960919155169
Ni 5.046936310466672 4.877063757581791 2.6484704379734993 0.14360176798477203 -0.3545630963611249 -0.6936160129017925
Ni 5.601021979305484 4.783849153996718 11.503067886269294 0.17388987744535214 -1.1041288851556597 -0.8464706669434003
Ni 5.942147568121671 7.517233012733081 12.169356657285393 -1.490228104451853 -0.10072450900527169 0.43837566010240625
Ni 1.958795735614657 5.94140704410339 0.3117798104670569 -0.17622983843243842 0.5117096929098671 -0.9131290875028983
Ni 2.8916640109400094 1.69435552291377 0.34960230325754404 0.14646854800960582 -0.7054387165683335 -0.5135781135771735
Ni 8.553482097919163 9.115137567833736 6.350598675152961 -0.8080925813858342 1.0622435577757834 -0.3978123939680633
Ni 8.806412190385291 2.165411078986828 1.1511528144621357 1.9537830920333643 1.1617897302022377 1.2902060486958233
Ni 6.811495338767827 1.0557404087289795 4.683210111457992 2.521889161455089 -0.24432499143846306 1.9202985871226734
Ni 0.7442394375527568 7.31104735613695 1.9595947701726537 0.08607333475100015 0.3834494403781719 -0.2150018169943136
Ni 7.780073327863608 3.953200620009606 3.950659982667875 -0.595636927852142 0.6248847689736657 -1.235112193045473
Ni 7.910341559178213 4.39197481424872 12.570950146216529 0.271775374339932 -0.3419832028135852 0.9360553572817686
Ni 8.36930188961935 7.3536686274113325 8.839544697726666 -1.034029814345729 -0.9674927498554434 0.41522904678261385
Ni 7.092583628472285 0.871177139239464 0.3644621518910452 -0.633811124929018 -1.310204346194621 -1.1883384272250437
Ni 1.936461165532435 6.765281154664007 9.172106720519105 0.5626427323143085 -0.11304446402320531 -0.8681733487278146
Ni 0.14346327224774863 4.7953958433188 1.3485810888717094 -0.6434566184385822 -0.46765538290313013 0.5497504497326725
Ni 6.480362253062515 2.210299633675207 7.0242734875810235 1.461950083442766 -0.28455555682373573 0.14921885706123333
Ni 3.7285292897719464 4.284443412976885 0.21911100051027205 -1.0336372068930004 0.41737077571596504 0.9861057369709403
Ni 5.984019173105943 5.860443084771357 4.573943506992704 0.16353141702916352 0.4931275590323056 1.3243281871905126
Ni 5.557833887177602 3.0374832466385104 9.192244402680426 0.7348269399224634 0.42004189479022497 0.8889851432668432
P 0.26841435826566057 6.117313496396486 12.25979658136987 0.3227968596931215 -1.5445768544060623 1.476966097235624
P 4.12647409801548 5.988215475876201 12.340963499136542 -1.161434146635032 1.2882558669479878 0.8557232958899198
P 2.574482032048235 8.675229731887624 1.1766240980094456 -0.9851618850004324 -0.16163034335170873 0.21827894508368856
P 6.655921299026046 8.0679177564509 5.836286459913292 -0.8271316002951562 0.3160505421082234 -0.7687567599006889
P 5.109240892992395 1.0402168311605748 12.886639192118363 -1.2915399370158982 -0.45875679486191956 -1.6719493050161658
P 4.074180303144294 6.425581760253398 8.170873450671507 -0.6504081100557508 0.12043072918494743 0.15138629702619735
P 4.966530029716306 1.4214404242258918 3.7946553419228723 -0.627720438650248 -1.4294454259468414 -1.9128526723675896
P 0.20293100782442836 5.807180209086124 3.5299061204341102 -0.8390761742515421 -0.9211067063917362 -0.3143433296091296
Ni 0.981651437813578 8.992192296255464 3.8708314934972057 -0.5415465737656416 -0.4494393741157356 1.171161401225125
Ni 1.5711634099960707 6.805872841591991 4.8520870709405175 1.7069587312118153 0.1574687557748514 -0.39264447661387863
Ni 6.035965561647566 5.8631126281459 9.004112904495418 0.38877265236329817 -0.5923446302541153 1.3232274979271663
Ni 9.180395104160752 2.303486810444788 10.102917984682566 -0.5750753016507063 0.18515053796083597 0.6422050054196683
Ni 2.5512058079674587 5.3888207078448005 6.800455131305162 -0.5375338530618227 -0.18522252884935198 0.6866673494981013
Ni 0.5317492703022249 0.015654312055582674 9.001302570134683 0.8995264091177991 0.9784371646820892 -0.0033357492414523193
Ni 1.880327616492385 1.4620686802411982 11.606112260526656 -0.8661138950956245 -0.37740014886029843 -1.3439747577768468
Ni 3.8965916728343637 6.816715575983115 1.3487685054442373 0.8420098029585693 1.058789537788912 0.33294037588502656
Ni 5.730759958853913 8.012488162341809 7.951110606179712 0.7592303084674925 1.1168884988141734 0.5072421440568167
Ni 5.15524480484411 3.022736762175709 5.1033221862092475 0.3097816783803762 0.894723331302201 0.09653412507300795
Ni 0.9508785508316875 7.689701970817859 7.052667555432585 0.9187292072984952 -0.854098101581671 0.08221642289875518
Ni 5.101113413334967 4.826123018941537 6.949127670042001 -1.2708762380189598 0.6963611797470974 0.4169059202644046
Ni 0.5637079099405478 7.736601825308977 11.015236261387034 0.4825754945480721 0.5685914936985756 -1.0516092179903889
Ni 5.286079857012214 0.8148580020812523 10.601265964851596 -0.8185011783136679 -1.0913998676247654 0.09144668324777153
Ni 8.341765366865502 7.615594715358797 4.391578953878454 -1.258174217071259 -0.887791122958742 0.41678404997455964
Ni 7.262739591783916 6.27980823591405 6.935198504680859 0.21789790759518604 0.1285340750183722 -1.1338675498706732
Ni 2.2673931212574727 5.337806831029902 2.6633622845584077 0.5673871889778294 0.9619322250485306 -1.008784923736011
Ni 2.162348417923568 5.7200635008120795 11.309101790201977 1.0906776447467603 -0.281682863261631 -0.20103609884284085
Ni 1.2337038721839655 3.560841739854586 3.682659769316142 -1.069986949166628 -1.1303533660698277 0.5559041280388942
Ni 2.075844241862175 1.2542282724437233 2.610308766898096 -0.9363158100320068 0.9402084602181938 -1.4272250212567548
Ni 1.3205280277594302 3.362436156586318 8.313939948321806 -0.18429950281445032 1.176988035209231 -1.0334574867820265
Ni 3.9347789422708925 2.8429539866264286 7.4416693933713995 -1.4352898005427603 -0.11628071157231587 -1.0103772079237954
Ni 4.199027167263337 7.257409647306661 6.1890007925019805 -0.3042756609604824 -0.19997551878881042 -2.1646474898205366
Ni 0.6780009354583146 8.889378307248231 13.04780921644767 0.15879698766797168 0.22293778401193864 1.54000517587498
P 0.4547850548960911 5.688111260764037 7.840305357365328 0.20445155228229303 0.1812645726428685 1.0171335528110224
P 8.75680622343231 1.656387668001176 7.692850569236327 -0.10721165939151213 0.9946073466840484 1.0327936279457826
P 2.1747270539822368 3.5569197052392467 10.457196559981476 -0.8221678285319775 -0.9861376186501404 -0.09706402943454896
P 3.9356931694539554 6.4380792458458656 3.8409655198809136 0.2076196655976295 0.9095118024652852 -0.4193371554137166
P 7.308450950937051 3.85104487457418 10.315469405154362 0.7081535443963353 1.2508496583853876 -1.2140227193650253
P 6.574454514743328 7.886178534729865 10.167438653900033 -0.15997481002615674 0.31561088346764354 -1.8229303961841445
P 2.3425517379770575 8.817702896096115 5.72070528829459 0.7577542381425982 -0.8033632942309649 -0.8632633130207068
P 7.193560020841562 3.7549595976342895 1.6264832968431948 -0.3476254887010271 1.6584209315124274 -0.47591325203654816
Ni 5.577599478875418 2.93643371609459 0.3003830544029972 0.4347568324028964 0.6730857541589247 1.6192483750780242
Ni 1.7473258459004228 1.2810059866356296 6.936884339606426 -1.4526092656578142 0.896622862317759 -1.1942267676850207
Ni 7.2801921887085825 0.8898639428612656 9.178262212142664 -0.5716207674432027 -0.24659733241240755 -0.5624702112921861
Ni 2.5410396016918013 1.4849335020895966 8.982636793738092 1.2115017527153846 0.9465310600021117 2.982486609070173
Ni 6.86039735078985 1.7968403901350989 2.521808832896077 -0.5585438796545865 0.688872070458904 -0.34265271807678405
Ni 4.138496185472755 7.069490249828122 10.367145182449798 0.4359647366680685 0.7603513094458131 -0.09547637323245492
Ni 7.977866378919225 7.166060067175035 0.14617395584552956 0.7934735459210787 -0.006404103754130906 0.16534918696419265
Ni 7.9718781908701635 4.24529620499814 8.009529723177419 -0.36170047873685446 -1.1406524340029902 0.505299161397833
Ni 3.1063428380667935 8.67106999820469 12.23437283763608 1.1874022885640194 -0.7307928790624059 0.6875096428937385
Ni 0.2086458419457533 4.8790293460253755 10.164669459762537 0.3442311183074975 -0.6430827800389312 -0.8702153188585077
Ni 8.892395256952339 2.902634737136762 5.678007221936828 -0.08695316625279217 -3.247529292671962 1.2941159252731904
Ni 3.8427528340238006 2.77795243391067 11.772460467620832 1.054305019654997 0.27586239992511197 -1.1323063760311403
Ni 1.283282412321456 3.6112522267286633 12.582791216691556 -0.3820317340950388 0.07424574598845277 0.5415946533947575
Ni 3.34337451981946 8.708900719039823 7.960811470819189 -0.04917903282781208 -0.8965634698347335 -0.07898917421070913
Ni 5.801237732396216 8.333793305829197 3.536047898649925 0.22360061440691814 -0.9796191008053323 0.11575492097583291
Ni 3.427922249709099 8.67663764174954 3.4646622975148404 -0.36598856458924706 -1.4001641604842208 1.0442502065221564
Ni 3.7096596407135327 4.638240190550321 9.408382336391378 0.05417674315271959 -0.09527248475176495 -0.04982823637603677
Ni 7.618337396907985 6.133312472100082 11.032363393434531 -0.8127503918728196 1.02682995416318 -0.38990316642331563
Ni 7.85621016766907 8.681812167605676 2.2535535501602695 0.2833378823665507 0.25950889826775303 -0.23725111531081725
Ni 4.649018929038631 0.5769806601842521 1.6352077668511622 0.7804941029422752 -0.9287284846030521 -0.2887004322300447
Ni 5.95525758592679 5.4848054197945535 0.4135113544895423 0.26108575583656973 0.13597819000124323 0.3132254139546025
Ni 7.785595260049307 9.150956988866133 11.47771179534705 0.19319269153902213 0.4130675203549209 0.0898662261345291
Ni 0.10627342466794093 5.064681460089918 5.807799140889058 0.0790483095834187 1.5706995196350433 -0.4953507919358695
Ni 7.267767841290761 6.187005034561355 2.504133164538743 0.5573629719726079 -0.2844653111027746 -0.3408264635013227
P 8.869036752425087 1.6067542742327017 3.631157695185488 -0.35017782280923565 0.3376061567918121 0.15456726585734024
P 1.9048563318139573 3.2771844717657204 1.470037084368773 -0.6674246992184054 1.0025248017589121 -0.21892043532242944
P 4.963321092303757 1.1187215193701692 8.225279110335569 -0.04046633554516257 -0.48816867236513345 0.7637989016747814
P 8.908174818132 1.686703441391535 12.486852216100957 0.15550314740804833 0.06699523507362655 -1.3924063709156729
P 6.049861814830118 7.67075004131297 0.987963262285443 0.30633691436488536 0.5393696207189808 2.138575218213517
P 2.0289352450992273 3.417106942133467 5.942167681119699 0.1652165180410703 -0.5829513619646735 -0.10164779215048944
P 6.772128716265146 4.134866703555996 6.028325365078711 2.7968547605975447 0.5855471477163077 -1.2748709610006494
P 2.532756703413253 8.806915015335976 10.145200077672031 -0.8310101094139559 -0.42812827134278525 0.20892527178293052
