# total energy = -340873.63843014435 ev
CRYSTAL
PRIMVEC
9.18726906074785 0.00000000000000 0.00000000000000

0.00000000000000 9.18726906074785 0.00000000000000

0.00000000000000 0.00000000000000 13.44649693379529

PRIMCOORD
 96 1
Ni 3.029685641082348 5.4424278058934705 5.578521575208585 0.495293970556005 -0.6030604740097227 -0.7212247757579965
Ni 7.897174163781672 3.2588069383590943 10.378140986902155 -1.9283785359173304 0.019422370390669776 -0.4557498897147958
Ni 8.990413217851462 1.6492433762114704 11.524293197054211 -0.0009711056640176824 -1.4865023188608335 -0.05180490048643337
Ni 2.3101754956264084 2.089653481971741 6.938445912608105 -2.0462021664967343 -0.884018029069555 1.855696277761256
Ni 6.639556495859062 7.077329855465982 2.791519477645412 -1.2896851431953467 -0.039852613220563625 -0.12812012740940515
Ni 0.8795983047665497 7.434227687588752 6.452354868786187 1.480385150219502 -1.4938988684352208 -1.8315726452401746
Ni 1.4139298597453207 5.045390796265504 7.440982167630367 -1.521696350263463 -0.6654632046166603 0.11129457121163412
Ni 3.6203902775836387 5.913229396933483 0.5878032970057216 -1.3227811544183672 0.5228867925726092 2.2680839984403325
Ni 7.186198991066023 0.30027853179568686 5.117642234501741 -0.031439449456203916 -0.6942672733325462 -0.2909959131324408
Ni 5.793914336677133 0.06556770016458895 7.766400741844279 -0.5694687540972063 0.24723110934166453 0.20209307935244547
Ni 5.288283809513934 4.576931958776378 9.381405923318141 0.6769884316474405 0.21861498826686865 0.3922369567628148
Ni 1.6574384200051613 2.3050030632768026 3.656855466284915 0.5483489413994556 -0.7628581350280668 -0.14774870027361003
Ni 3.7164982967829667 6.378353255838404 3.1246700573041326 0.36135749357513897 -0.36372933624142517 -0.5593900297049657
Ni 4.797940897678877 7.125820260334928 6.102974978744557 1.55200991364534 -0.574790680530752 0.5123049032917049
Ni 8.327818202778834 3.5741507535773085 12.938730194038783 0.15108676350790753 0.40794022643068456 0.38281952010365683
Ni 6.7864701116717425 4.801119692693022 3.0656528798132006 0.586675604893796 -0.5626830986339406 -0.9035393869319343
Ni 1.4934548587118999 6.807619204511515 4.001730838420663 1.0401428692220023 -0.35242985206820593 0.177640602737036
Ni 5.616260119369284 4.753355082061407 0.3111388022760928 0.7075058835100073 0.5274026781650917 -1.0623050071413382
Ni 3.4005389345533428 8.30836875467206 7.753693830329645 -0.24424554435077936 -0.04255227153991382 0.3358030421448023
Ni 6.535519863662026 2.7574393039316267 0.8595360658290127 -0.051940140512717003 -0.7149749381935429 1.5601839648157
Ni 2.786066833596583 3.6706905744115055 0.521473053528491 0.5278621343000135 -2.199343755651141 -0.29646156423270237
Ni 4.616758769141456 2.5667759139647353 12.56169019373968 0.3406526569276198 0.15446236484835976 0.3757453868656948
Ni 0.0078027474147776875 8.790415562756328 9.681826857780646 0.6421409849509522 0.28515256697778635 0.6617016806916991
Ni 2.801216639892319 4.139314782739517 9.30945307131878 -0.9211452729391556 0.1214450293820747 -0.25213805972497866
P 2.0613383194469033 6.9716487021489115 12.587171083831388 0.8030048824502816 0.898760220375736 0.064026896473922
P 8.741980281500345 1.87513075486111 5.350401690233983 -1.0033879210901557 1.3059509702349055 -0.07071510712737498
P 1.920267806608199 8.8875249942578 3.3039651208244853 -2.058221045334481 0.43103850301104474 -0.19646339187049391
P 6.680099913192647 2.9324200260108166 8.45143198611934 -2.0012824231659083 1.8102898246019985 0.4877302992761342
P 8.160582348320812 8.205627527379631 1.5579651042345002 0.3777963558574526 0.346067657295604 0.317165372438957
P 5.3149268891122565 5.718367425112648 4.3879553513661245 0.1386711634523741 0.1897939502701183 1.2612549128791117
P 7.756085276405315 5.371152974333544 0.8310702320954119 0.8407484197476424 -2.649254670086657 -0.17523456439870466
P 5.005233244222652 7.385406541042033 1.3357241525822998 -1.2580567176567883 0.7356790035101137 -0.024560205837867378
Ni 3.5820150556932266 8.716605045000149 12.991749922439444 -0.404793967492219 0.12903261192134552 0.3089188161594486
Ni 1.8281562493486194 7.435532279762187 1.3776208546141033 0.03286821148293049 -0.30308601152775544 0.8987105980847231
Ni 8.648600881142636 8.016672969414563 3.626520023345018 0.6444007275194064 1.2122944238200088 0.9095650243007238
Ni 1.36695535423283 3.783491861069507 11.296522428295036 -0.6943981424834558 -1.326593586185922 0.2085745733117311
Ni 7.2445289608486965 7.02833415081155 5.247979261169852 -1.6435049336325436 0.39772214824710217 -1.4030085719115515
Ni 0.08134775310185748 1.0370864669991164 2.4073666938204408 0.14936695260332342 -1.5912022675740853 -0.2827151611808873
Ni 1.1660114104485164 5.089682619280508 13.363532048788851 -1.190802315384504 0.7848528941316032 0.4533384520598257
Ni 6.076992463774896 6.729821412084413 10.477630839756705 -0.7029776566223507 0.44067011256353783 -0.9811555920545166
Ni 8.049434770051672 1.4508443058922378 8.476120014911276 -0.38829159896182164 -1.1209017337386245 0.6242965005703636
Ni 2.305131685040381 0.7017511548133335 1.3223401393551149 -1.0814448132945826 2.040617216209789 -0.20778704441342924
Ni 5.892089491362539 8.888452908409329 11.871239379583567 0.09238127924689896 0.826727679988518 0.25372057372075013
Ni 0.9222364193926925 6.138409355883444 10.93159859812499 -0.08842332304041546 0.6103138131380264 -0.7223840861734204
Ni 8.45079898329716 8.801550532574662 7.049500699462093 -0.5336046932107454 1.492795608068713 0.37619944368397795
Ni 5.678595738360532 0.37245463442754256 0.634133774973439 -1.5884465592058192 0.19061361795793622 0.7076208118213168
Ni 0.8605586088494588 3.7409731809381155 5.298954822256504 1.7548157027940938 1.737238356031963 -1.8250482138580957
Ni 9.109829338064907 6.154523825406015 2.3705771945295706 -0.10838742486716817 -2.227528188505157 -1.083897388600133
Ni 0.9055955193663334 2.0628358442657055 9.195709170879127 0.5814297831138244 0.7481426831947632 0.30164542242648695
Ni 6.738264512136433 0.2205661125450368 2.810976275567249 -0.6473502970660335 1.8279910985365035 0.19677783778711916
Ni 4.405589395152683 2.7529651040128744 8.17423279234398 1.2344195378538225 -0.5355600171649034 -0.9765180932825054
Ni 2.2031805628670758 1.3614797420119333 11.832836595886675 1.1574270823581678 0.5582523165560966 -0.5511313892405991
Ni 1.0724207029077883 8.952129868649319 13.046207458411535 -0.35294587247267606 1.2177328212267609 -0.7414467592318262
Ni 3.115715226378448 1.1283711700642656 9.242247281122337 0.16925854932092785 -0.7560483111950851 0.24461526898537225
Ni 7.583401371532877 4.28834147038241 5.374537564169414 -0.7567759333897289 -2.3616852661372616 -2.101404265590175
Ni 8.232959652139979 5.716943398444463 6.784846721270012 1.4596399472523507 0.8592217959614816 3.1824035067069065
P 3.4747077557937764 2.7237312146053356 10.709502805320257 0.1520871797479639 -0.1427363346606832 -0.002458745953137701
P 7.960079393440195 7.860627208387836 11.576519145428222 -0.4175795492926615 0.11342884394581756 -1.4289741427373779
P 0.9247261692448118 2.3019712645638903 13.291377995602181 0.12314812811611049 -0.2302857397365776 0.6229726395526174
P 4.974713137179333 9.097803203170354 4.7013790273994935 1.325558460053188 -1.4841831838093535 -1.584201667886536
P 6.868815602168214 7.483756253835152 7.314343016665128 -0.8715381514349894 -1.865384194472981 1.176240358409929
P 4.502349710438729 8.631356377554344 9.940040560524995 0.5987538762145689 -0.13202974687645647 -0.4150629535183948
P 6.841630473709097 1.9398183146720716 12.292383782613603 -0.30906382637774515 -0.39132241536834544 -0.5235897321769047
P 6.200827660294134 2.676113600274954 3.1663545334260323 -1.33506794220552 -0.8506219701076124 -0.23564494716596193
Ni 2.9807174982343962 8.20326639929109 5.2222696080843525 -0.12650418907253697 0.5100587875700054 -0.3697644866919116
Ni 5.171008322937181 3.551862439402987 4.986001534387078 -0.043894130279788925 0.3578715919090675 -0.8731173229966512
Ni 9.032977834326989 7.117919209143702 13.326540429583787 -0.3086902450884103 -0.9672384677527922 0.09424147238408931
Ni 4.137119025489863 1.7690361744468244 3.693282068457118 0.4342994331505037 -0.21350029274812263 -0.9095629674181948
Ni 8.0250885076601 0.7138030140606022 0.3115981657174432 0.6183351407806061 0.5169642564405872 -0.7507952903262618
Ni 8.039687077826217 6.603165724035284 9.198936658418058 0.5258646442540105 -0.27288274847149774 -0.42912303115588674
Ni 3.2600380323819134 5.1172995493744935 11.974562160992745 -0.9668569160436574 -0.5975135760495645 -1.5910402880749244
Ni 4.452563900665174 3.8895496924084845 2.2579357663491595 0.1907092629955361 -0.052957526033637826 0.7294322512694534
Ni 8.98068390016366 3.185630342151977 7.048787767401117 -1.4661355822790234 -0.4227099285406913 2.9141520863598327
Ni 0.8078291981437303 0.2419889859958535 5.017372382523777 0.35381361978961 0.0735147813596992 1.0036398891999618
Ni 7.8024534221752235 5.6076700230160315 11.696085018123547 -0.25376196848164684 -0.5297246414300489 -0.011715488664715307
Ni 0.6065793183074774 3.3767622828290467 1.722751632823242 0.21010617946490912 0.7882310665752167 -0.49738504875707884
Ni 2.416600817718466 8.328902300500422 10.69656713081183 -0.2163498463817758 0.049009854239799464 0.6899953854300698
Ni 8.23461336052884 2.8566434327256567 3.37232758816625 0.7325592269342094 -0.28807513994121997 1.1892884498431389
Ni 6.8806396171485735 8.981189199949146 9.834511915870452 0.6365467786926263 -0.8856280538691522 -0.8635589898842547
Ni 4.3530106556557175 1.1968255100943004 6.110006914304749 -0.5522457053507005 0.908757440797764 1.4059473428249012
Ni 3.8039978450913883 8.768439615722126 2.57114537901886 3.1291261354400044 -0.08191868915267828 0.2627405178311733
Ni 1.3191815563323896 7.129972905844736 8.635017504181906 0.25138704049156707 -0.024126460734558448 0.9922622434906396
Ni 4.906828407816572 6.902110264397289 12.396796174105663 -1.826081025997984 -0.8851773394849788 -0.5986055235621626
Ni 5.610343518244692 1.6946376714857156 10.447659212662359 -0.40723857237796957 0.8018183183413482 -0.8780754383328748
Ni 5.821476143158157 4.614250644751683 6.910571738986964 -0.37896055136888285 0.7205573173773269 1.279387103703448
Ni 3.4109572974031694 6.450234447140914 9.702911639738629 1.175863948907117 0.34809728613112306 0.5688766290391623
Ni 6.709581858858515 7.036676190906473 0.16517239387947621 0.9271290013264162 1.803703172523416 0.10161899579508306
Ni 6.588199663116089 2.020712216693875 6.514800735003358 0.14443017742333833 1.3885607719173376 0.016858466318235482
P 1.2925568512717214 0.16868836165957213 7.813880547142255 0.6040297799015274 -0.25010226024187254 0.8895181329521779
P 4.044704288358991 1.9459370357108587 1.2410484285931023 0.9214586904145163 -0.3476946513760657 0.07297536391646141
P 8.959939047152277 5.779343328317498 4.626805047603789 -0.018489317053439123 -0.2297496647274495 0.323067853966321
P 3.1041484549252454 2.9669641568003655 5.317403776788018 -0.0134538115120607 1.3004107571429668 -1.6489073355950377
P 0.10324193344349965 4.523664174117386 9.582376510182053 1.5956790723985164 1.4428953808041602 -1.4887669465252942
P 2.2185233018081787 4.94598454755728 2.322627001067652 -0.6010323878361004 0.1158734488315682 -0.32849879517390523
P 3.379518463477149 5.700240943716961 7.7134756423125355 1.694534132295217 0.6055652427094473 -0.07134708428441906
P 5.288899356525344 4.857382526989617 11.54994864525363 1.6518923863652908 0.3161726695083845 -0.420665644417153
