# total energy = -340855.2906040867 ev
CRYSTAL
PRIMVEC
9.34213525766628 0.00000000000000 0.00000000000000

0.00000000000000 9.34213525766628 0.00000000000000

0.00000000000000 0.00000000000000 13.67315926709378

PRIMCOORD
 96 1
Ni -0.09046923711138238 8.850346502619269 5.4266987220214435 0.14287080335601846 0.3349622914110619 -1.1314391429348385
Ni 2.5992435876730373 8.089607092539035 7.82905961335503 -0.6125604430803578 -1.0237240615443466 0.30590831146789893
Ni 7.406248588178915 5.136707635381436 5.726606485158121 -2.4438268699340235 2.6750037540263025 -2.5149731510615463
Ni -0.00030548782048143373 3.7978675580470247 4.887128757115696 -0.5614926778702652 0.4040997696386717 -0.4939927352460783
Ni 6.047304235930864 2.3607015079123976 0.6428846378936437 0.8446220437704358 0.269392218819736 -0.7320372929924682
Ni 2.3793016990615885 8.028023737413235 12.016313905320725 0.20216738423380667 0.5742358364685465 -0.5237432270356335
Ni 3.548198995283529 3.2566122719542783 13.193969453276651 0.6228895929205078 -0.9522057417893859 -0.08473558977618309
Ni 3.0110729329416324 0.6654589733496479 11.179858358009973 -1.208677653003028 -1.5783961169483527 -0.5058372932894901
Ni 2.3928010844009058 -0.12865801731211648 1.7754326203323672 -0.6167364288349184 -1.34407348813824 0.8050280835278975
Ni 2.339943283535953 8.536133127876989 4.423144139547904 -0.36007502731828955 1.3929445028073302 -0.43530550581751487
Ni 7.963974058599147 1.270969465230508 4.532064093645551 -1.0203944829504812 0.20811228896333192 -0.28968439340986885
Ni 7.608860816026051 3.647795498468623 2.8697637961648077 -0.8976518178029058 -0.4373351346530339 1.551136252791135
Ni 7.726506324384543 6.097265974889112 9.591981246250434 0.18167749181057097 0.5380125924704541 0.6562440000112375
Ni 7.199675295014222 9.197855247153468 11.320240754976652 -0.5908330787055954 -0.6580185754131571 1.9311692112885899
Ni 5.89553190774917 4.010886924487932 9.671982620889356 0.5007449663682473 -0.3727683065152419 2.2685228857499644
Ni 4.896437260611956 6.583720295998859 5.752502883885171 -1.0770968207385323 -0.198387091255768 1.4470970775903333
Ni 5.3752497151420755 9.427895983897653 4.236505094436522 0.7406317195296986 -4.560075913846514 -0.33373433254123175
Ni 2.4909495566326467 5.160875739099645 6.775350843938474 -0.9894628263686314 0.9537448041417317 0.5524663060019388
Ni 1.4249932479912846 0.9305308486027396 9.267995063893302 -0.49851916236152205 -0.4666732214955189 1.1969611358970482
Ni 6.426977951899853 9.104461921729833 13.643365392542798 0.8386007772770203 -0.002600927957956811 0.3322379505013633
Ni 4.497032955136643 5.376239981471465 0.999203950118855 1.9956082555992662 -0.12021141408528975 -1.1669782163817128
Ni 2.060501335944496 4.549208780133243 0.8388265812201755 -0.7036875382051816 0.03952196935402226 0.009315363863654925
Ni 7.145173278357076 4.747738494905442 11.6662809158601 0.3688077792055971 -1.091037084968708 -0.8005204254655309
Ni 0.3717104799390695 0.3302164523106189 11.826093085580212 -0.582400631667526 0.0561624061241807 -0.5203773958871941
P 3.1813146623799553 1.1461491970515345 4.784156006275496 0.7304241828690775 2.4188491169427633 -1.3870332795292175
P 3.408440652947069 3.1910117986998245 2.2941509395098416 -0.1876589062049865 0.4859215282021696 -0.3013314907304939
P 7.686195011070249 3.6392381026410696 8.227468047219844 -0.43006456913354973 -0.2650509111319048 0.21333059993947778
P 4.965550376695187 4.389215372990581 5.1814714103239075 0.5740743711900178 -0.12290644441894961 0.5849267405234895
P 1.0383129306351067 6.217032147934127 8.251040122713384 0.7897868410981108 1.22447373949502 1.296173836243484
P 5.421689469136363 7.846038944049985 1.984809488265454 0.6931149048956579 0.01737834337744749 -0.3405205022251297
P 8.747517620660885 7.887387234369581 12.613680857962635 -1.6212052416940788 0.013169704612738609 0.7753557532744453
P 5.415729186889661 3.2307625839031426 11.883944257700435 1.710255913905848 -0.5739684417397728 0.8314631377909746
Ni 7.63401918607365 3.0492168708934884 5.966857241443717 -2.327348954749237 -2.8219662109531916 2.0342609349744576
Ni 1.351732223886838 1.8860649878090425 3.862243277378998 1.7903645464329814 -0.6422692829987003 2.28343476986479
Ni 6.247767772685928 1.6978396481436013 8.734058406502854 1.264446937453848 0.6605030323979076 0.3427141674423388
Ni 0.10150416718944567 6.527602089955068 1.4109333345409922 1.698750227259094 -0.22862095043964495 0.3002092042005927
Ni 6.7194521780714815 6.923512436871969 12.078582038955432 0.9573716022610416 0.27453776757641746 0.6279171280420863
Ni 2.1427121255541786 0.828549298305447 13.365526555348731 0.8267485059241246 0.1582927943380435 -0.3042715471954244
Ni 7.713558125021018 7.496418876964444 7.378679013040605 -0.20941043894946518 -0.5098366442568704 -0.7881673032168168
Ni 8.535030755925405 5.48864455199234 13.34025888231949 -0.443215761803527 -0.4735123559045394 -2.0880257874007393
Ni 3.7980730850210493 1.2280797226057292 8.584022781251665 0.16191882112640502 -0.7821696908724851 -0.3574722995881198
Ni 1.4311030044009132 6.621649364841509 3.4521992141438593 -0.5642653555193959 -0.11297555845848285 -1.1610615937869617
Ni 3.8088912775628687 2.6234490599319793 10.655957956446535 1.139091517273774 1.223775942097047 -0.6851835658637232
Ni 5.1151366452440765 2.100962123421716 4.089395425924623 -0.479370100236897 4.666893680233717 -1.0488547951737033
Ni 0.2678735815944491 3.121328812370436 7.280096131522857 1.0072075519465622 -1.557224110856428 0.49752131722462706
Ni 0.8753608692800148 3.961373608018464 2.7475256941503927 0.3393185114972285 1.784136563245398 1.6983694468809072
Ni 6.350979682186812 5.33806801711406 7.810012868144096 0.277080074382297 -0.41930424529325205 -1.6557716668150386
Ni 7.405603980851294 2.3388128851788195 12.151172297753744 0.061364776260726575 -0.49860889386185103 -0.8306794655474147
Ni 3.73229511119812 9.319162872503664 6.2714407432394434 -0.42191468633290563 -3.4658686586799408 1.8228841163272411
Ni 4.628775745486159 7.580348619447784 11.334310944775646 0.20379566386584902 0.2284358310120324 -0.4568629202733164
Ni 9.006257396686994 1.6116491089459954 2.5479655418675167 -2.4730153185725214 -0.026228594679225795 -2.9089011223735386
Ni 8.909360770569764 3.731865372979706 1.0155414761267427 -0.2667336981509664 -1.5147947380476234 -2.558031929924233
Ni 2.8421204181585518 2.8949875611586875 6.888073047055569 -0.9361800557850908 -2.429399895875416 -1.997747670539772
Ni 8.828672748994897 2.606530453115714 9.83698995198469 -0.33205540217691204 -1.1190130013563437 -0.43482650929856725
Ni 0.6290395935525585 7.373840721229371 10.05209635142546 0.27995688170945976 1.0671880462652523 -1.1401904067649073
Ni 0.46437044775084624 8.95704302854338 7.70864042506073 -1.6932910039167353 -0.5262323120060745 0.28710274872562164
P 5.8936541385774035 7.012393511002255 8.993561434973408 -0.14543830697287854 1.45222102908046 0.48602900031431134
P 8.423588425328369 0.2990538919809577 9.861807334098112 2.684321174772487 1.130887898417059 -2.667505645877045
P 0.992545810373989 1.2475674165972972 6.377762649542721 -0.23934579305631679 0.1340776305444207 0.019407972212966574
P 8.550426594706854 5.604571107477176 3.304364595941766 0.25354779558831175 0.4684621950751416 0.37045765610419423
P 6.72857010201001 1.3104306442431557 2.6533999453284163 -0.7713006093684651 0.15535119521121635 0.03283735824499506
P 6.624853717209249 7.956995483617508 5.352987407001181 1.3396172521390992 0.19121139944293522 0.8710781810794352
P 5.793263553901761 9.197023797122188 7.780109627637093 -1.1115819989995952 -0.607070109389748 0.8311211810705236
P 6.508843082507767 4.437588948967733 1.0419713107727375 -0.4913159597448635 -2.599904401788303 -0.06811572183131495
Ni 6.015298080794186 6.527387220845861 3.809095870323375 1.029335237083537 0.81929333519766 -1.9651797639060802
Ni 1.5175738076540066 2.390661735444017 11.305063522158484 -1.0554980115218338 1.0669368494863947 0.8919537389768638
Ni 0.16790059036148375 4.808359610107401 10.32134789795939 -1.308557040399185 -0.05129427939860198 -0.4731061216050563
Ni 2.220532111627889 4.785508747449982 11.035647554045335 2.540026237375432 0.572463317949156 0.6164752047537319
Ni 4.110249874293452 8.302598432574392 0.0442592996425945 -0.6281387571345892 -1.9411232371775085 0.3546847095406536
Ni 2.054634475049623 3.0839135609628476 9.005552999694203 -0.30552136044212547 1.2544121789256653 0.570019998614986
Ni 0.8806419782989185 6.496801070256986 12.146756270452778 -0.22409349488293667 -1.8660848200844313 0.49983556718010047
Ni 9.220565977783144 5.28227678580167 6.926972763743723 -0.4158548532920709 -0.36095563015103 1.3164804090113198
Ni -0.08366349163062628 8.99330919732347 0.8467580539904732 0.4656494082166948 0.9492577149046555 -0.9713355206403012
Ni 4.660837953433935 0.6990327387700203 1.497799310112323 0.09580058934109308 0.17429096953851275 1.8174338918459472
Ni 7.514449197867477 0.5416541952650575 6.724022350602965 0.26423895675357073 0.015705840771031016 0.29500117763709194
Ni 4.76235893646671 5.192909920641873 11.753379510597485 -0.299170221413117 0.5657475964918772 -0.7749803722128975
Ni 4.808443689324046 3.4639235937984214 7.754636427633828 -0.14808602900837076 0.5620590918966966 -1.076738666068165
Ni 7.901391095008776 7.950586778882025 2.377790141588992 -0.8716983311619373 1.4403733857132548 2.307575371666735
Ni 1.5855378411097385 2.2110965550931416 1.4945034048197894 1.2672705229455723 -0.5131304845167937 -1.239876961423968
Ni 7.068166058044278 6.293562919352595 1.127159438865216 -1.5829503119779382 2.7675614109500657 0.38352271681826855
Ni 5.228372665796232 1.448899771924373 6.337044019134452 1.9010770198889004 2.6689948288280614 0.6059275111448726
Ni 5.262069747401019 4.459197307645823 2.9790125934208924 1.0295625226029947 -2.1784363160745124 0.6763549118284996
Ni 4.090855601653714 6.077077620758826 8.133260087608258 0.13836623061744557 0.7068381680190213 0.8619741618956381
Ni 3.1088664040364224 6.010075827226934 13.09898235959081 -1.0835716298295983 1.3421865555281725 -1.5658733018909936
Ni 5.118733367289501 0.5093640392188181 10.611355800442727 0.9562613999159982 0.3701306117820787 -0.1927329782937842
Ni 0.04012166797007992 6.603609701803292 5.200257509963238 -0.6624552710282721 -0.19697298451706077 -0.07815382279360733
Ni 3.4646335960723236 5.683969914396799 2.9381977390202403 -1.2672070166974885 0.4451574589109301 2.0400788272078154
Ni 2.1484108280157588 4.02810447963005 4.773628354137864 2.459985481971757 0.4349872032461476 -0.5976277330299257
P 0.8021998060220253 4.154830543386339 12.463535929729806 -0.7768899305307846 -0.18234366463966015 1.3859477597745227
P 0.5887095959678996 9.104788896461235 3.1611935716229858 -0.4724155232959348 -1.13601287834845 -0.09977191528401527
P 4.555225115191042 0.9015440715571803 12.957943210520773 -0.45141475267455167 0.4933862120103309 -0.4721890091074255
P 8.414255632280634 1.6338460221406097 0.19187437766788912 0.6106907368614708 -0.46949603565629466 0.5324039880344249
P 3.703633440456927 4.494361104474328 9.572223564552079 0.9398965854047296 0.6129669344901573 -1.3705697346565557
P 2.390913973093956 6.728971813822875 1.3651979775394967 -0.16700574873100915 0.9294435083922057 -0.012319697907617493
P 3.0999633492071017 7.955715611097447 9.839424512413357 -0.34036032249818154 0.8584913455533603 1.1248648321514305
P 2.6669927520195627 6.701253698735156 5.28575579694379 0.44967514427562555 -1.2543620424140203 0.061153174470552754
