# total energy = -340871.39388105064 ev
CRYSTAL
PRIMVEC
9.28744887173470 0.00000000000000 0.00000000000000

0.00000000000000 9.28744887173470 0.00000000000000

0.00000000000000 0.00000000000000 13.59312021350042

PRIMCOORD
 96 1
Ni 8.430022377168788 4.311150216409499 2.442955712377035 1.8126395557810977 -1.0547660184518157 -1.5577871824487495
Ni 1.0637472531494112 4.373041776224645 10.862099700588518 1.6928415750841428 0.4671671304128019 0.053705202832939766
Ni 7.94159543679085 4.105721133043467 10.981392338650592 0.5823515235971454 -1.2377239196367071 -0.9320585774175497
Ni 6.511467609939798 4.177197340176925 3.723523105031925 0.32377696421820373 0.19423990185661386 1.3873610951822817
Ni 1.3843592784163212 4.740128196046626 3.6532189739561898 -0.18839269904721748 -0.3491660937152696 1.113928901965217
Ni 2.8973590122647557 6.209189008903845 6.6708913149228275 0.7077655649292972 -1.3068891657784587 0.20193238540486516
Ni 7.406043980431211 1.6883374826104631 7.341127498492445 0.26971180694268393 -0.3394270120506348 0.657738582278893
Ni 7.139605644900458 6.3484357310389745 2.0164983463854393 0.19516935564941873 -0.21630279519392426 1.1209040477314696
Ni 4.0979011010260065 8.681433620295444 7.6245990154008965 -1.8721497953315887 -1.8894705459982233 1.0353009677486686
Ni 7.35030071182219 4.2438997985491325 13.765752817007945 0.1731799958625211 -0.661859289315486 -0.2798090432776858
Ni 2.9128319022185423 3.565618826697419 6.515998027538512 -0.679782706563126 0.5883187969241739 -0.7135585174619905
Ni 6.082099557446693 3.647469114310098 7.838214985017986 0.5900861732372419 -0.5194798237735893 0.6146173256093866
Ni -0.017322949784995822 1.541484339783767 5.578059486635794 0.4909200098580255 0.31210929807228827 1.7046151706803028
Ni 7.072438814080659 9.263292297129022 2.044908652729157 0.44060763475671866 0.06798999488672806 -0.26265258610305736
Ni 1.254353567988286 7.125367985657268 4.491779024839397 -0.09238359323974411 -0.8093117985049159 0.20128009653284692
Ni 3.0151703022190084 4.091947846247869 12.689721983874811 -1.1155571815972596 0.17644246866387678 -1.0149761401483872
Ni 1.803919784816271 4.823910273041291 1.1551199621724244 0.0005553582828377533 -0.7102842175860928 0.4033801178638279
Ni 4.9943535362056934 4.586095855180148 -0.0011544299047153018 0.048167303733846076 -1.8611501017869754 1.0639584835843612
Ni 0.9152214407664861 2.128516125683526 0.39649605567291857 -0.018464120242458523 -0.1278254789871218 -0.1850528360407071
Ni 7.044697204061475 4.8586546195701725 6.168245290199603 0.19150219121047665 1.057887851910249 -1.225135027228103
Ni 0.27461500558796403 7.3278808100524175 8.983217200302262 -0.0462870559919977 -1.9866392193314366 0.3086192826411588
Ni 5.112852097382383 1.156946803381254 8.596098681836029 1.9348253199839387 0.10113151463570326 -0.5130111853301099
Ni 8.497857904313122 1.33322258448742 3.5282851394007615 0.18506234912240385 2.2166490796988083 -1.0563446757928452
Ni 3.6416737461641415 6.342835399321007 0.4720633840696688 -1.3647914374118817 0.4404919351144608 0.333548956003303
P 4.579511053873285 0.11739335475141927 5.813464740238826 1.5147281464757463 1.4223946897476472 -2.0719980445139154
P 7.227260588108044 2.524375062358348 1.918994992309308 -1.107698090564157 0.3486899254097995 0.2880864527951296
P 7.744079259931796 2.596965763366029 9.374917217336446 0.05006092121213314 -0.8301896703951894 -0.09072214637692118
P 2.8722457502989456 6.0310371631094055 2.7559511007585304 -0.41055812366950584 0.6766120221446282 0.1181056805961966
P 3.375486171755089 8.489304163828464 0.12566382804304418 0.9957270621107882 0.8399215529709728 -0.29258202667263805
P 0.07497757538830757 4.943012518399851 9.138451337063112 0.31160099097730204 0.6743725912911482 -0.4189527754911043
P 6.176153552982106 6.2136191220538795 13.427256880039346 0.9442155244950577 0.33805327163155974 -0.09490250300685592
P 2.1356953237233083 2.2347924040395775 7.930933445394123 -0.5787769188720097 -0.914338020209335 0.43336329448947947
Ni 4.883962917963971 6.331987658945243 8.494205150640356 -1.1802505080105867 -0.17239246696421923 -0.6211924077237431
Ni 2.307875339841707 0.6851880476372059 5.895091200331765 0.5811505613105088 0.132736543135494 1.788472728726907
Ni 4.951454809497085 5.5722186099899735 2.535932363834033 -0.49015382111596223 0.2660906652503289 0.2524180528592427
Ni 8.50607729663551 6.938792423663497 6.186351171931239 -1.1316772270875735 1.056050284480878 1.161053880477478
Ni 0.7915079770033311 2.1611336464024333 9.59046311884573 -1.0673448835580908 0.9302341226143012 1.1771471864949148
Ni 1.3737158619174978 7.79386927376268 6.703392742529836 -0.3707247937226519 1.0724888896528757 0.6671945854854703
Ni 7.262970829327919 8.50721965285659 11.2102053609876 -0.7854069668628603 -1.1265535327077632 -0.5634973670051199
Ni -0.03330572068623929 0.7961721338669515 11.66983006467605 2.343977307334537 -1.100036460253841 0.27066362933299193
Ni 3.412450218583463 7.8032960344488105 4.910718200904468 -0.6366167126986133 0.02959982514430386 0.5143939246102496
Ni 3.9716939572192786 3.124269965056423 8.595990018683294 -1.5718837697511314 1.4612818537311478 0.0375735873783998
Ni 2.316596254407497 5.022875291936833 8.946774179360087 0.5231876116424796 0.9950909711886863 -0.4989158835793085
Ni 1.3129759457723806 0.2271180629032937 8.332392713786913 0.8529315920773956 0.41169635103900704 -0.4685087320423609
Ni 5.081980617066424 7.622432253560429 12.14560285585709 -0.090923720864766 0.11457632728669945 0.9584972312250524
Ni 1.3055552740598504 8.876144987571037 13.394945845135851 -0.10673137732098392 -0.7770619373322747 -0.7296050294018919
Ni 7.416195162135586 1.8835875219252642 11.766286723255307 -0.8423399326044784 1.7112231629151238 -1.4384486578867164
Ni 2.1548646183599325 8.3398598227442 11.070155274518134 -0.9658829821661625 1.076281009705456 0.2070663641973208
Ni 3.102481609815376 1.5722815205081107 13.05678982879889 1.2328519362563866 -1.5749801492882682 -0.07423546157580764
Ni 3.2610090759745516 8.364787335730973 2.3688734470676858 -0.246908178784607 -1.2608363372844544 -0.5147592783694683
Ni 6.220528984074058 1.4661538413352888 3.789354400692448 -0.7595038738438532 0.8081622582815048 0.24914221032144832
Ni 5.8860507975220315 5.0457595661541985 11.234767877230562 -1.129104581264391 1.0948448887505724 0.6912796514591321
Ni 0.7074593502237488 6.908301728754565 2.230277775104082 -0.1062688358622686 0.5909600912017628 -0.9908100844251452
Ni 0.63137285343059 0.31657012748306385 1.8585597044898114 -0.40789086124998786 -0.5906968102380472 0.28172811467726966
Ni 5.614848000678978 2.9594177461610363 10.088623305725209 1.0458463473646828 -0.5934653741221199 1.6746366220403417
Ni 1.6859134584340294 0.0020469537489883546 3.711927725015537 -0.5518199306671915 0.7906216782945803 1.5933159714829785
P 6.259917055078866 6.850830994640499 9.998215562648294 0.900777765026397 0.67161302626814 0.932921182528161
P 1.8434471675553565 2.511028998214535 4.770709907955288 0.2701874610275218 0.38854048174783407 -0.6184906925218638
P 3.322566287627432 2.982478481908487 1.0969127333564774 0.4114824352559881 0.053457862708824064 -0.36251757532151113
P 4.7214511362044504 4.979697941759669 6.762998661157932 0.09664956760494968 -0.5075964420724419 -0.455806453984344
P 9.053878898162644 5.729074335337816 0.6070220910237272 -0.10311743471748047 -0.3472177117396472 0.28161909990323114
P 1.6634564068684494 2.4716409272097275 11.841633010367005 -1.126151669283654 -0.7667561845308923 -1.6942772790894045
P 2.379035773710803 7.714312986041109 8.99917582383623 1.9010076001035452 -0.9472026321478397 -0.38803397442506077
P 5.419003564631258 0.9009856390130863 11.324142855984032 -1.127223305081278 0.37247622919611983 -0.798433203919199
Ni 7.416185874686635 5.545572918947108 8.648527259914134 -0.31283846292882894 0.5146111828273782 -0.3659816226107116
Ni 6.509229334742402 0.22323219426183846 -0.5211456942904205 -0.36163003051023523 -0.6726838907348157 2.742410108495419
Ni 7.909739486885996 7.664783020780878 0.2988106675973309 1.28178182918787 0.9405108219499609 -0.610099126024059
Ni 3.2173302035539875 1.2821509027011815 9.967169478292039 -0.6678319619591531 -0.45404756231170834 0.923639757226235
Ni 4.989319738873789 3.016749168540823 2.4745869060172554 -0.45051769478157894 -0.2239672537177175 -1.543629660001445
Ni 6.614391119224231 8.437229437555427 8.296601671761156 -0.655329201506452 -0.824485935142193 -0.6285285363738402
Ni 1.7724167579715866 2.6591173717518277 2.586783933080113 -0.17715286446734008 -0.7369889805707888 0.24663744162172363
Ni 8.569947083077404 5.907059007051123 4.0552354892860905 -1.9585627728101946 0.2721127030746926 0.02635200763096752
Ni 1.5789963461003003 6.253583014893701 12.8007367186861 -1.2390225838434725 0.8026966071812434 -0.6865465076495209
Ni 4.733069734843219 0.7679921562572398 1.3134245295567553 -0.4275024648333283 0.4909313227119352 0.3579042449192159
Ni 5.576100763651849 2.36167753161979 13.14593355007346 -0.7870414171424898 0.5764210170453233 0.2621599627373549
Ni 6.996318882471273 9.373543603636465 5.544756552184241 0.3654239503350287 -0.37605417635536526 0.4642558703032778
Ni 9.432240281012175 3.6182507999075693 7.383021323224463 0.19677835200775143 0.027322341964036816 -0.17689935369563728
Ni 3.687275120517739 4.044247508431153 4.294460670643019 0.30999430861181454 0.10647143879137792 -0.2929972598331857
Ni 5.224375784396232 8.400581163991415 3.768270962826847 2.03691328499564 0.3941334024545793 -0.7891288957991377
Ni 5.900483493193211 7.246597056825802 6.190157168511709 -1.0801327793513784 -0.22315941310444146 0.5874235388034141
Ni 5.405230277835661 7.750190401342116 1.0286007600809146 0.13814125909083305 1.2675381747846621 0.8310797863096269
Ni 3.7005004478251773 1.308778018846143 3.9713521790978508 0.5950075217982591 0.13560692270475355 -0.1481528776905642
Ni 4.733794155861463 8.433551607770491 9.989054423002186 -0.6557773447874642 0.6557284938273997 -0.008640963504449635
Ni 3.3723470140093625 6.429310836511709 11.104301509334517 0.3515160820046849 -1.571244593505236 -0.738620859747257
Ni 5.133702420279293 2.403703238126924 5.92621994298369 0.5032399648759592 -0.4797038294272319 -0.09624539018799554
Ni 8.429975939924029 -0.04407358900101741 9.441291828760649 0.7030038818745957 2.84306956859071 0.881394732514095
Ni 7.884282589308966 6.145625708277365 11.971637792050144 0.1941815378148527 -0.10892221432471565 0.40488061366875433
Ni 0.3093287035353042 4.016236562392365 12.871352908046617 -0.9575716340869896 0.7753560103847615 0.9741020276418451
P 8.557557626175631 0.7071407907247003 13.907800633746952 -1.2620786943319877 -0.4671396196089761 -1.3741186283500788
P 3.906143142517102 4.390882965661154 10.607377481910527 -0.7453705197662647 -0.553598105613537 -0.6590768414743423
P -0.006248595654806557 7.651167620617462 11.537514565693689 1.9271099536175518 1.7685050273557281 -0.3563667252287669
P 0.5035246173940702 5.26537058406971 5.762096788831023 0.7427665064845144 -0.0016298222939391286 0.3331872017885101
P 8.751572434779836 8.602285980327753 3.5724218830546515 0.5046491865186599 -2.3794479894373217 0.2166550363270204
P 6.064973501579475 6.380254531148022 4.316794199137539 1.1522303686485769 -1.0791848136158124 -1.530993459294673
P 8.644506723262877 8.883519222038808 7.387371564313511 -0.26762021452097784 0.01884567195159335 -1.9747905475229666
P 7.419027834065901 2.835681063775501 5.396414631290562 -0.33953731237625395 -0.8084821035147689 -0.12376082199944491
