# total energy = -381168.4905374141 ev
CRYSTAL
PRIMVEC
9.30318589393278 0.00000000000000 0.00000000000000

0.00000000000000 9.30318589393278 0.00000000000000

0.00000000000000 0.00000000000000 13.61615293621002

PRIMCOORD
 96 1
Ni 1.6157307631917224 8.019997230601343 1.7236691137532847 0.395628498942867 -0.577845665306992 0.6078648373769014
Ni 0.2297189110125902 0.5109104874438485 2.5056576845368945 -0.5394436684900258 0.020471894701106677 0.48612438824159504
Ni 5.702396931217098 5.2952244060257225 7.420626472336219 0.4450083349275755 -0.022054151586562015 0.34843332931430315
Ni 1.4444684190454928 2.7323828304157862 3.0754526853857924 -0.8759807605873753 0.7905586862671288 -1.7443417998459638
Ni 5.652559765831072 2.065521181725152 1.429314459983089 -2.096312967110196 -1.1826354633029956 2.2602765865807717
Ni 3.633135868871228 0.38730650261058014 5.075203135707251 0.7199541365756892 1.172310941448536 -1.9826475816735403
Ni 1.5391469391376313 0.3878991155348082 10.52227692843828 -0.17660933325904424 0.2938084428805714 1.0524003464331164
Ni 8.371769285403733 9.123178285042325 11.676681322923216 1.728236923864301 1.1399209551536045 -0.6757255057746169
Ni 2.9741819279607182 7.0311337211040765 10.307482187803188 -0.7855499201986277 0.4773594975647715 -0.24874471777271354
Ni 1.2847513282582437 1.0101771077611055 4.6363681485642605 1.1961846627423398 -0.6982239439874492 1.6684826866238038
Ni 3.1104084750481884 6.25712728358558 6.239138643863641 -0.6940294462901273 -2.706768190922093 0.48806968489342395
Ni 6.581473547169378 1.692556470072029 8.87032421202078 -1.2383196442391768 -0.4493257313560068 -0.12505948620621044
Ni 5.779027271199307 6.710676189110974 9.760139495138468 0.2782887499784175 -1.8312057488190592 -0.9547819871569944
Ni 1.2640145275030725 4.215961841823208 9.653266359330816 -0.022812627019141357 0.42393145965261825 0.09823876646894049
Ni 7.296395452791916 7.080431301723928 11.850586702105131 -0.5050037416446013 0.3707577038431163 1.787181520719309
Ni 8.04107824922459 8.84276166397352 4.9931388050022525 1.140681744579029 -0.2646811864973119 0.30163025291783535
Ni 0.831834109036697 7.83219382241622 6.227428724119122 0.2826100030615907 -1.5540750237044847 -0.32495658634860164
Ni 6.3493869754155625 8.741022025993011 1.350472752778132 1.0208508537616097 -0.8535121471712139 1.5607668339023635
Ni 1.6343092248822009 1.273959632934781 0.8492626969840894 0.21085745580863685 0.35022384555582264 -2.333348881086414
Ni 1.7521061612491715 5.837693159742201 4.004129235490695 -1.1718499426517173 -0.47512366625571717 -0.9387822692946284
Ni 4.603309278450532 3.330856761586787 6.3451679807352255 0.08133222052158896 0.7231518175773803 -0.7247649277007712
Ni 3.10618482877504 1.1440220393289149 2.576284678836146 0.10732735903377 1.195523375009257 0.3452695868743409
Ni 3.662040866603986 4.795317726537557 9.187716344350882 -0.2681197798652157 0.5496743450790985 -0.5708062419617074
Ni 1.9206333688220405 3.9003047536119215 0.1119787240779242 -1.283201335243216 -1.239083261878079 0.6977901988841402
P 4.351304586276429 5.584851180861966 10.96887263302854 1.153036666599956 -1.0707649649832334 2.2903456380520106
Ni 8.493520075660767 5.011281877605543 8.038867812320404 -0.7471988312242551 0.02649418963578663 0.596154748028825
P 0.9839607306735898 8.20861931912135 4.097740680191798 -1.664621661006501 -0.20994445707606427 -1.742375163037896
Ni 7.992887747693954 5.400415525872613 10.614185890170251 0.8463071447823425 -1.2687710187504988 -1.3215210567590208
P 7.8936041507180965 7.439208655300948 8.885493056180183 0.388010320275977 -0.3905729387968306 -0.2821891134740882
P 9.240175147445658 3.7123711008280664 11.383008592659236 0.12182375287773212 -0.07944734479405026 0.40501302548156054
P 1.5735780291308517 9.02848115857894 12.566605453312702 -1.869561208668806 0.5109445326090685 0.7102567067822672
Ni 2.407534194808309 3.999951174827102 7.35884959852077 -0.2093585026656072 -0.4162824277477927 0.08007212286224275
Ni 3.6967045362377986 0.027773730360918774 9.320746316858058 -0.016390011322249192 -0.34293528231420944 -0.011941745742908466
Ni 4.341954884724635 9.178522936317567 0.4674143733789192 -0.9679547770935265 0.16909039917417976 0.18740205299917403
Ni 4.650448520005693 0.9806767061484327 6.967725998848796 1.2277020166243309 -0.32847179859071174 1.5751395576842677
Ni 6.678747656050521 3.9704972891425476 1.1036462137221663 -0.3675083436678832 1.3562551178060964 -0.7505217249499009
Ni 7.418081120749583 4.282200523463772 5.698918470112406 0.3042718043057405 0.33342837126503866 -0.2000199988735007
Ni 8.336286935435039 7.651777143616294 2.644910557907746 0.5561242144695002 0.4121797184333288 -0.7417156966224967
Ni 6.738436895012019 0.6139358256775479 3.525371487880829 -0.7935375663897947 1.1655096022559863 -1.4853908309642097
Ni 8.347999646135245 4.95671869392269 13.364240121678208 0.9257863712555927 0.1963669755019457 -0.47116725271113047
Ni 2.2482915664878673 3.7340940392593476 4.962324793579517 0.5988556918997557 -0.737519142042646 1.3123946689777204
Ni 7.29232996067437 2.5207725702196786 11.029764773891179 0.6178872546099101 0.5780649804066497 -1.5225913512739069
Ni 6.556280520500466 5.855936706750227 2.5522936237498137 -0.3657275976183766 0.014393806827826823 -0.9566756046352813
Ni 2.504994367401926 9.149310933459228 7.121819313926533 -0.17865541715479555 -0.12509085366477812 0.4515836741522481
Ni 5.435172227362663 5.823738381306689 5.07403186463723 0.7610673616762312 0.47855300365224035 0.7999303572900158
Ni 4.295187770594422 2.549082164072521 8.803877139022246 -1.2833183204370544 -0.7566512348864065 0.15871059860175246
Ni 8.573090222300056 1.8559762287375008 4.072482531223521 -0.13607460636979146 1.0340861215049608 1.3747300366818325
Ni 6.045154199150148 7.781565886252181 3.860546659530585 0.03826495701846958 0.016804730262164606 -0.6852118479984973
Ni 1.6496315716043934 1.8726847501176207 8.633443708715085 0.192440643864346 -0.13254473883966203 -0.47783875119403507
Ni 7.9497395727713505 6.294181871924676 4.411864603412302 0.8758478345539368 -1.1230506617608271 0.08322532377924376
Ni 0.5304881112703097 5.408127866754639 6.192149183597023 0.08274529881903168 -0.06473857782896592 -0.6694345305595825
Ni 6.710359880799768 9.166428795006789 7.211468531870513 0.4895341852540924 -0.8460652039748654 -0.01250044645985589
Ni 1.2512505568273908 8.102125753287144 8.998996572381825 -0.36241678807758876 -1.0206647058927325 -2.771586472949059
Ni 7.840873694603108 7.046818892065591 6.5292994215546845 -0.5366959305415596 -0.44755167017471953 1.9874542590335644
Ni 2.5542268257224134 5.719421760908423 1.245461184413778 -0.6525956046253729 0.8102641351158563 0.3565338469342505
Ni 6.5727099463118765 8.746678362852206 10.06862754850815 -0.5339319946431773 1.8607901473443955 0.32903409885208496
P 1.7258339650479138 5.908127578099042 8.103366798249342 -0.031648480143216466 1.1463340577688002 0.5783945958319265
Ni 0.3235508412129743 5.134344417035514 2.0842922193580407 -0.06794551480203781 0.8725563082868586 0.4503369462293406
P 6.960448116735395 6.728947645675871 0.5212900516441824 0.4275369176156895 -0.36446724284871423 -0.29409537799337093
Ni 0.047942106474483395 0.44869450326696075 7.041987747771217 -0.7464154160910114 0.6200369539630611 0.4160857383559543
P 7.535347775536003 1.3922589413254298 0.9267331146281166 1.5798333636155113 -0.9783947414799278 0.6196854841609134
P 3.835284789288058 2.044616923628755 0.24203911973402276 -1.1709544274206416 0.773621801302474 -0.22744878450841474
P 4.280172428997811 4.257798267572873 4.289183494592903 -0.27040626190654715 -1.5990590446143427 0.26370493862697164
Ni 8.638426494935125 0.5295596533450669 9.380820707704375 0.7487296660464847 -1.9040841821463403 -0.3019027898529317
Ni 6.43487394811151 9.222722371215646 12.746979337458757 -0.8957779978189604 -0.5125319317008463 -0.45385601512619256
Ni 5.911011565642382 4.057137856855832 9.483241338872535 1.3745102073615425 0.47796190703546076 0.682779841518237
Ni 6.274794033084937 4.77527866470416 12.357557290437352 -1.2047078697220026 0.08979680634917439 -0.9271670536532032
Ni 4.178097876334851 4.441443151784214 13.493933971820734 0.134734033181497 -0.26535404419462044 0.16033425024810452
Ni 3.644662515858961 0.4083931031452015 12.031763451170512 -0.6192124011792367 0.8391229683290775 -1.0646927906472243
Ni 8.666243019949913 2.7349132969054257 9.226305027999322 0.8313916611230908 1.83846525859495 -1.2503112693834144
Ni 4.920492089104101 2.2033757862967653 3.7246308388429457 0.20802050058047397 0.3027880206713624 0.9388390906744927
Ni 1.679736680282605 2.410464698279767 11.91279896500777 0.17892769697957572 -0.08850662678284112 -0.45081311453481065
Ni 1.5543669508179634 5.600536351823482 12.04821148335317 0.07149492271619301 -1.8964968567173854 -0.9809319060794849
Ni 4.105114385117123 7.035589947017817 7.981951852993324 0.5347200377621114 1.4639565723498336 1.112169238961633
Ni 7.432305691568181 3.6131340197803277 3.2865308033642258 -0.6274615285619065 0.7998236565088226 0.21059803149966314
Ni 8.906953644776875 3.1771402255268075 1.2667757129961792 0.15957114682983486 -1.724412150801572 0.20037326844786135
Ni 4.652178912531697 6.509001731160951 0.6288990694346666 1.7306810145294194 1.5217976517280178 0.6494588587686041
Ni 8.750678732670385 1.8714102136871773 12.836096413185063 0.8297045032286549 0.3113431093302251 -0.39119565998249406
Ni 6.476822012088659 1.9316483406004716 5.636719231669641 0.9572253064911644 -0.5655259673993744 -0.07505692903583848
Ni 3.9967043630444397 8.51236832973433 2.64342669980077 1.079781566659547 -2.0843154284286878 0.571883534186286
Ni 6.343805064041357 2.166711931753863 12.845669391191825 -1.6685181678474297 0.8995256377868508 1.166241081105372
Ni 8.915028809898224 8.773862271244584 0.4336661372104765 -1.0826696868406194 2.6337804857104574 0.09672798625136889
Ni 0.2928521892919722 2.7760240741764446 6.615502739543655 -0.495741856726701 0.6957965654928792 -0.48468045670621696
Ni 3.7944996235138677 3.6994396728111587 2.1687539809982597 -0.44338056951616545 -0.6488839601017407 -0.5326132758317537
Ni 4.09024789449049 5.886925618062687 3.0357625045595085 -0.09003514761222559 1.8375090653292674 -0.6463079718444482
Ni 0.3928493406051656 7.377947177969049 10.982516685064223 -0.0156976132409149 -0.5094607489746903 0.34302141427011246
Ni 2.784462063537118 7.34557209199866 12.940205572543922 0.20082526838361542 0.206470896705167 0.4428619780085341
Ni 0.3607617230705488 6.886301727314707 13.487589199225386 0.7560010028969174 -1.201115524385054 0.14299653030060536
P 2.770572407400971 1.9735684950207502 6.604828264359051 -0.9757344210389454 0.1277213493090897 -0.22983759645556545
Ni 4.878041653103272 7.706926427993437 11.744189889401413 0.10936470117877292 -0.8302179525299638 0.5127067667158137
P 4.987344780995828 1.2675032221119507 10.529125933694429 1.0338932887678645 0.4507130986218366 -0.6330711614392001
Ni 2.923944725592874 7.611987418703836 4.638110635231575 1.1323472565714046 1.4901933945591754 -1.2535601153380154
P 5.1849165340858105 8.177444344096415 5.7201595035283805 -0.43254362680166153 0.08063776555772564 1.7687449112806763
P 7.307643004210938 3.017125432799601 7.370165063194845 0.37348847251071804 0.481597446905519 0.6775229639946718
P 0.07337887660673506 4.085773062205503 4.35531705023592 -0.1585409057931076 0.4390390047180181 -0.3737913484631175
Ni 4.213077854279868 2.9662277042524763 11.765853287444703 0.10072322345369104 -0.48308148765021325 -1.1080017378475047
