# total energy = -381170.3909672657 ev
CRYSTAL
PRIMVEC
9.23344251947020 0.00000000000000 0.00000000000000
0.00000000000000 9.23344251947020 0.00000000000000
0.00000000000000 0.00000000000000 13.51407645791226
PRIMCOORD
 96 1
Ni 3.7630064769024436 1.5764349079185433 9.235790777981896 -1.3620053900263125 -0.9604785233211395 1.8217623440179724
Ni 0.7988830036376354 2.839320568172059 12.652446201979604 -0.577379781414167 -1.7396986446469973 -1.2353119677611046
Ni 5.978506421907738 1.1855463440852407 2.915716226495014 -1.3025650844818084 0.1303130212956659 -1.191292110536729
Ni 1.9304358681114144 0.8517906303859896 12.503520927797837 0.05780302705139721 -1.471145633899105 -0.5462221248644399
Ni 3.464119936266453 1.4364559163818855 0.7891925055098172 -0.023308592818953405 -1.2884294164113745 -0.810825664046281
Ni 5.599482831961283 2.270004957343085 11.143531767247799 1.1982564576697041 -0.10115362612289032 0.04226507931679818
Ni 2.172545969502094 7.946771704816363 8.698443192515601 0.22791801083534943 -0.3313401212774423 -1.1500793837438452
Ni 3.615345261028154 5.936161853623628 9.414216901633296 -1.8091364277238455 -1.6763662031369388 -1.0438252031695956
Ni 1.2726084754308309 3.852672439093241 3.451170956205041 1.4445100335894479 -1.4868548171042455 0.0859838603609874
Ni 6.8545108324656105 3.395321554608166 2.917959029730123 -0.709742743260326 0.7619765037540619 0.5681549203817893
Ni 1.1447437607342847 6.74101335463127 10.364472041771776 0.8596591406092162 -1.0327841148640857 -0.39464093821861707
Ni 5.109934932734235 6.892284846606539 5.274030753294283 -0.16810952331814918 0.004737771795301517 0.8226085156138221
Ni 7.910909013317128 6.147293754710517 8.722945056100144 2.797780100625291 -0.7350071742540697 -0.26560884051790384
Ni 7.928027816107957 2.9343511605793995 0.6220570356084851 -0.2551467646443154 -1.5523732105220296 1.5255982564210306
Ni 8.451416282879983 -0.07306423219192433 3.4990103462479554 1.532481356694109 1.6207856376581569 0.7630766787967762
Ni 8.908462463755512 8.826764962626466 8.342469045614855 -0.03807161006074088 -0.5191229546548027 -0.30194881259951867
Ni 5.147958249828427 2.944369445923547 1.4314652405952388 0.23205697270438747 -0.295981025051858 -1.6930914863114195
Ni 2.552714506345023 7.118688861941554 6.21665075965297 0.35805619711604786 -0.6778595213984842 -0.19668065008762256
Ni 6.193599469918718 4.492273015857376 8.012631081658943 1.4737293354658814 1.5112383881549327 -1.5721372805228342
Ni 6.746987392066905 0.6820180892456817 7.2828169995511 0.49976871849790694 1.1018100072144958 -0.9862661738082047
Ni 8.514545330712181 3.9227173355178504 4.915380754695164 -2.024905976122119 0.9074667470107984 -1.0301759878172774
Ni 4.819718594806221 2.2709375350571483 5.045534439840387 -1.3833936258941013 -1.185905649413835 0.09386994797728349
Ni 6.463511467319746 7.955571175722328 3.485402098376799 0.4675697651678593 -1.265870300163936 -0.4829616742428973
Ni 5.154624795467574 2.48099835678927 7.7248763795583475 0.08035083044492614 -0.554280219282226 -1.3062649019308987
P 6.724799429226365 5.651005442302613 3.7597239880177944 -0.16445238618153613 0.2369675226321274 -0.09548768608636458
Ni 8.29116065114448 0.9034526657122925 12.885077251080604 0.4177808666701902 1.1568046182828204 -0.21601483163986024
P 2.8293576834841927 8.97581119490778 10.46554407574656 -1.3745636863072972 1.032034895402887 0.9268142982994747
Ni 1.9722356632754283 0.05601468022144686 5.747739604890594 0.6710944347605088 -0.14012872183450706 -0.46978219943814575
P 5.951424734429044 0.8880651334302452 0.014093926957886176 -0.18790958876321187 0.6500514980472805 0.5424811697647689
P 8.62885535150531 2.3901782142592856 2.9551504136358293 1.566166664761696 -1.0100198245843766 0.1069630337158158
P 0.19216825644190164 8.668789991241196 0.34337880769526063 -1.4743736539180996 0.002918459198375619 -0.008970064709094228
Ni 5.947869858984347 0.687664339464987 9.30665837415228 -0.03045677382796045 -0.4212433712974939 1.3921970831183441
Ni 7.072577049030337 6.133249688343283 6.349102648689582 0.21482081133175907 -0.31647708812268077 -0.9912384302118153
Ni 3.471405122567405 5.60738665892404 11.9188214780639 -0.9641582861655716 -2.7771038032228623 -1.113228790574399
Ni 9.105808834871144 2.110811171519634 8.210991284784516 -0.4538691277523151 0.753545085157257 -0.3687288463385456
Ni 4.625068388962931 4.383539994463201 3.170389350041681 -0.6777988433638779 -0.21857230795439128 0.16696126864631894
Ni 5.470796340863235 6.73067189879215 12.104247474636404 -0.32844840155194405 1.6938594748256957 0.24761677481585742
Ni 4.526427520454612 0.4376236341276823 11.852764505547249 -1.2094150453896848 -0.7355954426573719 0.44305172542183696
Ni 0.6936420702777067 4.4589956883179225 0.48250370578091967 -0.817179888399083 0.6046998093853586 2.411690394410795
Ni 6.389108385934364 7.746313663506281 7.92331691363553 -1.052145292999517 0.2739163319423347 -0.009711056640176824
Ni 3.6031294163181937 6.175945127450506 0.801815545043443 0.2797920739968213 -0.45948236017403454 -0.40606794910863614
Ni 8.252370958305066 1.106249538061704 10.089690326683648 -0.721207549366816 0.1341838171049818 1.32878133786586
Ni 1.2132282053403134 1.8970108054885448 10.33526850915752 1.2867553711430613 -0.11580608592874249 -0.018410898407019902
Ni 4.4870745876096745 7.868232041095332 9.73556748504696 1.2828169553206037 2.0939802052119614 0.20579932455943914
Ni 0.04786616702678324 7.117747050784779 6.633641342693066 0.5599854971971194 0.6209579231154339 0.20288600756738606
Ni 7.41603341764439 2.843641819361977 6.760200448589923 0.2814514639771153 1.3031777783651428 0.6073747851143604
Ni 2.140468989515395 3.3537525955119896 8.39425480907352 0.08995261520074832 -0.8860751687088999 -0.8071536145113326
Ni 7.099926506347723 1.7153243532150082 4.7878613707561035 1.2308701299396674 -0.2577024411866336 0.3408981972795226
Ni 5.10192953790163 8.16940847552427 0.8093786579700706 0.31382936608718853 -0.5175545817264183 -0.8539214667944907
Ni 3.4011663238458114 2.917832531564948 12.079624652952313 -1.1250430096005075 -0.7837118385486245 -1.1028533608773459
Ni 6.0361785050962595 4.631679533945796 11.512952576772214 0.39531199614371276 -1.5996825371309549 1.6755455070078562
Ni 6.786691195734954 8.938037180766852 11.680945833501632 -0.9072263488652182 -0.9090826853476666 -0.40096456644379974
Ni 8.880088094296926 7.328768150559103 2.1665091446560076 -0.4296840458656793 0.5735596363371283 -1.8748381407970292
Ni 5.960870546324954 5.986447182641349 9.747149915586773 -0.31249547776711345 1.1111012027084346 0.6163710750756999
Ni 3.3546759397833394 4.051579262027455 5.22386638237611 -1.6969118884987744 -0.4396408999680751 -2.0742174207627375
Ni 1.955606232948415 7.970224649308652 3.6326376525419963 0.33737475750729634 -1.1375550260245892 -0.4241302059269857
P 2.624892328036452 5.742084121228575 3.6853836940428644 1.4204226536229407 -0.8634350627118806 3.10374420503179
Ni 2.1350212583144303 8.355222276690741 0.8951536474013989 1.6890463697077684 -0.04661718563790681 1.5404864863867727
P 9.23103278495163 0.5162242385706212 6.166121667747613 -1.3973344043449096 -0.15125774186813304 0.9483586001291537
Ni 8.876034612945702 6.552549555406025 4.281097717589734 -0.9748155087691018 0.7621395116944873 1.214417897920915
P 7.459504465939548 7.995090310536106 9.880128110858058 -0.19116331981381915 0.14546787465923336 -0.372642579570655
P 3.036445336662567 2.1993968209129515 6.601288282769233 0.5558262236131072 0.10866176157447738 -0.059710528486755225
P 4.522161669920974 4.219230881376471 13.22375346640188 1.0690104441859718 1.3464229622070232 1.5970728674222494
Ni 7.8796538097319315 4.903705989728215 13.240092043283418 -0.8114566127620606 0.7703377312345636 -0.7694507006439201
Ni 1.5252447015149002 5.977860080917794 2.084626974672691 -0.1927394060516874 0.40048582703516833 -1.6629954382569876
Ni 9.231180520035045 8.4164769356521 11.166735408786824 0.11862967142046667 0.9712113363576113 1.1320698345403022
Ni 4.014359254449337 0.21038399222709414 7.000656840390615 1.0761452554585402 -0.4525396103076142 0.47964238006167725
Ni 4.478090447849439 6.676425422850339 3.0909263420493014 -0.4135195202906749 1.4211140232630106 -1.419329420558762
Ni 7.490861237394593 8.648744187110188 5.585692685268672 -0.10672623511466137 -1.3229264217469796 -0.12155173016326809
Ni 4.12617624570982 4.590719982068711 7.126297218737479 -0.6907340633683071 1.6527598765719087 1.5362469943841286
Ni 2.669028184206981 3.8436328986767245 1.0249278380510967 1.9745969434549218 -0.9663810048485035 0.47577749778963224
Ni 1.169110816055211 5.174615198942301 5.519973656755337 0.978950871093714 0.18942011187046734 0.231158372149518
Ni 8.732039073828672 4.903724456613642 2.679206208110072 -2.132222793632928 0.043132312413099914 -1.9030757954864836
Ni 3.0714308511040183 7.643859383157286 12.367434755709189 -0.4824081157322724 2.139165286389032 -0.730265031583394
Ni 0.7926042625924555 1.3321641809329048 1.5007788483569395 -0.235587097344833 0.44851326275704045 -0.4752475934280912
Ni 7.8454808382492685 6.390511869226816 11.520858250423514 0.38460412280790535 0.598510135634879 -2.0484068874575367
Ni 7.278270452358973 9.139834071270391 1.528982399125325 0.5867056868007832 -0.058741222594950446 -1.6965856155076073
Ni 0.09634728133828557 4.195150062779664 9.86654663997077 0.21809279721481153 -0.2695254019634907 -1.4192170633506138
Ni 0.7553528613091116 2.5042389320991494 5.760307243767938 1.7280178658749592 -0.7796731497028766 0.5679834278009315
Ni 0.7130082930250013 6.608928956614655 13.385571396644508 -0.31429782108317483 1.8582334423608124 -0.47954930612723873
Ni 7.246793646148652 3.1386410806155833 9.418419964756481 -0.26797039877154494 -0.6758203794812684 0.8927016728864818
Ni 4.77309894254576 3.892634779157268 9.676038556528754 -1.687351498503849 -0.7812739185310931 0.127474009184974
Ni 1.4614416123646163 5.543592803216469 8.007320005410138 -0.7414796693522907 0.5115767668764286 -0.003447849339284385
Ni 4.9115636494774035 9.310818963438983 4.564095350004334 -1.084174810631236 -1.4679674932814395 0.4506063978406433
Ni 1.7140409046778318 0.8361196314126377 7.910788978561853 0.7432812413374038 0.6748662430981152 0.3300982784505412
Ni 3.166941582532461 2.2695432852074098 2.8968643065068616 0.803771328302661 0.26535558685651717 0.7279726360047915
Ni 6.136176689683463 5.341001836639569 1.3414050104005755 -0.39119591709281015 -0.07582748865327586 0.3222024206422322
Ni 5.891610492530992 4.12522520111033 5.193540986472161 1.4086179476785288 1.887066821652737 0.8515617083130624
P 7.634875243397051 2.981358617433827 11.748448763147213 0.9600342366948692 0.309525339395196 -0.19615897325619766
Ni 1.5386978275484695 0.9485977371714075 3.7391961981771416 -0.9395217185638141 1.4032350861000606 -0.31700185027789923
P 8.70499432012083 4.873965070748032 6.976384889529638 0.5847177098364769 -0.39779876712130846 0.5562026331159194
Ni 7.197967201079664 7.106602285429584 0.11732658652762858 1.026953881335554 0.9576680504555378 0.7334526852827562
P 3.914416470518414 8.972791859140466 2.2911495411569995 -1.0869377180883537 0.7438409704956158 2.252458376087934
P 2.528356684466811 4.14060811667102 10.315497861619374 -0.5917388783493164 0.45480063842764895 0.9362517895632908
P 4.3739556809265885 6.954573651151809 7.358942118002549 -0.067224063254981 -0.009029714302436062 1.1241444090456383
Ni 0.7083592546187542 5.0229005017167845 11.795004704652952 0.8963356700946435 -0.4246971341740492 0.04685167024621609
