# total energy = -340895.3767319094 ev
CRYSTAL
PRIMVEC
9.04750147629534 0.00000000000000 0.00000000000000
0.00000000000000 9.04750147629534 0.00000000000000
0.00000000000000 0.00000000000000 13.24193294602931
PRIMCOORD
 96 1
Ni 6.408272921376605 1.9367895952603849 11.397119524874299 -0.14889875471765324 0.01312573874868062 0.13701794411966725
Ni 4.717457748972142 0.47997719174770576 6.016405727584711 -0.04999355830930745 -0.8638567236303316 0.2693569947064265
Ni 2.9061117617927263 1.7289684861641073 4.864781834642943 -0.5775762136956892 -1.0757053397076441 -0.7142768836852537
Ni 3.466821618785879 4.236691615094998 4.723331386935802 0.4783236612502536 0.8302179525299638 -0.13902777546084444
Ni 5.002942610810362 4.470370483433641 2.841228509647622 -0.1368338531333192 0.1478284044716099 -0.6142357739002519
Ni 7.281772999687846 6.123909949722447 2.6839015063356864 -0.18176285243552567 -0.6087292422597259 -0.9694786699372208
Ni 5.06001425017385 4.679603002761482 11.471552414836168 -0.5168225886564003 -0.32853376217689867 0.26272843364631526
Ni 5.56459340795789 8.000759847648794 12.333920447321026 -0.9212087791872392 0.2492185720853385 1.414532513390751
Ni 1.698035078589002 6.494459420516837 0.3265632328277654 0.5317892372685615 -1.0883441115175772 -0.19940961898301143
Ni 2.6391199929885842 1.7109277682042474 0.28644118274512054 1.148503554616293 -1.4108501794431574 -0.042133181724624214
Ni 0.6399361132414487 -0.004238754445433437 4.771531951093853 -0.15617960464978262 -0.09468498767941112 -0.31078877948865186
Ni 8.490130155437587 2.3848309162685153 1.5356668074499675 0.19204777930130149 -0.06337152227811021 0.06052916773330865
Ni 6.995609575238297 0.8371544553481778 4.875494076400452 -0.433806295564169 -0.8676241610925637 -0.08474895951262179
Ni 0.6305674254543702 7.530868810555879 2.335850457482511 -0.3294210498778584 -0.5824114303008034 0.856515452773912
Ni 7.767379546859136 3.8490333189936385 3.7647612711675014 -0.3082094487972499 -0.40130138095792817 -0.4404762513851769
Ni 7.371261836869879 3.9046030731107186 12.75102836075405 1.345839064679095 -0.45336956240807724 0.06218341550728001
Ni 8.017126777834044 8.67484394574275 7.07157601670177 -0.3979851721005017 1.0089713287152042 -0.5008652939961954
Ni 6.699873894218269 0.8263834048310199 0.4343234992575091 -0.032891608521698194 -0.4200262110609412 -0.3084552462594688
Ni 1.9526860553684457 6.383211342264864 9.24725222215521 -0.15206866780520265 0.7172015135312164 -0.9045210341189132
Ni 0.09114272045337748 4.870423856568605 1.463432460348802 -0.016252971523752654 -0.6196883123743909 -0.03897381016003611
Ni 6.596958564833413 1.941304298501092 7.04881340771721 0.058542219210266914 0.474157445687706 -0.37468377837039984
Ni 3.33754187007553 4.387495369836692 0.8162764409228157 0.06693738525249764 0.512497221808169 -0.9527695847126559
Ni 6.06500166755763 5.582435080885093 4.777371208551874 -0.46547251631919834 0.8369529572609521 0.4647988872909415
Ni 5.589627844565179 3.0453980471448028 9.077477666301059 -0.5313094694186656 -0.5731148354902259 0.9806197741557047
P 0.11130960126206718 5.305246777908052 12.352975390197285 0.3606398986828241 1.3794246139440243 0.8011873696255686
P 3.84944950406192 6.196136154072277 12.705370144513111 -0.4699848023672551 -0.9084113703122549 -0.5174301403334121
P 2.317427030209862 8.478766493573202 1.4006518475486684 0.1254376954812356 0.2757559562542348 -0.249547416179667
P 6.420993708463648 7.79443157629744 5.797477000916057 0.11426702357639676 -0.12982785412913125 0.5015412370172976
P 4.650723378023332 1.1281329600877164 12.656838441800733 0.23873952693088563 -0.09381261237678683 -0.38926424728773606
P 4.078595574156888 6.272786586647969 8.377363001686385 -0.040973614198884276 -1.0311270388766371 -0.7385159587382766
P 4.662213704908498 0.8984947059119978 3.7749442340881747 0.9007589959733198 0.20415253298463548 -0.2162369749529953
P 0.2747735248308602 5.538355653653179 3.610400038842146 0.8530480630506018 0.45917074247088663 -0.6418386232191851
Ni 1.5362114670393274 1.141088982213353 2.5595861216898186 -0.5495987546461567 -1.0327892570704085 0.17012295420375217
Ni 2.0727283050632392 6.540357395547112 4.881108955821661 -0.597208643214636 -0.020026579633571958 0.5049991136589109
Ni 6.110094414955794 5.537622806032944 9.45734877787481 -1.1321510814001985 1.170987337541106 -1.227926216819995
Ni 8.658504158061955 2.2350766716990083 10.080554251371337 0.24870178034992008 0.5644558742636473 0.585471814393682
Ni 2.4162981264311996 5.335637335394094 7.027162736665082 -0.11056360658288056 -0.46181923583732726 0.09961816331497036
Ni 0.6795189322356244 9.042371551041358 9.131808817464927 -0.386134957630135 -0.6074164369855733 0.09178555464442902
Ni 1.46908805352669 1.1665667463933755 11.448472238549508 -0.3030569580620329 0.6640082173376887 -0.4445437365863312
Ni 4.015064018733551 6.92091340298323 1.5495176274724094 0.4364427047457516 -0.5612034287646206 0.00546462265899704
Ni 5.93163244817634 7.888760826773618 8.071647021778935 -1.9696385710083821 0.031695531331068 -0.4108409450172473
Ni 5.302650144982033 2.7110657247923977 5.003371462380723 0.08656338701354124 0.3860963910827157 -0.4097937346996556
Ni 0.8575502379444224 7.445026116472053 6.8994445867109375 0.6198680324853648 -0.9167671984761179 0.3384091123090817
Ni 5.150416885005805 4.4201568501953155 7.087970089391472 0.359825887421961 1.1359578567407986 0.079508794159605
Ni 8.003220768052547 7.206796354886764 9.076789151438097 0.7101800879080608 0.479730054679477 1.0226447124372389
Ni 4.594456966291954 0.3345720811417412 10.239920561517852 -0.0001318975921739664 0.47536406440129747 0.2913185865791822
Ni 8.22591596958915 7.0743952181643035 4.6340280235342 0.1285808690959076 1.1937045766329635 0.9888609311185743
Ni 7.306798388793649 6.067154972910913 7.018701513276887 -0.5061681942663476 -0.08378299605492669 -0.834605282964382
Ni 2.29370448131781 5.5606306023077305 2.65408094144316 -0.39964096253636977 -0.6718271991614753 0.35457235233250545
Ni 2.14955968766862 5.240864757345182 11.30177785898202 0.5980841038410538 -1.162457959913856 0.9744786942549735
Ni 1.1379223566938188 3.161396063676077 3.801547507452854 -0.049555185220308204 1.0897600180284972 -0.25967730552481727
Ni 3.7143793544015664 2.4096663078431466 2.502738860363143 -0.061603631744410046 0.748764375939162 0.21934132490993194
Ni 1.1357057188301452 3.1866114503130527 8.048817461283392 -0.3949903511382359 1.586190416181791 0.25470119246646455
Ni 3.6175258510112465 2.6738985886945525 6.99421716475985 0.10478788044136793 -0.056388148981741604 0.6009241443930103
Ni 4.271596875821746 6.9722036888981975 6.170820340168825 0.27138970886573904 0.030647292572211732 -0.2051490925699499
Ni 0.5413852985726585 7.157026049221174 11.07531437307717 0.43614060012430045 0.20799324688696438 0.31396974831979474
P 0.07374799409950274 5.555790189013585 8.195895454913819 2.1024306499721597 1.4283051416948112 -2.0409828270793238
P 8.612805228064335 1.600828722640791 7.912306949386724 -0.08133453451443412 0.02564829669572357 0.1927247507636681
P 1.6992836337938468 3.1192618492633053 10.346464843748096 0.30940732576009294 0.924537586450156 -0.12844922861404975
P 4.104254288366598 6.231177127321293 3.904450170335633 -0.5550286674124764 0.024764608539189607 -0.33616813879370494
P 6.993456269885013 3.9304517848516007 10.612164629340269 -0.35277103745770855 -0.46281682386390616 -0.8668898540297006
P 6.1519662518255185 7.832485367540755 10.27502486727726 1.4616135260389536 -0.3573691983513523 -0.35629447722993474
P 2.5140744749729262 8.652623282097105 5.847611016141321 0.618395047484264 -1.2095533707397619 -0.19953868836170796
P 6.790656524112568 4.041953193145137 1.7148833358532198 0.6556991832513611 -0.39209888852305375 -0.15502595066131364
Ni 5.2393266820928375 3.053477465970357 0.35679184003723746 -0.3254720925324394 -0.6780171300222709 -0.1233836411656843
Ni 1.529679170967603 1.1587768476153217 6.8945046509004655 -0.5330927865713335 -0.3689299066057582 0.1415651971707175
Ni 6.994614350075014 0.7814770359634334 9.219470964097264 -0.7028115633581316 -0.7810533178798549 0.28518907664267656
Ni 2.627023483503964 1.532682941460418 9.08076190933989 0.9311376082651771 0.13630703409557168 0.6512210928753495
Ni 6.198090414392904 2.015439525664126 2.509465677716782 0.23158414683302697 0.05412274998633259 0.8574266517342717
Ni 4.0597224860604655 6.902022219883839 10.576027098911347 0.011248833440941916 -0.020848818424551187 -0.23988906715429653
Ni 8.039094111438125 6.92085007047284 0.4044685538593421 1.0365867764396277 0.7070112032617759 0.03550719176767433
Ni 7.655561476013646 4.045273626189906 8.324898350078746 -0.14852851586242807 -1.6940697910642888 -1.0497073729819857
Ni 2.9495759589237025 8.358489008839815 12.469015025235388 2.1285090922267664 -0.054720017250699304 -0.007631548403328792
Ni -0.01607921963804547 4.779785986698055 10.135362205863434 0.36521209143453875 -0.42041496185892757 1.561232974905505
Ni 8.714092007182003 2.5533134889106956 5.804720430604454 0.2505555457292072 -0.41066688133322826 0.22132724499170914
Ni 3.6039274562802186 2.681968960018622 11.338577666519598 0.40304227490843497 -0.049402718802843956 0.1240475000019283
Ni 0.915634292724013 3.261814282651244 12.849309559878606 -0.33854512366631373 0.3032014540596972 -0.9749309513010436
Ni 3.226773309402229 8.421278669141431 8.029510997865868 0.18979446449075055 -0.28959106236511417 0.24133968355789404
Ni 5.805609800000369 7.902666836555114 3.697544668389575 -1.2256862717458827 0.3059275947416086 -0.5104174564610049
Ni 2.9642057688239496 8.255646059466832 3.5124364070196923 0.8622870651503666 0.5953232532664651 0.29149727824889154
Ni 3.469834436780178 4.191671247708707 9.167932776641624 -0.33669135828702657 0.4387091321824251 0.3491583804057858
Ni 7.228799878496784 6.307194234793077 11.523170220304872 -0.04324158429745456 -1.0107664729424142 -0.4627070377589192
Ni 0.7628283259038231 8.631316416101383 -0.15879631755299983 -1.6761725990688938 0.5188463039546483 1.0363003555474606
Ni 4.489686899102798 0.21703598935812163 1.5893501575075542 0.2633771229739077 0.2434958106689484 -0.2459098194270797
Ni 5.908733221919366 5.557626831814916 0.37974444655296863 -0.8996120268530701 0.9270032743818294 0.5822324815207779
Ni 7.8382395784848224 8.75402767873407 11.557558868696862 0.0030393010469560557 0.18786176624441195 -0.8251752478997336
Ni 0.10377665152616991 4.956447500682118 5.68664239348192 0.362425272718021 0.0946335656161854 0.9633982680710956
Ni 7.735432819117778 -0.1374930705578716 2.4937872623944948 0.16648869988527457 0.09366965904101932 0.24322378795448435
P 8.582686095622826 1.5845432199689014 3.6922482610206173 0.1266733676605496 0.11971493406484543 -0.8214934281727723
P 1.790455306251974 3.110313870295251 1.6503818882707564 -0.6823718074465409 1.3574424532459781 0.26717078568838504
P 4.823051138796375 1.19128452044871 8.17725126860495 -0.12633963847021468 -0.4573552865287026 0.16849313190981305
P 8.600084440977293 1.3967985166664696 12.650972041838259 -0.41062780056517667 0.9730113656808275 0.17943728962614258
P 6.211824521646197 7.569501641894195 1.330139239979981 -0.23318028767555327 1.2180639793139343 0.457251928181619
P 1.9051685775724663 3.4742677125075256 5.875220371671063 -1.4160196394592388 -0.3999898612353563 1.0564110102544064
P 6.9288028242776125 3.9625523201181916 5.8394673600552265 0.5199338805918723 -0.3910051412382427 1.3156563704481277
P 2.494468539256269 8.631361653608806 10.36423594616372 -0.9992592436337628 -0.91369215909522 -1.4442058720854676
