# total energy = -340895.305625298 ev
CRYSTAL
PRIMVEC
9.03088345186739 0.00000000000000 0.00000000000000
0.00000000000000 9.03088345186739 0.00000000000000
0.00000000000000 0.00000000000000 13.21761078750236
PRIMCOORD
 96 1
Ni 6.202094503136209 2.0869648612243674 11.40207885779134 0.6826574570077597 -0.03792094341548953 0.016371499379487932
Ni 4.5578325674223725 0.311924899666442 6.24500384158852 0.08054109207886129 0.0929140118219174 -1.3419734110761017
Ni 2.592071189669922 1.4678616941031548 4.822683085303127 0.8164869760971164 0.20580986608240037 -0.24176957200646101
Ni 3.5403139260197682 4.414882717196833 4.867292939062625 -0.6279258697928346 0.5636446912162615 -0.18740950919834176
Ni 5.123337442731811 4.355495629251723 2.741504310947134 0.5453255811920995 1.1420943086558395 -0.622935615667095
Ni 7.225853484832316 6.078913256242762 2.4995958487561243 0.25285899705140324 -0.9602622935452754 0.09465953375811441
Ni 4.897637609714142 4.353770730559886 11.26002938662117 1.0834086218891728 1.451021352345404 1.5879400518830458
Ni 5.515259711990008 7.90328712656385 12.419239876219091 0.014881802207838888 -0.3549600746892274 -0.2559021547531012
Ni 1.830090419388796 6.477698996735491 0.5107280532396287 0.1604718042672333 0.2593152941997082 -0.9756670581361198
Ni 2.773546787640876 1.5312314015409347 0.49801798821925947 0.2716866712808676 0.38235337910051564 -0.7522225096910916
Ni 0.6909835788898123 -0.30210381418281856 4.602967115495985 0.45635512739896245 1.2745706561514114 0.34823098349550996
Ni 8.784881944873106 2.3422137440833395 1.4261272735555972 -0.0804971262148033 0.17493785909389228 0.17141724753514348
Ni 6.923761410797662 0.7343995498898304 4.680157686588144 -0.1998330796736752 0.2229043596708419 0.8027197471096951
Ni 0.9894506564066492 7.2936031706237126 2.606948666659091 -0.9439288464925744 0.0890730408092724 0.055531971629033394
Ni 7.534610350671029 3.715287288084323 3.8664019598139956 1.0465102062009268 0.16319228852218992 -0.4956667805143915
Ni 7.666081948345135 3.657462542933389 12.72660237369121 0.4061738785588811 0.5805998310133613 -0.586153670952055
Ni 8.11079876081001 8.773439815854486 6.742276781943505 -0.22914905502897312 1.8697959503874315 0.2586514353634642
Ni 6.887014747043305 0.6134940855636234 0.35341909872079097 -0.5861505856282614 0.15866766117895897 0.15611584129138273
Ni 1.8261077998961266 6.438595272465063 9.192160327930248 0.12978208849286038 0.5028661264763081 -0.02937768183116876
Ni 0.1587078383270339 4.98325941336493 1.4596607490662092 -0.7203320887403981 -0.8719425859622596 -0.39384261068703785
Ni 6.321780798229967 2.0799207723257687 6.844898320136246 0.9687394777783509 0.4183079428182538 0.2238487258619822
Ni 3.4310673319090625 4.478369826116255 0.3539266343568182 -0.06000749090188376 -1.2333895539274113 0.522878565042493
Ni 5.973017119800493 5.563611060660646 4.801534563017565 -0.19537504390232158 0.5659890230787221 -0.5045671683278149
Ni 5.5067977744284855 3.1158895081127804 9.216163512396383 0.37741917502369193 -0.6600875421270439 -0.3349512356674683
P 0.24578903270348174 5.580029206324303 12.43807558931628 -0.4774155476136875 -0.5762878339015689 0.44143450153338815
P 3.9593559375375698 6.199972245583426 12.439595486959401 0.428237800337456 0.0011174014338948498 -0.11048184550235167
P 2.368764540701135 8.489003118482344 1.441684776049977 1.555895107632359 -0.6836974682364999 -0.2895380976399917
P 6.376227993062854 7.9141693408238645 5.902205061514848 -0.6392312675033249 -0.11977226966534212 -2.107631991667441
P 4.770257002131145 1.0810238120884343 12.594135572688097 -0.6071127897022254 -0.7589246043016156 1.1212136085520883
P 3.7791446632150825 6.184520404422525 8.071439462544928 0.9111789057550631 0.059851939160625964 1.4270743546115037
P 4.809487158766419 1.0103571510223626 3.855709394101251 -0.05049646608765497 0.49929537840591426 0.12089841284998533
P 0.11443935195262141 5.5023365181260395 3.730855627638547 0.13515955075468983 -0.13951268551706295 -0.507098676500417
Ni 1.596633057699464 1.074837657094152 2.548843964128854 -0.3296035982023098 0.6800760694338287 0.8776740891293981
Ni 1.8736283073120588 6.431036423223875 4.776686087883597 0.30127801178473923 0.4850057012561195 0.30808475029392746
Ni 5.635632354207218 5.492212898055104 9.29410816223602 1.4211623600024428 1.429174431673642 -0.8661797153365535
Ni 8.43296648820567 2.2384037416610396 10.27407458510253 0.8813937040728305 0.45318572853204525 0.03889307752077173
Ni 2.260285571662713 5.330271100452957 6.887696578725157 0.09697609770643298 -0.2739813808523152 0.29037961970468057
Ni 0.5124321809000975 9.012857560458016 9.060619192455478 0.5108401458207202 0.3568315806803274 0.7651641574534241
Ni 1.373218038132237 1.0851689874787638 11.494668890921819 -0.23786920851079035 0.3804101393312158 -0.4115117458320268
Ni 4.0246943775136765 6.678311036214304 1.4791566197255621 0.6710576679853024 1.4191599848604333 -0.030084992310838506
Ni 5.75083030034892 7.837325555646714 7.879916103921947 -1.6711471208298445 0.15342286784025191 0.9445343412870572
Ni 5.3557743146191665 3.029644573520961 4.755485186475455 0.2339701305667003 -1.5229801020718934 0.09192285155324169
Ni 0.8642166897610852 7.498820960536225 7.1382494023183956 0.18723955927938074 -1.0102157426452667 -0.3778043262772526
Ni 5.01209502343317 4.600304811127643 7.016819243678075 0.6713533448488502 0.07061637676598162 0.08380150799768793
Ni 7.876898885843715 7.389881416454433 8.8927422984121 0.4252728041718611 -0.6555827122781549 0.7856265390728342
Ni 4.347972903543347 0.3579851132683955 10.447807103814947 0.6197726445580809 0.19226580884937855 -0.7710694671942655
Ni 8.063838168152683 7.207529822812756 4.582545579308291 -0.4515705615261255 -0.5327294896946437 0.4012062501409607
Ni 7.271351074410703 6.166765688044776 6.831997703480287 0.2663984262987348 -0.6299192460737797 0.704694125092825
Ni 2.2051159061735586 5.097626518251926 2.786060882495733 1.393747972545232 0.3526321978869991 -0.6492508565228561
Ni 2.2456013555740952 5.3587725678426725 11.363615423140027 0.22067109946494898 -0.8451833155905445 0.2885572217839611
Ni 1.0379555300917447 3.361231512097697 3.979121831604703 0.42208772157566016 0.16465344644874869 -0.5417951994413379
Ni 3.6068534734619173 2.66874338806621 2.704375640833276 -0.4340361521867879 -0.5069382396631528 0.31131996940177353
Ni 1.1173550552154385 3.4848372105017007 7.970205971100538 -0.9270585530997969 -0.05523912297896293 1.295146423420234
Ni 3.8025346507117126 2.6264246693753965 6.808219388005914 0.29867219873077594 -0.20234221924877407 0.23741875123693304
Ni 4.2261553200136035 6.784270388838998 6.076188638780318 -0.017212764333860677 0.9550293272811101 -1.1263036214804862
Ni 0.7785036741899423 7.346018416735849 11.348429089945306 -0.17045488362187416 0.7122624243583863 -0.14968834049848415
P 0.10689133977127663 5.6533780397017654 8.14836633184755 0.05967119060838755 -0.013712207379769933 -0.8476921980553273
P 8.613764769936374 1.672230580994555 8.04607532398005 -0.5615291875351556 0.05101840002939601 -0.47355966420270706
P 1.7484692969970828 3.2722411890120653 10.295976283047251 0.033729788152277396 0.1655412483703407 0.792570574490835
P 4.1551635471522115 6.240737652363266 3.5587098351049553 -0.7915321059239917 -1.142073482720233 1.5726412167424464
P 7.129828103731288 4.059038826335947 10.522222484498723 -2.0809837929522934 -0.46792971961043933 -0.49712690999968584
P 6.040459755562975 7.731528758919681 10.017785344498536 1.0595469847802268 0.13243135319024935 1.9816944737316513
P 2.4375437471777106 8.316170075736979 5.85911600848679 0.36917364718544804 0.8116041940835184 0.10461767341209079
P 7.008272415814441 3.9151768569068706 1.5784078323068198 0.02995592293214196 0.2046958070826152 0.6505037550933507
Ni 5.286073958055852 2.8119099794886298 0.7579430624009166 -0.7740627454946346 -0.2468084199819491 -1.1518053652960163
Ni 1.5037775166028056 1.1332494096533023 6.952529289241875 0.30367607970327054 -0.954187290995789 0.6190535070038693
Ni 6.757268048061036 0.9391125134312774 9.074761555551895 -0.056785127309844134 -1.102445583915966 0.27136476916507457
Ni 2.664887200938387 1.8393831982050244 9.020833636503198 0.6736794218788656 -1.128556679180721 0.43511884372800547
Ni 6.569515986263767 1.859666561879708 2.54346517009295 -0.2726642047027885 0.01780154695779515 0.3586647772343242
Ni 3.973606671232428 6.904101178064009 10.27629527928223 0.011088910824309935 0.6344531293883912 0.32798817408607384
Ni 7.938191490144727 7.208487096432309 0.05938257250350868 0.4087220989020316 -0.2595261246589337 0.5627553466327727
Ni 7.667897155869005 3.990097063961712 8.26123160085783 -0.07249379629435257 -0.4466175883962244 -0.21522807407250674
Ni 3.0679445491862913 8.378158058044649 12.440111150390312 -0.013096685282958091 -0.311516915903928 0.19552725320946973
Ni 0.10679651549764164 4.812846647318058 10.267505520660427 0.17818336261438344 0.0730427268192871 -0.004527198446392203
Ni 8.862240490392848 2.3270237985353353 5.885338984044305 -1.3433543505840284 0.29659294760424404 -0.31776418236522047
Ni 3.567280143264917 2.576845120589105 11.500007949071628 -0.9028747567647418 -0.27628817460862093 -0.08869097487950532
Ni 1.3054683523408412 3.3044904729311635 12.640542572205058 -0.8755171906873953 0.40020094880489787 -0.31765131093644006
Ni 3.0800278709123496 8.442403761153152 7.972016663182806 0.4288278685129711 -0.14081726326109942 1.4478172435858097
Ni 5.826472978060027 7.7245930406195225 3.609372186787327 -1.0590142522052084 1.0405928122752273 0.02993843943064521
Ni 3.208808265391862 8.378745065452865 3.762313806189033 0.7042030443890194 -0.6464239285970221 -0.6588071327527234
Ni 3.535527557922002 4.3134839605898225 9.353746308734184 -1.7963824704922868 0.04107902942849699 -0.9426237545279056
Ni 6.97661013930356 5.982174435368671 11.481398008054523 0.5957487708396579 0.25145080384996693 -1.1061353740627273
Ni 0.5754171727134152 -0.1624692011812216 0.3751835272408207 -0.5371330180789782 0.6786593915919602 -0.3095464224411185
Ni 4.5563785952266365 0.3186059470602669 1.711998075180427 0.38112362045847265 -0.4347169803038965 -0.3889287183251882
Ni 5.874878512029886 5.387915227939825 0.3323066999680417 -0.17724233885735283 0.6155352094379657 0.3067020110137879
Ni 7.87976167581917 8.685650600234895 11.230276238819473 -0.8305686510011632 0.8262026607229834 -0.22311133347532544
Ni 0.11206784202342646 4.867763448077519 5.879060714041349 -0.18496181898879757 -0.3308253864245528 0.05737699525757216
Ni 8.062465473905776 8.841008883981814 2.575597052530404 0.09147625093412633 -0.19804744852816214 -0.45770238545547626
P 8.85121378200158 1.5806122708967534 3.7124967451744935 -1.656731716735463 -0.4584323216429654 0.12670293534690438
P 1.8023204535385506 3.332070790234139 1.582332654146988 0.449664088532032 -0.7107074211664405 0.039585989822738275
P 4.744473830585632 1.3170820681403261 8.287085213292329 -0.3757160762896562 -1.165839217681263 -0.02721358430031442
P 8.463238008703238 1.6164016610315575 12.516098807839787 0.7879364181529334 -0.9524212002343017 -0.8256539873083651
P 6.317427912525961 7.706802200708958 1.3848751021710977 -0.39971783852089227 0.3155247515117405 0.061564036755726234
P 1.9845817383481943 3.2631109660934965 6.03358815653356 -0.9158961087250742 0.1123921751511871 -1.1452562513235889
P 6.997128305941531 4.0767393574144775 5.989745024758024 -0.35581650915225177 -0.7111879603472848 0.6837391201077128
P 2.296508444191277 8.564022665252422 10.266738798676464 0.17841064813384114 -0.42091812674759127 -0.7394356423390684
