# total energy = -340886.6883488818 ev
CRYSTAL
PRIMVEC
9.07947898852805 0.00000000000000 0.00000000000000

0.00000000000000 9.07947898852805 0.00000000000000

0.00000000000000 0.00000000000000 13.28873526751206

PRIMCOORD
 96 1
Ni 5.248274880125969 3.3336851151590845 9.975959665151136 -0.9323164590646267 0.5779487665437594 -1.4776109299084745
Ni 4.279503536017268 0.7004182588269567 6.940547242863756 0.8231055098548986 -0.4582963102857333 -1.3803730939002228
Ni 3.863963014495765 2.6901316341477846 3.2879254482721083 -0.3973192563817286 0.23348239229700438 -0.09965801541397029
Ni 5.066930443384452 4.614027865226923 3.240537830776423 0.7114620399442779 1.0990406719994747 -0.23340911585690768
Ni 5.091036460484974 4.759807982200927 11.960194482762562 0.060655151788211674 0.6608763565769263 0.06656637506632407
Ni 5.798573030952914 5.998031028566574 5.509004834726884 0.21484420837052676 0.5070027743525011 -1.0296229435272848
Ni 3.520813180108899 3.0516401753434095 7.319568283412861 0.45062439556277234 0.19068920839087802 0.1936647460794342
Ni 5.5887462681683315 7.8986111572298405 12.801623408174482 -0.20470866259842163 0.9292506756551093 0.8649949509998328
Ni 2.47883399574351 5.292619056215969 11.763122572265294 0.05531882717696279 0.17206002332546494 0.8546845702127603
Ni 8.23712137777928 7.378021062129037 9.868307912852059 0.33869270498777154 0.07093519355798107 0.7709581384273818
Ni 7.721506837243859 8.754097840184787 8.023631953112082 -0.4496095811450128 0.6221470583275285 -0.633362981648006
Ni 9.049761998701323 2.6302343103014025 1.6986861067979793 -0.9871879142915256 -0.24156619774640328 1.2425359963133698
Ni 1.6770978292612895 1.4945276628366957 3.1952366775857097 -0.5229189313621252 -1.3491778992443408 -1.2524198310859849
Ni 1.9903126209436655 6.6702302662453485 0.8138736141884269 -0.16363786070004077 0.8612231426622264 -0.11059831647555791
Ni 7.7644164556307 4.044472139156962 4.092279228588634 -1.060019039320639 0.08315127600819873 -0.20849255512088608
Ni 7.350492081395033 4.018650100500132 13.302954112136442 1.6972934402079092 -0.14780552165347446 -2.0307174405975736
Ni 4.405081811918331 0.48304644888209886 11.119203188244896 -0.6356229813267762 0.6914112919409899 -1.2050459697877118
Ni 0.41974341241258867 0.304213396069021 1.1672932474236546 -0.7651883258231402 -0.7349377544687149 -0.5519263743380688
Ni 3.109458298468127 4.498564129081033 9.472569735321605 0.6169459737425633 -1.15577591990799 0.5881987264065418
Ni 8.912325923051378 5.032728045487026 1.8479445722281833 0.699511295340305 0.15277392140234333 0.8331508099060426
Ni 6.43517163094764 1.8020768595395138 7.4852923842524035 -2.0876570912074106 1.1595032481609062 -0.8542027454803353
Ni 3.4259871000343782 4.737272714990572 0.7630648489550855 0.4035318129503437 -1.4325513185656746 0.5084896433106726
Ni 0.49951390018726527 9.244362474978342 4.888354339830864 0.2048968673498278 -0.35181998639834894 0.42847331338702976
Ni 6.445458680806357 0.9971174779647566 0.7472710950016549 2.2963622765597353 -0.8729520010633804 -1.1220679861325837
P 0.3091099591659368 5.69160768727636 13.03500052393659 -0.3688414606570099 0.8091161375543421 -0.03952351201591903
P 4.029236773170267 6.427644742745632 12.921580578543745 -1.4816773866683643 0.7452882444651036 -0.19869948028986426
P 2.3560431199365577 8.822212092647355 1.884860826438734 1.4521415819927765 -0.2868975746933511 -0.053653780769714055
P 6.125624948835363 8.031325903730153 6.711329436492891 -0.9638690370599271 -0.043930382834363055 -0.2433844819020647
P 4.35094995732198 1.5101080490304795 13.04527213868078 1.2532924634989255 -0.11836047691948004 0.40939495659934005
P 3.5946293454675597 6.535962928813138 8.736745139664066 1.956373735578676 -1.1833178340820008 -1.851589968902366
P 4.6340753551545895 1.0926699163699896 4.4440718191630655 0.7474898801021127 -1.5393616287537102 0.05933231921173008
P 8.856396331586513 6.17946626009943 3.918662336537986 0.28136558913152837 -1.2332201182290827 0.6813194549226266
Ni 2.5896036411771703 1.7091847085205154 5.264146717599951 0.5154300791842478 0.3056661135501058 1.0518087355957046
Ni 1.681428740808163 6.585273579989385 4.960192994634159 0.2730375288818072 0.0007566756603664388 0.7932999964576919
Ni 6.447492484132352 1.151250715741955 9.860972601659775 1.0727429146452105 -0.4609748855591609 -0.2306570070330673
Ni 8.464053879252141 2.818960363578785 10.771676136967576 0.9176675988032003 -1.2549220286825484 0.6758440336303523
Ni 3.248374329216898 4.5035215246881455 5.1563751161763065 1.6111378301557477 -0.34064982871414234 -0.18983817324449243
Ni 1.8968030653435615 6.620656310174219 9.938246232672627 -1.7321840814375071 1.4901157472437048 -0.80324142394112
Ni 1.064541690013147 1.3129562391168317 12.107991152052207 0.7207064413606814 0.05777320225472631 -1.155041869955443
Ni 4.202391519733 7.188241789272122 2.105786344516603 -1.773620751315739 -0.2399705711245093 0.05238648402151624
Ni 5.1838741346291695 8.101909774517143 8.832092381840873 1.3661106704439376 0.8148977772331255 -1.1876141474645094
Ni 6.937094316949131 0.9470259915829938 5.29391288199255 -0.8085587223889752 -0.8038230074762027 -0.507990335076751
Ni 7.771471210917746 7.7670404251004 5.382097323080617 0.5647147843519887 -1.2068146316523602 -0.2988516617314337
Ni 5.029913406955515 5.085552455088095 7.462994091447443 -1.4718966531325168 -0.2395018590182069 1.70896342034667
Ni 0.5251361903031497 7.5554885612803755 7.014020203911155 0.4875423516350442 0.1496988820214454 0.3964692496766075
Ni 6.159981697878066 2.395239231357632 11.922972250105198 0.36489918817981026 -1.0187448631622003 1.152654600670189
Ni 0.8838437121859647 7.674602248038097 2.9566107149362897 -0.11419503268788077 0.1973455373651311 -0.6467728272960087
Ni 7.418896877189885 6.25402694274707 7.560134530753196 -0.9921941092568655 0.27507898479186815 -1.6283917321401893
Ni 2.384443730667417 5.5822544405875885 2.8344472311374895 0.013238610177461071 -1.1010049948146974 0.7624074206438934
Ni 0.9208135353234055 1.0343433424137736 7.235544059663948 0.5068194546971013 0.03587485951973822 1.0512551770850798
Ni 1.0481441506973117 3.546907603139747 4.213153426350419 0.039044515496971466 0.7200549238196116 -0.6939463996580177
Ni 1.3048936616459226 7.684780344147206 12.089599759118567 -1.0749939154629162 -1.1123605290368328 -0.8673053443005644
Ni 1.980261637542431 5.413348890259525 7.6686106997576315 0.7505101549856752 -0.2224528739557201 -2.2618308184417693
Ni 6.274274181215682 2.0918030387024737 3.0662290824157705 1.724753336191075 0.35977395113810295 0.6467327180866926
Ni 3.690490486163346 7.232467932133381 6.358168568412979 0.9909352971490998 -0.23852741092007956 0.6322437804418982
Ni 8.07299163347565 7.120654146599321 1.1021398131066542 0.16741069747891169 0.9092192109255309 -0.3897753825961997
P 0.13034591039427654 5.76674945658857 8.465987808307665 -0.26233608330390307 0.0714931229439801 1.788324890295133
P 8.229503694785933 1.9007707977250787 8.304290456464008 1.0413281477793548 -0.10035427015004653 1.2507447573764072
P 1.6544172903847907 3.2420822501771007 10.828445580252327 -1.2002601183632942 0.801656081731871 -0.2872235905742021
P 3.931841200500851 6.275282003399546 4.300500739462341 0.47643415753702467 1.6183261203740709 -0.9005877605027781
P 6.909883117984814 4.244393190206452 10.947525672937251 0.6502674707128285 1.8855413861471464 0.4123866922378124
P 6.286903736690946 8.257604682705374 10.865960172137802 1.2305114610486678 -0.736873280928531 -1.304420135412676
P 2.2653209644305625 8.877088464532687 6.254648887067743 0.10963466701070795 -1.3268483825092052 -0.9356753482345304
P 6.887302453378788 4.121420724816821 1.9578162571755002 -0.5524164266006099 0.6054323166760089 3.0260832627142014
Ni 2.4287061914452117 1.8185651936466882 0.855968803296958 0.9257557751279734 0.0574610703309462 0.05193242720323314
Ni 0.7355385920648209 3.2744778317268795 8.629611825623535 0.4689751301558181 1.5937566585648228 -0.6228026896336565
Ni 0.30155674047443987 0.5245451162115323 9.568474457517233 -0.3360601524609309 -0.25913017477209566 0.9702235185230451
Ni 2.371641665088609 1.8322388892223518 9.229106226189641 1.6269277460001528 -1.0316798260563136 1.1435238420135143
Ni 5.247421409087381 3.020715469413324 1.1008151171010172 -1.4031762078376673 0.6446781495505092 -0.5088495977532527
Ni 4.200094411512121 7.098155197305501 10.690601835989268 0.2580454263483491 -0.2735877449583224 2.3633569974127298
Ni 7.396334371542128 6.276671163707033 12.057162411964772 -0.6106017766920904 -0.46293098084426726 -0.19531745119150878
Ni 7.553073419830756 4.120467379507761 8.884396537287568 0.3269391639962692 -0.8598200916671127 -1.7591307852296802
Ni 2.928132020684878 8.966757400459148 12.997100962135837 1.0167355460416554 -1.3138887370247436 -0.04690566341260309
Ni 0.1945650663083979 5.261412886432732 10.87834458167645 -0.4929596659958736 -1.1266594621580082 -0.45568895456987324
Ni 8.66062460250122 2.4047999228856356 6.012009794641137 -0.17176048980717518 1.8262437768280932 -0.07781597983821438
Ni 3.536811222342843 3.067411230599005 11.75998561222453 -0.2720504823781895 -1.0639708248795354 0.39970344034318905
Ni 1.2022592295162424 3.6426688695650595 13.269360947288902 -0.12114909540821071 0.9626894149295292 -1.2646811649518412
Ni 2.85234560835416 8.53718908367576 8.376554030890771 -1.41531490008273 0.29727737526577835 0.8173585800687924
Ni 5.66732008059316 8.023753618132474 4.128889504352372 -1.9353961048857442 1.9663141346208397 0.6291947092029292
Ni 3.070752478920283 8.388231149004888 4.065555597653807 0.4026720360532097 0.8384313415786915 0.07763908794071789
Ni 5.409244965690999 2.8256610191796083 5.442467687789876 -0.5031669455461786 1.2881195984804394 0.1315054989418703
Ni 6.308040764114681 5.934946807544191 9.497087052826894 -1.7508158376060816 0.3801419732714937 2.156776828823208
Ni 7.839975880983071 8.865466731241286 3.0843689737774027 -0.6324029317275819 0.06702377431871684 -0.5668565132853399
Ni 4.704631987504177 0.6945229530253112 2.040192555461608 -2.9932721297214515 -1.2547191686431232 0.8865950457681119
Ni 5.754873497881421 5.862892061137508 0.8130210510977529 1.1500958388040774 -0.6297747500761154 0.9098074793288331
Ni 8.268581772978266 8.524377938617818 12.379427628447825 -1.231191260724512 1.2675782839939782 -0.5072848243692941
Ni 9.024475649313393 5.296768378180164 5.928330591099313 -0.3127775277839065 -0.9701715822391872 0.6798037896090486
Ni 6.919389332638014 6.413598788525479 3.1863197211282994 -0.03826392857720507 -1.667353458115367 -0.6281009619181184
P 8.476538163061264 1.753383612944373 3.782253149978086 0.10002388339382129 0.7868174740571418 0.44085240377767304
P 2.2103901156704278 3.423426686918617 2.1861560779141174 -1.5026280207781022 1.7279759568934303 0.12812526961572773
P 4.547066706614362 1.6847972275668424 8.83578682190046 0.005359207429384318 -0.6599242770763022 -0.11381193831684916
P 8.324338854339587 1.737539921855706 13.075225340343538 -1.0710920093053489 0.1498451777913226 -0.43690473198383467
P 6.076150867034706 8.002189855189448 1.8350943854099653 2.131037257965259 0.7566463497904001 -0.5408495476986169
P 1.7698265496558776 3.622921002448813 6.240443134014833 -2.6203953226528034 -0.7217814195924149 1.6608259414094946
P 6.7465977652406375 4.281328511323183 6.4741126090050525 1.4067613540857644 -0.6380912403616108 -0.2657638780385294
P 2.126650079618407 8.908512541815137 10.4984864131512 0.7395901656390618 0.01167280835223796 0.5056943399537226
