# total energy = -381166.79027790355 ev
CRYSTAL
PRIMVEC
9.28670897724625 0.00000000000000 0.00000000000000
0.00000000000000 9.28670897724625 0.00000000000000
0.00000000000000 0.00000000000000 13.59203730312568
PRIMCOORD
 96 1
Ni 2.618118333692767 0.4895999503813108 1.4070209471138755 1.4499543445334706 -1.116397675220684 -2.5027568115010124
Ni 5.143880344768296 5.448280097684117 5.156941172533895 0.34024796529003337 0.038166226657076203 -0.7244723361610168
Ni 6.238133285340366 7.970485299150557 9.163656551033817 0.0193362384347667 0.2060829172381289 -0.47004753728439047
Ni 4.178805528641252 7.448934425896987 4.737966645330473 -1.2509306481349682 -0.40749671113536273 -1.96208492703084
Ni 1.5093595534094721 9.152219040029756 12.536004256036959 0.5744698068562236 -1.4246683162731721 -0.3591867111760653
Ni 6.31944771076385 8.048307921929084 11.529962051112157 1.651581025772459 -1.9047647531531327 0.176155019330445
Ni 4.455865209783806 8.749138715557294 2.794957706899603 -0.1536383262851677 0.026432483159915764 -1.406491131143513
Ni 0.6373830679617198 6.985453345034125 8.924844181575436 3.0649321172605988 -2.189702118796319 0.8401866337069014
Ni 2.2710832990136725 5.450546054719674 10.19673329500045 -1.1906719604542269 1.7393667152288754 -0.4687151916262121
Ni 2.8962924199347757 3.7933606648676474 11.472400241712617 2.127580666875226 -2.018191025995789 0.25358739057699553
Ni 4.3782468946068445 4.136318834224573 2.444500519894269 1.116558112057948 1.0154286543047737 0.9942242523130168
Ni 3.1825738032753104 6.775573717970316 8.126257772623134 0.18740590965391596 1.4740787483855002 0.07728710391793786
Ni 4.805073334406836 1.6818508893866055 6.801387983428248 0.05907418045433697 -0.19526885734176047 -0.5912632242644785
Ni 4.328962329083498 4.790595354823097 0.011842411523529701 1.1181172290149517 2.6521461327018385 -0.21963083112589268
Ni 3.017641848556139 6.67343849060537 12.630197489726463 -0.9087278731114092 -0.031821515385971 -0.6627275508530522
Ni 7.32199439836003 2.8693516766554783 10.718653779278673 0.8094298121400189 0.40547762382280494 0.11759120285362328
Ni 5.564754003995371 2.1164688781736114 9.378873249853095 -0.80589325974167 -0.27495711450202326 0.08799420592279684
Ni 4.0512804384270815 8.628736531270466 13.438080823220957 0.13168933281790227 0.9647486114514029 -0.5089269879584074
Ni 2.2662449235402105 6.261433638628114 1.9595234933338594 0.46668427723911243 -0.027855074539055252 -0.6215932427065876
Ni 1.7887501985517174 6.849105881115946 4.315880141886826 -0.004686092621759672 -1.0793244245174702 0.041713320578386226
Ni 7.614665037604101 6.350836787731801 5.007293283753734 -0.8062095054305083 0.6976225629580243 0.7505091265444107
Ni 0.39443346957161596 5.389095900193956 3.251188653919601 -0.6428017584634027 0.6210000892072789 0.9016683951614666
Ni 7.127595715469466 1.7658863205945887 5.4983865369683125 0.42883326782960984 -0.5358901468108126 -0.2677096889109905
Ni 4.400553570014246 9.022790174437352 8.27441142989911 -0.6059876749588466 0.010151486611705098 1.4323466587540363
P 3.516496004617498 1.5535550023119797 8.796426638610786 0.22245467372793298 1.4839109039845733 -0.9303660202064751
Ni 4.9818922768535145 3.156840332187088 4.7351537011252685 -1.9393170372067052 -0.5692620374030389 2.040092196944254
P 6.344336091318319 5.983696027716726 7.324776696425 -0.8457237614750467 -0.2688088355124403 -0.540923595469662
Ni 8.21909050342039 1.1195220762021871 3.4219990955383914 1.1263301038430473 -1.1253785385630555 -0.8009253742134336
P 2.032591321021384 7.952014034627108 10.619227484976316 0.4305849604133939 -0.6604531529965786 -0.09578593405307374
P 1.0682037213723368 7.396427372294386 0.4299198426218917 0.5473498107109799 -0.5285319066735286 -0.9306624684009713
P 2.8944722249390007 6.143288124667682 5.974502185646231 0.27331880756765187 -0.3859503524231546 1.3892703963898527
Ni 5.841739391464628 1.6982326443485773 3.2033444569872978 -0.38427913536831887 -2.383460195920508 0.24019425709954118
Ni 8.768631518088574 8.776943122788667 8.709329379392054 0.047926905588265845 3.133294150774765 0.277311987887445
Ni 6.868877284922091 3.5248447561542395 3.72750768152817 1.1239551758529676 2.232039189001633 -0.5277022116833815
Ni 2.43503086256166 1.147502930907641 10.524369322910802 -0.7031326941429762 -0.11286860056697334 0.6059899889516919
Ni 8.995069347588437 4.593336365510602 10.096858452645565 -1.082589211311671 1.1522907895728671 -0.4525362678735045
Ni 9.009194432224014 3.2793784595812023 3.211879871378198 1.4533700550832387 -0.492908501042964 -0.8637070854263448
Ni 8.36491969739309 1.2083215892103356 12.282309006475371 0.3573049207723201 -0.2785900832689202 0.4720028612385484
Ni 2.4526198897147067 2.567533628886724 7.203616716670544 -0.135073933019419 0.24677216742737496 -0.7973307148836397
Ni 7.231421123901917 4.80882516490833 1.6556057206235508 -1.3883088038075317 -0.48444802898043665 0.9635340223180114
Ni 5.354800083258263 8.153758504464905 6.450550041347268 2.8095292707414194 -0.34552772563173395 0.7722604021785733
Ni 6.594120707651741 2.9183390674856375 12.973885594423532 -0.9688893730926541 -0.2896278291403206 0.15505860367146201
Ni 1.9278465283818833 4.92010780079796 7.687996607831829 -0.18418868826819892 -0.2546752243245356 -0.2746760929264947
Ni 7.061892248147499 0.701966558158736 7.797044861497055 -1.5271108364108152 -1.3974927842996447 -1.65493811517015
Ni 5.651371140350422 0.8267056356242715 1.0222939459585025 0.24553083882110618 -0.18676853318023318 -0.6908191668829459
Ni 0.6794890073027515 3.3829995604120873 11.577534147466011 -0.6783300332769996 -1.0054769424087007 1.948608232700644
Ni 8.48687276210999 3.2126720276697265 0.5404502550693906 1.101579893481561 -1.6448743031762445 -0.1755883481936976
Ni 4.506784236119685 4.895823056339029 7.363513417682016 0.11118967020265366 -0.45299932355285205 -0.5467034353762326
Ni 8.753884223939135 7.823467406405106 3.8282378297968886 2.682138822409187 1.3627612943557303 1.4393009785846824
Ni 5.935005811579755 7.521593638381378 0.76352072382707 -0.4768421916087207 -0.8423000805054783 -1.1245470438006955
Ni 0.7473497771630783 7.875324390366359 6.293045596615956 -0.05933489031489136 -0.5486191643417069 0.5969433053683912
Ni 3.4670535650383947 1.8658856048522485 3.138102539110688 -0.25285591172760963 0.02199218800037503 1.0466996965039135
Ni 3.7348265370188334 3.829198075524251 9.208360911598408 0.30548665054944807 -0.6763582542626093 0.4373119947245823
Ni 9.134137817291116 8.11211690058198 10.864414251603575 0.06453931733396627 0.8473666963951083 1.5286126177673223
Ni 5.947533582239448 0.8464547513284264 12.064537533965593 -0.24306592222038143 2.0098444538033062 0.14874423141765994
Ni 4.603403158242336 6.132459821784654 10.214198808921642 0.33935527827243495 0.6719518976647976 -0.19039070331385274
P 7.299241960912847 8.696659522082179 1.8842370708275051 -0.21723379164862588 1.9110847818338894 0.14745173785848154
Ni 8.126464866237448 6.998519744825223 7.654858843528652 -1.3012610209584043 -0.8433550041325539 -2.3217262092458206
P 6.288105067341711 2.9155066211911924 1.501729593161878 -0.5149659950636357 0.24328240910656165 -0.10940995259441157
Ni 0.18717176582060574 1.501085095546027 10.183004752846097 -1.7029670935539187 -1.2239916576522791 0.5866740622318993
P 1.260605761793046 1.4484387413059943 2.5056785738415375 -2.497357751972628 1.7850806723262225 1.3220630453054198
P 4.438406196559029 6.418072562065517 2.557572704639439 -0.34990014366781674 0.1855914821529965 0.3107252732405681
P 7.946116974309165 8.634113535875331 5.78415993731768 0.21647248800256913 0.5207118964084774 0.5330943292332303
Ni 0.5666796364268696 6.001312914997259 12.146374801114904 -0.31498944783356075 0.5062167881160959 -0.6508680804113048
Ni 0.00536400321203792 0.0015508804300732905 0.9714965755126469 0.06768377650021891 1.1852315061649459 0.6387869808770547
Ni 0.4530001009024974 5.544007495727206 5.910538118950329 0.35930549614211665 -0.7194116338086578 -1.0063040662956864
Ni 9.040778530084369 1.9632381769987057 7.960666461553451 -0.0036429960692259842 0.9647671233941645 -0.6217277114019228
Ni 3.637891866784672 2.9392713099370456 0.640943592254475 -0.5512098078870185 -4.3229654378786195 -1.1302505219433758
Ni 2.060460735216893 3.6105239348839175 2.148968645557351 -1.8333713890118104 0.3539336903072421 0.6636716599338763
Ni -0.04118841247581472 5.232317676119123 0.983714170086326 3.1842742413670577 -0.403512272566318 -1.941372119963521
Ni 1.352572042625476 3.2197485000512587 9.30050085389217 1.2507496424724138 0.2557658862855531 -0.47033138707339645
Ni 2.7492931006076486 4.3892887918006 4.681695688504466 -0.01925910533992812 -0.3073468436866384 -0.23951394320306493
Ni 8.267529978409984 7.549992394999128 13.097463833243802 -0.42685274706447135 0.5131142865668776 -0.49149953651057937
Ni 6.607400701753566 8.57555154789903 3.933317872637142 -1.5374163321018812 1.4064448512866101 1.847708888680405
Ni 6.472910579667809 4.619784913204307 9.08857443612903 -0.5886646102993668 0.0904041009158701 0.5659692255843801
Ni 1.757138240563876 0.4098039019058333 8.092142117845185 -0.23066060657749307 -0.7839843754837208 1.4260549122080537
Ni 7.139742731053513 4.399949933918708 5.918380744837735 -0.270911740788056 -0.6792564017460109 -0.3506861299042219
Ni 7.3375310627882495 5.281899416335657 12.982965209971331 -0.47904768390047175 0.4125155045061928 -1.1739525908170168
Ni 4.336224535648272 8.95614874949001 10.976943163862758 -2.2195246014743906 -0.6860505418497088 -1.3470220292436026
Ni 5.34034067709285 4.294239323526348 11.548026557774305 0.4567395073215747 -0.18271133239172405 -1.2369464180407341
Ni 1.1565946191773522 1.8796113609938554 -0.1177712595812003 0.5650873372000591 1.6338231875684055 0.6622439263484142
Ni 2.0536535774010622 8.825122569921723 3.4876217684906483 -0.07601389363246909 1.7023230322120164 0.3736255123092146
Ni 3.088518012881404 9.013150570327076 6.258195363143285 -0.9989928773462537 0.17300978883324397 -0.7704909689829763
Ni 0.5802354457908097 0.8118227555210652 6.1393598466921055 -1.4109075150436539 -0.8628771333258817 0.45094244102382347
Ni 1.3796892333788533 2.1747801250025347 4.798329326213308 0.5146122112686426 2.001946282002152 -1.8463099514503494
Ni 7.703362396811466 6.474331446169613 10.063517309411736 0.027486892566359115 -0.30286695353841386 0.6891371511948325
Ni 1.8961138431749347 4.54187871004332 13.270055465679885 -0.15612998235876982 -0.3958071906125764 2.0775374862749056
Ni 6.5632981199426785 6.5558408924855 2.8228076190058715 -0.7736737375863321 -0.3104481083197815 1.4954024495639409
P 7.200812130503585 0.7618992644073647 9.91268629388432 0.7757607020223478 -0.7407343065458339 1.5814284760167732
Ni 8.655825861896357 7.108687975615399 1.8229912239033534 0.2054216295050462 -0.29185800402241996 -0.5762700932897559
P 3.5664584999096793 1.4544008085880724 12.318898640574107 0.46568771765379796 -0.33515255304499697 1.5610442559334663
Ni 8.789870221942332 4.555140130726821 7.774971282489622 -0.2817653956731083 -0.11326583600539201 0.906402310302026
P 5.249776689343899 6.404328232505586 12.365111162706626 0.2789994028921969 -0.29228069338213536 -0.033535155642968044
P 4.60206587212299 0.4023977513490462 4.825662897290162 0.11033272151899708 0.9416315658179654 -0.2836317594578857
P 8.972623371543603 3.2133035238927508 6.054478396279454 0.6698081118489174 -0.7951411634314887 -0.6149731662869086
Ni 6.742708054245589 2.900508585894376 7.502777836948017 0.05904846942272411 0.9349307567590222 1.0048673338491598
