# total energy = -340864.53005967924 ev
CRYSTAL
PRIMVEC
9.36774859760470 0.00000000000000 0.00000000000000
0.00000000000000 9.36774859760470 0.00000000000000
0.00000000000000 0.00000000000000 13.71064697913771
PRIMCOORD
 96 1
Ni 4.547208127406099 7.373551502648305 1.774692771349467 -0.2416019360803452 -1.0557489511903753 -0.16218878695834005
Ni 4.853158790743112 8.734769657542309 4.4640356363006495 1.341538123310896 0.8545171913969607 0.9868325878346359
Ni 5.336450299384261 0.25409923906767196 1.3439983597517466 -0.8294738752750876 -0.9650124066357509 0.915345892648559
Ni 8.697364238108607 1.739937487943262 13.058760265316034 -0.8026446708973854 -0.1374555458777181 0.2849381369741351
Ni 5.908519959784284 4.926442686618357 11.092845519056405 -0.4225708318596658 0.8974052490097383 0.25767595882407235
Ni 3.771155745200703 2.6367869860007946 3.4409885154279114 -1.0871050969041536 0.23656205966359256 -0.42791281289786953
Ni 5.329752359265278 1.936838191944508 5.83529227039955 1.555962727645501 -0.13040095302378185 0.403520242986118
Ni 2.0413354255490512 4.447638329469506 1.0918213826594805 1.2092456096913562 -0.4832182703383936 -0.5693291431955485
Ni 9.255644572837102 9.255644572837102 3.7456248836618578 0.9821534371914118 -2.8396039786396132 0.5852429862123276
Ni 7.523088870647348 4.024412823685584 9.47838902117436 0.36126673363354556 -0.1373807267757247 -0.7992729262116751
Ni 3.0297640321424892 8.968616761304766 0.48311258464636075 -0.4287579345069842 0.14805234755695793 -0.0059245930145510875
Ni 3.0791133308093412 8.498102861505986 10.904639022362053 0.40116125583563816 0.8190164273871895 -0.16558572845503094
Ni 4.8125308658535655 6.573583258731354 6.5112680594789305 0.3072838516591869 0.22437785889257483 -0.28617303782250075
Ni 3.504924335156676 3.3561363870310856 10.665553473684161 -0.5967916102818753 -0.35474821578873744 0.15049798088397306
Ni 7.498320543829741 3.6343210440566813 1.9439370716957873 0.8461171402587235 -0.7191316406743937 -1.416943693935405
Ni 8.313211610976817 8.42721710922579 12.011472221861629 -1.7325782315521323 1.623306604307798 0.2925002655921091
Ni 7.22951300297072 7.755221676449284 7.64711317582954 -0.40231311005189424 -1.3373325698699807 -0.4965682092827383
Ni 0.42839181903653734 4.961918349877918 2.6600714614689664 -0.26960947703686466 -0.1712897208183437 0.6972551523162765
Ni 1.3653493319464103 1.9314892075977401 7.534082860190898 0.5752460229006158 -0.8170773013829478 -0.167559307241634
Ni 2.1399778163922467 1.6733796354322552 1.7836314768900725 -0.4689159947831085 0.6220192745004127 -2.3821633314859554
Ni 0.39199155900810395 4.094361801123963 7.893850301415383 -0.03697683433466535 -1.2459069696681317 0.3998137406688082
Ni 3.3398458725319102 9.122304041853052 6.722878938821209 0.8768366808297673 1.3905184098643408 -0.788697464688674
Ni 9.073638588820726 1.8150106237663737 2.9072057795877386 -0.08390203813129421 3.075501408136013 -2.170018781434779
Ni 0.9659366426414423 0.03781666358925876 12.601167300910415 0.9500280174117768 1.272938519864627 -0.15330433998451662
P 6.263295327876733 0.31252775950140194 11.74380005211089 1.9139980988259424 0.03593399489244779 1.8860435225945456
P 6.420345630107138 4.231824141412001 13.391970139775042 0.5724869720982398 -0.4990197561470245 -0.21895000300878423
P 0.8660792548284121 8.617822686290035 7.870185495361434 -0.11501058661064063 0.02548991674098836 0.3179194769961622
P 2.7064830342318844 6.172999600874116 5.893425706758108 0.7928839919661957 -0.5807237581857353 0.0652995925387585
P 3.555735002576761 9.30333578003394 2.93538115650503 -0.223368443791454 0.444201522755564 -1.407062944486583
P 6.736657023194635 7.868365341843786 0.7969780586218755 -1.1474188061925463 -2.047716032038099 0.35552854559818775
P -0.05169685642044227 6.677331072462445 11.5819178652464 1.3081135251038634 -1.1945836368038072 0.6426762886291318
P 0.19343088998716054 3.2291940282166376 0.6637368257710586 -0.3902590071008376 -1.1175060777935142 0.7393531099275912
Ni 5.819994737232699 1.6569579724552257 3.4202989062715696 0.8759589062105043 -0.7490343417710971 -0.947109558213401
Ni 7.973818085786982 0.07217662801221751 0.9576845930598876 1.758392364401759 1.146939809673599 0.500758336104686
Ni 4.136497933508834 3.991822426938814 5.261762178021136 1.785895454918034 1.5749199854742941 0.9024942334968714
Ni 3.2427585279261293 7.392858432138127 8.180197077637718 -1.6287321461987434 -0.7140387995325187 0.9388385764538606
Ni 7.20359244309768 8.428931407186312 3.1954307893679155 -1.9383533877418553 0.2818859804113726 -0.21775778247289596
Ni 4.12279291757307 4.053209282322998 12.823060220916462 0.20416975937581613 -1.832602629166586 -1.2576039463900859
Ni 8.509878121267608 8.729945267106958 9.486218585302257 -1.5985471379749308 -0.5553986491573853 -1.1588381037730817
Ni 2.0537476922031095 3.8734983966690706 6.052153772730205 -0.8925258094302498 0.2643310022467447 0.10439810120211698
Ni 3.0326680341521177 1.336309311850123 9.03938822705426 -0.20241009637223203 -0.4615891221043921 0.90127167394368
Ni 4.271290465497698 1.3170492211023919 12.042198436673184 0.3435469477562793 0.32510211078753043 0.40128775411117334
Ni 0.6441797773984719 0.7757245110107606 10.160617782322863 0.6032576776221933 -0.7406368617360212 -1.6147096066674063
Ni 6.585311679750887 5.7225420504386095 1.4255914484738956 0.08957054927098121 1.365099969791236 0.3041270511977601
Ni 5.0034081076219366 3.8263973576225765 1.3240000904286644 -1.0119018720984378 -0.9708403261714376 -0.22873022232399964
Ni 7.931681953402111 1.4948209828337609 10.714650779918566 -1.7433660661962553 0.169240808709115 -0.37338280017078923
Ni 1.2911192934809328 6.057570204865583 7.581206381833596 1.0004272957999352 2.0456630061638124 -0.420641733157753
Ni 3.181830692214435 5.36436618967037 3.2828084627382763 -0.8974862387593189 -0.4230099762796134 -0.07991477134877205
Ni 5.461069456591005 6.579419365995865 8.938368301662537 -0.1300775082460921 -0.7473081031086097 1.070152271099899
Ni 5.161947881850829 2.2499364473245755 8.49122318706769 -0.6085610921129777 1.6712396805436507 -0.4380403882501746
Ni 6.948471182677586 5.176983118061971 6.543707635476167 0.0077127952632254256 0.4511630416750617 0.25447802071206493
Ni 8.949815690229524 6.807608349713757 5.8492221122973485 -0.16368825432200196 0.5913249307403493 0.3857719178637614
Ni 7.024621609568786 6.2142832681529345 12.658697454270845 1.0461404815663338 1.0618051846867842 0.7480850904839503
Ni 0.9986769233629016 3.0575768771959977 10.261610541244172 0.4409930431205954 1.0740953149080468 -2.706568930427094
Ni 0.9840445003337401 7.488859117927402 13.640887140417789 0.031579574578494 -2.2309996919935258 -0.1488797285542597
Ni 1.826411173591271 1.2044957238582332 3.868801407612207 1.0424010691285597 -0.581558852492521 2.8245493982993355
P 3.2774847713122375 1.7882375987872805 5.889421931084186 -1.8615470801150777 0.37803546845145214 -0.3372965959711933
P 7.651801733912828 1.5123199368788784 4.541788884946196 -0.05717953453478539 -1.3967199106893624 1.0194316048165797
P 3.760026860079933 1.6750751978959415 0.3524446722860116 1.3751059319640124 1.1556640769204742 0.7518995791340342
P 5.026190471774894 8.517606513712588 7.9567818985137215 1.7718001531672323 0.878479615749829 0.4885589658250166
P 5.283644301551109 4.358110757837179 3.313424138118498 0.8640251308873959 -0.060282084719509084 0.8068322266161716
P 0.812180977529703 6.734989563976202 3.948721416466873 -0.6783498307713414 0.2176407972790574 0.06947377852110616
P 5.128102206816028 4.174409211357116 7.327737592234466 -0.43427372211889076 0.07814225282938154 -0.2463065406448661
P 5.643009866368455 3.0359092751048 10.425150819578677 0.3145852704166066 -2.2326418555826386 -0.31867332444305113
Ni 1.1597085186710239 -0.040421834424348276 5.890518894423954 -0.39679577977809083 0.3064726686118013 0.06755676400405139
Ni 1.3312881986979908 4.969290767883009 11.722342287584258 -0.6085520932519132 0.8581501601638576 -0.00867824450028828
Ni 2.9549063545329948 3.9325245794518793 8.507415340208475 0.7117970546861935 -2.659044402483569 -3.0582994424354295
Ni 9.023418089550985 4.402944801766479 5.48174969799893 0.7147504808875627 2.393726867953839 -0.1882255773417339
Ni 2.6002996059120727 5.602709812673543 9.612040561405893 0.060808389536624305 1.9111739991135857 2.5061866631181675
Ni 5.105572771870358 0.3300772993879777 10.090953584436393 -0.31270450845412595 -0.623761711112816 -2.892268141802548
Ni 7.325775985715703 3.578760928188591 4.183707638436979 -1.178749755095344 0.7512200365685062 0.7189604052038521
Ni -0.08425352927290576 5.270463879526761 0.3053539377627772 -1.2130004487480979 0.8532236693965176 -1.292271158754968
Ni 2.0130635608230527 7.33560275380635 2.203904268372593 0.0006890556472246198 -0.04228384836987557 -0.40744297507929184
Ni 0.16906256602700823 2.2913512630812485 5.489838748758008 0.39404701338836007 -1.9740788661679225 -1.3300764025281995
Ni 8.89961392645662 7.150093231881584 1.9148155521882622 0.14923248390798813 1.15293613646635 -1.3924595927511116
Ni 2.923018538917588 6.518819401478807 12.126586861523313 1.358229467923648 -0.13807980972527834 0.6638979170120696
Ni 5.12686566402483 7.909461654154241 12.973205555787844 -0.2397599977756 0.9313016446468672 0.26189025401573607
Ni 2.5885618171441216 8.014464746173365 4.522333008256525 -0.34586145482206887 -1.1983988967848394 0.09610012285938288
Ni 8.560332814247802 3.638255498392307 11.64700217093123 -0.8185096629541001 1.255203050258077 1.0188209678157745
Ni 1.2027626904008744 7.596475811755192 9.749586274654853 -0.1433341161456822 -0.8349660087379103 0.5516332685776822
Ni 5.201648399646979 6.431924167151981 4.068305408898858 -0.4819900543582474 -1.4833727720929164 -1.0619561084423519
Ni 1.4266237743495767 2.7753734560990124 12.380892191056184 0.5736056590837153 0.3712927504109799 3.2914545333000023
Ni 7.658640190258083 6.587494365132318 10.224673509231378 -0.26741298360617816 -0.6698844736128076 -0.7909556645952314
Ni 8.006586469753696 6.1793603020500445 3.7049454361560104 -1.65633808084147 -1.0726256723410559 1.3530078145133924
Ni 7.870548027225217 2.826540097958987 6.98654826967287 -2.214987375725669 -0.24353720542984514 -1.1116285359668143
Ni 6.7234297624281965 0.745262466704597 7.956575808048521 0.6030008244163809 -0.9138813922878906 0.049763958797004626
Ni 8.209566842478324 9.20452476971922 6.0054686617134765 -1.0999140757433639 0.8479845324847654 -0.2759035375756926
Ni 6.392345430085267 1.9087349466900363 0.400800989620539 0.3726767752427001 1.8402781434339726 -1.3801026138476555
P 0.8306644819335688 9.166903892071899 1.3767405140228897 -0.30505367677708756 0.08976775288345186 -0.13746325918720195
P 8.889918306843827 2.3224521878295303 8.667761216332387 -0.22964244972562384 -1.7905440094336387 2.258562946323775
P 6.642923332522553 7.416793029346519 5.117142877941625 2.208969194556047 0.6199271678580743 1.8756403249833504
P 8.543892415773938 5.775544770988543 8.146811359050249 -1.893056206466953 1.28519676840669 0.1937393080711115
P 3.7661627352938254 5.5875527957329645 0.34926244814836355 -0.6165209703900028 2.7233674900416713 1.8019118849509483
P 2.227566264102016 1.2137978980374633 11.316301916273446 2.4320548169997602 -0.37944006210846265 -0.708642825327928
P 1.4564787885582435 3.4223382651022023 3.743733535256232 0.5015633485044846 -0.6459433894161778 0.7777355663605315
P 5.030312281078883 6.940461757780062 11.102469943781221 -0.4828269484372459 -0.3914759102270742 -0.791230772633489
