# total energy = -340889.11530282046 ev
CRYSTAL
PRIMVEC
9.08033778433844 0.00000000000000 0.00000000000000

0.00000000000000 9.08033778433844 0.00000000000000

0.00000000000000 0.00000000000000 13.28999220198705

PRIMCOORD
 96 1
Ni 6.725597500319884 2.26493594548945 11.085874102619677 0.4288024145916744 -1.0635990433624134 2.6061799503843694
Ni 4.525195516914815 0.9028235009137652 5.873778257887611 -0.12212225795475742 -0.43866130966362515 -0.02736476516619803
Ni 2.965320575219647 2.0866253484089663 4.278367413474387 -0.01587810468283717 -0.6118184227080108 1.5895315647398818
Ni 3.5994005769577027 4.535247451068102 4.41387238924321 -0.1858100259217058 0.5482273282199267 0.11942362807667174
Ni 4.039388354191233 2.9391238001227795 2.246752568667447 -0.3467502851849254 -0.10833214614920052 -0.13108923734005812
Ni 5.297977681427448 5.085152719652616 2.5325943442755325 -0.3077692759360377 -0.6820972136289155 0.8119317526262663
Ni 5.437342708875188 4.238556487631338 11.503763969324357 -0.381446293905214 0.9110138409321085 -0.6994107652066986
Ni 5.698357024355073 7.68489888745462 12.207934191961966 -0.12118251974930742 0.6547640730316013 0.612122841322307
Ni 1.6003278474340052 6.6135098081896455 0.34612341541244473 0.6497578780662615 0.727981891976172 0.3508666213461441
Ni 2.852806107203949 1.5106595097974123 0.09979291449378815 -0.5300863956448418 0.5327012075598696 0.34256452923835196
Ni 7.749587215284805 8.952532231327396 6.949031020966699 0.7539261226457596 1.5875106776551111 0.40023257337378165
Ni -0.32289772690541907 2.1769474703807328 1.1954737139456393 0.7535096039336313 0.272305278701473 0.6968288634121353
Ni 7.095966326195464 0.6456710531803955 4.53083713090708 -0.578653763030584 0.8185561999213193 1.0632529728769045
Ni 0.9067507470937981 7.762608419960337 2.65171203407648 0.7672390377045819 -0.6139737784881169 -0.7435684335605194
Ni 7.891240487905651 3.9072694364583294 3.7558448121280414 -1.2052205476923632 0.2961378623446964 -0.3872176491713525
Ni 7.8178077945925235 3.82143300145289 12.851821866761417 -0.4345238904564839 0.2094304935541232 -0.6515617640442198
Ni 8.290902484132184 6.989653729025922 9.271430977382673 0.47052010604543476 0.5994272481325096 0.10017814958349844
Ni 7.075317637609579 0.7591207960089112 0.244113082381861 -0.3983965486063074 -0.6847498207604142 -0.952118324281902
Ni 1.8643386744501007 6.3593239068771235 9.145628342754579 0.9407296228289862 0.5398262486404252 -0.4972827188512597
Ni 0.3896754405067628 4.6531102381590355 1.28346763725715 -0.6240532742113059 1.0760634943780114 1.321691006677982
Ni 6.5181844199862065 2.2299221622057335 6.806456094040018 0.43746986045868536 -0.8275776866936392 1.6998113215337565
Ni 3.595777522100285 4.03861652546221 -0.20081803085261787 -1.308605120028301 0.33397755890028935 0.6680595045889269
Ni 6.496409769489746 6.153636090761264 4.383079147056555 -1.2626672198456061 -1.4286098174194235 2.3524431787137035
Ni 5.404798777524348 2.6165901947707 9.355636583685373 -1.466868603790306 0.9813844202358711 -0.9768595357823242
P 0.010646696291534722 5.685862479282876 12.49719108268753 1.216749374267569 -1.8994358847410515 -0.29475409462329233
P 4.170181542577814 5.965809299468816 12.317364069162966 0.42922741794423497 0.41026681768133216 0.9940959542652685
P 2.500252904461836 8.720447872678921 1.2251128451739537 -0.08539739172989809 -1.428014864147902 -1.2138404281508899
P 6.233770073509917 8.005679987574915 5.809215238721667 0.5105210719184047 0.38094261479591807 -2.3450957372096966
P 5.124488743818866 1.0365750634170043 12.536223823564965 -0.5776502614667341 -0.5660823541234767 -1.1221530896472223
P 3.941838283180609 6.333426782933877 7.919440385562785 -0.9819282085544829 0.32034248461535797 1.272552854390434
P 4.897271446332237 1.288999379159754 3.70470525661052 1.2740852318745606 0.22779048411854963 -1.087779497263359
P 0.6700345080373821 5.841998890995405 3.572057863206684 -1.5210952263443547 -1.2264064377413588 -0.3524815312417478
Ni 0.48090105610838635 0.12517699934068394 4.768568551750612 1.3988755235797843 0.3381548302064305 0.1495235327858457
Ni 2.1197867427430257 7.031949943376428 4.745949429821219 -0.20489043959192457 -0.373428308696744 -1.0928242587761179
Ni 5.6947793711875985 5.663788177632794 9.05130905600027 1.2616295226097112 0.07964609106841766 0.2419798882450542
Ni 8.938021851221746 2.4472055699329274 10.030355638091033 -0.21467143023808835 -0.0574664696475849 -0.767491262924704
Ni 2.290097562055627 5.55228162713382 6.550105440151034 0.6148235280829217 -0.08840403976670581 1.3621118336971896
Ni 0.535156075589768 0.09081700039214032 8.895749245750011 0.15249907047440187 0.1266923938239431 1.0310905292117467
Ni 1.6050768642019988 1.152957755415811 11.230614690156619 -0.2654388905989428 -0.3233555604100689 0.021613978725349873
Ni 4.187915442669386 7.047622606744606 1.196070292151485 0.44448485832393775 1.233036798573683 -0.5077306536574611
Ni 5.665577004216532 8.116369307654923 7.957422531334949 -1.648087925017536 0.585305978239779 1.5956515615946907
Ni 5.611857724676472 3.0162249499832665 4.860097450641052 -1.0354963715889265 0.6707208534711739 -1.3534973525553013
Ni 0.6943698138466043 7.8156375938132685 7.012796786457252 1.5055421091011039 -0.9542999053142533 -0.45168960360249305
Ni 5.050465828536486 5.146826375270615 6.570133941652305 0.027843761685145598 -0.9769204709272467 -1.025758575475872
Ni 0.9005407039434522 7.398577670000741 11.287030830079267 -0.23411205546120328 -0.40233984952477164 -0.09324362724719425
Ni 4.758632845923579 0.05785083332483387 10.349847330216958 -0.0020733375892609453 1.600561340191482 -0.3972683485391351
Ni 8.387735208441716 7.325508190207154 5.09731038418544 -0.38309668502444344 -0.18764065137254135 -1.093668351943968
Ni 7.0769339377715355 6.58956495691393 7.1154881448369744 1.7940486801527875 -2.8658163753689223 -0.30163385246226115
Ni 2.9993536820006046 5.2391643322758314 1.9321261216357675 -1.867367543451597 -1.0766617900836426 0.9311903158799834
Ni 2.28341443329608 5.400812509147389 11.432835633228462 0.2171494594649357 -0.34162607658448263 0.6010820101271132
Ni 1.0896859603118332 3.4738467435904954 3.804087739827227 1.2070704564169084 1.02161524273146 -0.7990476975747464
Ni 1.6661966192026982 1.0689101469941091 2.5634266319155374 -1.1127752479767479 1.7333670460020145 -0.677239371315982
Ni 1.249790479725343 3.7116698758477114 8.08406328115938 0.6288620084538589 0.10227077044646903 0.452841200708433
Ni 3.6658958920476037 3.1556535397969263 7.491435930372699 0.8154413084414214 -0.406327630527926 -1.244513688865031
Ni 4.143930285453015 7.5247217253372005 5.957824050241716 0.14120524272813748 -1.1568858651427172 -0.5842240580295098
Ni 0.6356109467229188 9.098680271252556 -0.08875576366874724 0.3852484412601236 0.29479806048735036 0.9971563383581471
P 0.26770289244222606 5.791058194879831 7.861322590301089 0.04095818757991655 -0.3367445801224652 -0.8366467388744431
P 8.731435081645024 1.8541686959029628 7.842610737808155 -0.4038704272366851 -0.7311325217900118 -0.2735116403047483
P 1.8781952702205758 3.3321299086037297 10.40266220809336 1.188170534188612 -0.584085989789749 -0.0650980180509137
P 4.077798183882655 6.589328868126228 3.557492093039306 -0.0061770753449893615 -0.0013655128889589385 0.28644917430202277
P 7.025748072530272 4.0776165771228845 9.934548083940403 0.405457826328463 0.7543632101831783 0.8289712246070563
P 6.519827961162128 7.842715161695023 10.108102399982503 -0.49595937205414586 -0.3260400492207675 0.07928716506710215
P 2.4293082237575625 8.917218796890058 5.687465158937849 0.1319623839736308 0.8812494651854822 0.6131078309433957
P 6.907095296034337 4.0004246238825125 1.6006865207845515 1.6193823295527272 -0.5239913384906975 0.45972121565771795
Ni 5.519419883953382 2.9312148257347825 0.25374459688627965 0.6576177404303126 -0.5567140255346992 0.10922843271122479
Ni 1.6820508893306467 1.5396984306846853 6.927355346154313 -0.3994062208177444 -0.5243932019148067 -1.596161925572206
Ni 7.106236188460475 0.8179141684169531 9.25277179085007 -0.20160971195812374 -0.5795078835007632 -1.2741873046700636
Ni 2.5559153763314377 1.5769732181275424 8.972060406205498 0.9639669960903722 0.9413819117010046 2.576510448344395
Ni 6.549738594496299 1.959309929471987 2.3610068294417457 0.18242079773449874 0.30498631387426184 1.0049547513566435
Ni 4.016133608602645 6.86669687232343 10.34560772041012 0.8115851679201248 -0.6029841122458325 -0.5897236476915005
Ni 8.170242952940786 7.300519100062759 13.431796674594901 0.2524499345384426 0.6921877650956982 0.054563951288809254
Ni 7.968831976017518 3.9658466968222443 7.987777193196758 -0.5581569286288129 0.4861354439851886 -0.50738072651721
Ni 3.093416903223639 8.216779685131929 12.292285991706283 0.5459791556156984 0.05780482682361012 0.8338516926278092
Ni 0.26071103219106895 4.801219631089717 10.406808290418917 -1.3471498130707185 0.538192312581428 -0.5914876815704588
Ni 8.76082813571385 2.3845875591641224 5.585066187441357 -0.16830158472429724 0.7807373293013328 1.0127333668607976
Ni 3.823993656765651 2.290987435178502 11.298553778986694 0.0028888915120208313 0.6401095563432202 -0.7219364571130406
Ni 1.1546739392956404 3.338803957025289 12.696235723530991 0.08167314880077547 -0.11216154719761974 -1.539439276069181
Ni 3.16395296871843 8.678796362325599 7.966021611410072 -0.026687793703831456 -1.3050410568261268 -0.28959363346827544
Ni 5.916484903515199 8.13363103017109 3.328478704698548 -1.3012126842189717 0.042481309092662324 -0.8928446262222494
Ni 3.4938325675032185 8.793471950782566 3.2003360669708147 -0.7042418680467549 -1.5812230448741864 1.779878816410309
Ni 3.596903484010861 4.398869854818583 9.467219409023452 -0.305740418431467 0.4129492496095017 0.38625914191282507
Ni 7.310098856640642 5.984106180515676 11.318581372454165 -0.5864053819515449 -0.3451963104342442 -0.3886361267854339
Ni 8.043663041380876 8.90881948425068 2.3789223362930874 -0.27192449832328647 0.32217233873524515 -0.5122295699690791
Ni 4.649387299583745 0.6160664272364376 1.3624239001686913 1.0290945818276407 -0.6880722002654279 -0.1858352227326864
Ni 6.08471632542843 5.59920881385847 0.37785193241191645 -0.09185497442978374 0.619020853993721 -1.4471047908998176
Ni 8.204003649582088 8.804895015972118 11.232103865586735 -0.8376245294066801 0.6190661054093596 -0.07517622822252215
Ni -0.015673571401977043 5.1490601384157895 5.7403063697944186 -0.07122495688425798 -0.7116160490236391 -0.10317425609734489
Ni 7.6274839103532335 6.044063652253845 2.3891286361921793 1.052205199703175 0.8871324063288205 -0.5544632818273096
P 8.83314394745439 1.6722350439650613 3.510365138878909 -1.2122764260978798 0.6000777372323148 -1.0270369279676637
P 1.9073703961776767 3.168547619740618 1.4486489736400392 1.4507287608056498 -0.614808101463954 0.41450708101492484
P 4.876804364506122 1.1182073019337613 8.017281027389043 -0.4382177943683034 0.3272770069516622 0.44414007339000927
P 8.597445614286487 1.728551300169836 12.101123084236853 0.6440127480523683 -0.3383816015052559 1.3170090278212803
P 6.400684846414813 7.8152652999557395 1.1105371404348618 -0.7133410021345457 -0.07935889884530203 1.41469860665497
P 2.1351688352955716 3.4899461828441334 5.888888848334301 -0.051670688901414234 -0.10352829700265395 -0.7663898023304091
P 6.998970155802139 4.241117142944099 5.9735857009221816 0.3538128484586616 0.7533442820003606 -0.7753578101569742
P 2.5061006421264405 8.383776181078723 10.183736167224046 -1.0244593970484743 1.5613887837570788 -1.1160567469414973
