# total energy = -340876.9154569665 ev
CRYSTAL
PRIMVEC
9.20346854626696 0.00000000000000 0.00000000000000
0.00000000000000 9.20346854626696 0.00000000000000
0.00000000000000 0.00000000000000 13.47020651831972
PRIMCOORD
 96 1
Ni 2.6923090556923963 0.45312172885752083 11.003744282273038 -0.2953464767916526 0.5950568869789559 0.04536145885393478
Ni 0.15374854350932318 1.1231176715171485 6.01569994841058 -0.2492517393161191 -0.48913463582282857 0.14961249295522622
Ni 7.420977558086348 8.16482029152806 10.336241559237887 0.051195291926892476 -0.37418498435711045 1.4218100208887707
Ni 6.23013156166512 4.423435468633412 0.5413342136663449 0.501716329142581 -0.5594831036394042 1.242224635720538
Ni 4.151472973604799 5.442213417438568 10.78395072825357 1.1997335564358629 0.3478183214381236 0.6364948424087683
Ni 9.190187923799899 3.8631098976577083 6.022017209208808 -0.2012772683193695 -0.9083560915942872 -0.7667183893144214
Ni 5.840088565410885 4.042485499285718 9.443543766503662 -0.2519899641828886 -1.6680751667727403 -0.07127509339590306
Ni 7.899171375910263 7.344505938079825 8.175997904056393 0.7456919076614255 -1.4233889353401163 -0.3897995509659158
Ni 4.878307697205128 6.2472039957862044 13.16828503691067 0.6353411884202994 0.018175642467762244 -0.6324859783596913
Ni 0.34649862560351113 2.5970899702925303 10.141974745530137 1.2870117101282414 1.6888669067071107 -0.795917636586197
Ni 8.76420538294036 1.495802926125902 3.341742608964784 -1.068622978939566 0.47328121373033977 0.767429299338517
Ni 8.331228205998867 2.84013516720338 13.332662666224003 0.6665178711334198 1.0186469041317552 -0.0587497072353827
Ni 2.2031447033820477 2.7963726743485227 0.6585109342824293 1.6126264988861323 2.0192948005829288 -1.0303215122562062
Ni 0.6922508499093295 1.3815602712768267 1.2150014199221457 -1.6413367223366315 -1.9713390986392563 0.40750468155516273
Ni 1.8449088943636467 2.4172541952380766 4.911614129464317 -0.02789004154204874 -0.4394321263913787 -1.1427059740979093
Ni 1.7361699136948459 8.871784726574521 13.298973369674014 -0.6918249824396409 0.822422624855261 -1.2511756742662388
Ni 3.3722060897954003 4.556554437435235 4.011602340290184 -0.1154967822184398 0.36246743880986604 -1.6609323850803717
Ni 0.8708920147487336 8.346064197267433 10.083769249512898 0.259622798137798 1.3218108200852978 -0.9500961516455507
Ni 4.091834497537611 5.2484619979684375 8.211747857210002 0.8305856202820276 -0.2700617340829349 0.07004250654038259
Ni 4.191305585397822 8.994255282288421 13.020220555564787 -0.31867126756052216 -0.6598306889212314 -1.2064330799432255
Ni 5.4746004231917205 8.791521277534097 8.909530912052047 0.2401263799760832 -1.8511256276714378 0.7373257950849172
Ni 7.132356785020449 2.379013783500551 6.7214440035301095 0.5249261916001412 0.5517556530881594 0.3282393708649315
Ni 7.39731544049858 2.9705299093206525 11.066461318563139 -0.9836603607542416 0.6738470578049814 -0.5078903191637769
Ni 5.665075407865568 0.6603691145784117 3.664097775576466 0.14366681689475258 0.6882730034223243 -1.2408645221482177
P 7.510877038676517 0.6538659437159001 4.956295128478357 -0.6956268726842342 -0.3748287885886964 0.1958735808052949
P 2.3703993369575125 5.479809586379071 9.660616775225991 -2.114751119210726 -0.0037774647645612363 -0.6033222123115416
P 2.1777247233052615 5.029281394952991 13.271736624909625 1.4956024813898887 0.1811732984806428 -0.5773355584397929
P 0.999349426740675 2.034399107904903 12.278753237350381 1.3374315573416902 0.3837908828779907 0.4129734179792178
P 4.790902356586286 6.764153619585263 2.081079100283418 -0.8876139739509294 0.631135634979384 -1.0095968781143452
P 5.866732606802013 6.553835956763136 7.524498172099269 -0.6791841537471787 0.7011758275269215 -1.5486497389238554
P 1.1804644839206437 2.8671197369300776 2.7441908484834383 -0.3378234150089408 0.5640457833094222 0.8268078984071502
P -0.22820644460172543 8.057986428844739 11.910949502449348 0.685644821770858 -1.8274719928082397 0.8559719215656161
Ni 8.964491265066 7.982425952222576 4.314264845290606 -0.6402519954583554 0.23567477196263284 0.8424139803755234
Ni 7.63862118185747 5.735408314363323 12.283858401343354 0.0026040132817503545 0.015230443796509254 -0.3748686406876963
Ni -0.06182429984279898 6.299608545589688 6.325043251216121 -0.5938037312981451 0.004807705801288494 -0.6646962445436487
Ni 8.031416015201842 8.952075786020533 1.6838435933738585 0.1857588609687962 -0.03121293526769463 -0.00844273145071449
Ni 8.187212330458841 3.9398300113145113 2.8537572209729865 1.2963610125536253 0.724764413480139 -1.3847141444777376
Ni 8.844542459729015 6.334047924824783 2.531765591368196 0.06190522214522886 1.2656756676546268 0.3948504831262619
Ni 1.9829333118913663 7.070803987499252 3.1550189580633115 0.4400250227803712 -0.526671456426022 0.20469117909692489
Ni 4.577170206939942 2.8329380548137904 5.122248391603838 -0.19235656879097196 -0.22853224738058062 -1.134389483812414
Ni 2.672990975250262 3.245879280767896 9.375600080436005 -0.39005434728919924 0.1832443220770586 -2.1354996646119866
Ni 5.229861788071556 2.51191186905768 13.149521005273973 -0.04328323616866739 -0.6866331538260562 -0.6858654224220961
Ni 8.599417278930636 0.9447912653014323 11.305625412795358 -0.7116834119264647 -1.6538148001989843 0.9913546440747054
Ni 2.732565027037748 4.107590835659065 6.203838172424941 0.1396324989243789 0.9392828630801308 1.3932707757984972
Ni 2.708185038904726 3.536156678168995 11.615022095718366 -0.0034787025772198155 -0.16854069731829682 1.8097833172792253
Ni 4.613293820915824 5.726462542953245 5.781183605785449 3.2511779451681426 -1.024458882827842 2.333145506826356
Ni 5.724207693163668 5.691406531326714 3.788428352280054 0.4667529256935188 -1.7286449579359968 -0.7149481987206655
Ni 5.514561883544149 0.8351770347755344 5.938084337265916 -1.0376342438675354 -0.46851336002805116 1.1614647427626512
Ni 0.4634167287539339 4.562426250356665 8.236209756212931 0.715775065497335 -0.1227660621863434 0.9934297814361795
Ni 3.8487708936897023 4.690188800474675 1.5307945134727308 0.4149796497759692 0.10138528251772215 0.07045953947314317
Ni 7.361467930578564 4.646380290277173 7.283919504754162 -0.980670424887982 1.5017741574182393 0.7726116148704049
Ni 6.686485548669985 8.06649043376543 12.918412707045091 0.8736623968668437 -0.027222326051062794 -0.8553021491921011
Ni 5.379629831442135 1.818402905000452 8.359556482130781 0.02986619143181308 1.1420945657661556 -0.2602010392387712
Ni 1.4742484028312484 0.22695937461606122 3.6976931967474624 0.5733125533233288 1.1388611464305225 -0.4932273178349635
Ni 3.1696377474745954 7.5623336312215255 9.244171788802939 0.06437630939354075 0.03246737650008602 1.0428024183320364
Ni 4.426573851401763 2.3117088181487997 10.676202961145329 0.7657269719354296 0.04766619572771146 -0.33785478246750844
P 5.238439420740479 3.7252695495005668 6.896489373215278 0.6383239251977071 -0.5096854633909867 1.6759234591725656
P 0.9425732293859707 8.339934687227194 1.7513961320290368 -0.49211814393118475 -0.42629276079594325 0.2488313639492489
P 8.381341092138658 4.9533343726526144 0.859162194108667 -0.18911106527048074 -0.5196235484403052 -0.5899640458370807
P 0.4734006514140707 8.221283570952782 7.306226871774478 -0.13431751446936865 0.5918887736636194 0.6740077517525617
P 7.293242618373924 0.9229330275453255 9.470740936353375 -0.2421382681997894 1.71858988769284 0.5473567526895154
P 7.927453634699533 4.779066696058137 9.649786133461198 0.3120920716811077 -1.3216627245432078 -0.17990008819517403
P 1.4271174404948177 2.7275675436265625 7.214467370194621 -2.1919379501053737 0.25810713282422 1.1289685699071588
P 3.8807069294849406 1.4376462084918646 0.9077877997341889 0.1851536232846295 -0.46061184579278736 0.1831427635021878
Ni 0.5473689279807361 6.452699041099195 0.032868347157214435 -0.5396987219236253 1.0438090052196798 -0.4558234232652085
Ni 1.3796183394172314 4.830642933694021 1.8322440013210453 -0.28431001647183296 0.09315106753338796 0.6023130543207368
Ni 0.9592407108917851 5.228766575316619 4.2934263518475 0.156366266739292 -0.1545631520922822 0.4068012277302349
Ni 0.5108044678623207 1.0051107980397582 8.527071573865614 -0.08477904141960883 -0.6408232945807931 -0.815384487061557
Ni 3.1376372873996554 1.6242833467891657 6.994149218469005 1.1104843950600425 -0.24701796488959393 -0.08719382150868854
Ni 2.931010215457611 7.066874106437417 0.6867315298325559 -0.08420105742895176 -1.0645786336668634 1.0383664940478698
Ni 5.946333406108358 0.8178100896615245 11.579959641663866 0.6485759419430185 -0.8140696249048754 -0.9100933860003682
Ni 3.2288252535838686 9.044837545323185 2.2478680383513217 0.77265378096225 -0.018416297723658607 -1.1664886783398039
Ni 6.287616426096548 6.250489634051018 9.452636793410202 -0.701546837713095 1.013353774053616 2.5966997788080763
Ni 1.8785199614311425 8.50469518083133 5.756142808612053 0.7366688782272087 -0.9718044898569198 -0.0779473632097561
Ni 6.70547230424508 7.71337175324909 3.4251637680574696 0.8646149419525948 0.713469814402926 -0.12601130859651846
Ni 7.367873544674669 0.22301200696402157 7.50701342258809 0.6894073741370836 0.15201236064597046 -1.2214596352590448
Ni 6.848080049100185 6.520823115150018 1.3321146366053807 -0.29781242183364187 0.8612082302638909 -0.3409344498340967
Ni 2.173619976341378 6.214734158816291 7.288431965373874 -0.5039650159674417 1.6334971716875546 -0.2256842364088242
Ni 3.320639055628046 2.268461719531559 2.9104533481514894 0.7862783137242201 -0.0010955470570239198 -0.21075795411629508
Ni 3.7765420726749968 8.58028326785908 7.1739086047346685 0.8079815097292665 -0.9255606283980318 -0.2733162364644906
Ni 7.065824911025124 3.1101189164982825 4.532212183523181 -1.4063646328679777 -0.43704074334106674 0.3879843521340479
Ni 2.287301219610191 7.136636397886382 11.66243744523234 0.4560674209552145 -0.8152194222386024 -0.11616912569511605
Ni 6.1579763683986455 7.76465347989205 5.813336843437969 0.7597674119178851 -0.19789446789006562 -0.0755022441033732
Ni 5.636553858894548 8.839508162443714 1.4157318295777312 -0.5232968835268342 0.14213932450663264 0.9857511818449991
Ni 6.7957951443875775 2.017501539685866 1.7775827610342791 -0.5882118390326644 0.47847278523360814 0.3628595320419622
Ni 4.283864868392839 7.7737096929244744 4.043647897360916 -0.026888853971044017 -0.0009885891655144266 0.806346545229005
Ni 0.5844579858052982 4.408581070427788 11.660982376857923 -1.0867263734084962 0.2768263065002781 1.072303513114947
Ni 0.19965268349085324 6.2165748525220685 10.167567750815266 0.09015290413701248 -0.5224098529361907 0.26197021532405207
P 5.021486057109023 7.609206896439146 11.389261933051618 0.09538021397422282 0.169404845090805 -0.742211919532625
P 2.913357962819206 6.411467502089782 5.178392310670607 -4.418241779285126 0.9585733358786267 -1.0336042967725358
P 7.809032605138343 5.656175653798134 4.552902501122972 1.1752340286326017 0.20227614189752907 -0.18149262949327452
P 5.86170751298524 4.321617496298334 11.921388996801667 -1.3090262667261199 0.07377343433772454 -0.8240295643310647
P 3.5338742179738305 0.712672426228077 9.030035606888175 -0.06605883930228625 -0.06245543822174405 -0.10687818731149334
P 5.422140652577065 3.6024400585140395 2.9828423095185976 -0.08188500770126543 -0.7034242572414661 -0.3960612156049115
P 7.265604602381676 1.0113691566394014 -0.12723611171815813 -0.8994868141291154 -0.8425523057256006 0.7908237670030575
P 3.599614593675671 0.6704643992077479 4.557832799213897 -0.4788525371705301 0.3887708525910853 0.7727882496575852
