# total energy = -381169.4349724379 ev
CRYSTAL
PRIMVEC
9.22923586833965 0.00000000000000 0.00000000000000
0.00000000000000 9.22923586833965 0.00000000000000
0.00000000000000 0.00000000000000 13.50791959877022
PRIMCOORD
 96 1
Ni 0.14879373883716768 0.7972453805033817 7.880358030208457 -0.13435788078900088 -1.3111715952038967 -0.8513969006004241
Ni 1.325567443739355 4.6289231927664956 5.638570204928392 1.4125445364264446 0.8133610288736252 -1.250172429812705
Ni 9.067982547587437 7.3173718804014305 3.669777635730706 -0.14228819137967108 0.5115058044291771 0.5294348781037721
Ni 7.885569779639132 7.828662311975693 5.77246057386888 -0.4849434805596165 1.3483078379345619 -0.819385380690834
Ni 3.1549127211486514 9.086985544006351 5.8009622997265256 1.8329188748554237 0.8900950885015704 -0.6280084022043119
Ni 5.3274009839174505 8.024894322591985 6.738439457057445 -0.13636668368891353 -1.727522928516412 -1.9357740570504531
Ni 0.9517649372027611 3.690346833457191 12.26628467478963 -0.37137862525656684 -1.7687019738578829 0.7318514022339073
Ni 2.901994744527032 2.9936502848068924 0.28107452906203784 -0.8625423756942822 -1.0402426280246602 -2.5113985463364106
Ni 8.21047579514736 3.465919507610311 5.0529345876557725 -0.19726326206396994 -1.9560407777192894 -0.04035552099891115
Ni 3.8757621797689823 7.5773317639038815 13.426601729417621 -1.4628412277984677 0.502607987718915 0.7460017255923603
Ni 5.2635992771452536 4.418496617559485 3.508087885773505 0.7597064767729625 0.2862092903770748 0.23096708207431835
Ni 3.607449837908535 0.8930282350127411 1.0655244971151125 0.1599421570160084 -0.3657365964794411 0.4820000816605764
Ni 7.163935835979652 8.81925464399845 3.020208333614599 -1.1266882585134144 -2.598285121017325 -0.39727734740019965
Ni 2.0227531418846523 8.619644733095939 7.597677614125102 -0.7608431614805671 -1.4508213205194562 0.9657827091428721
Ni 5.1250961361745695 0.2413657422274693 9.628039337965925 -0.5009509117314663 -0.735787761173836 0.4967019066471252
Ni 8.061128302164912 6.703784599722146 11.717093463665144 0.7494855703759027 -0.03679505734116244 1.3563006263320514
Ni 3.190768302055635 4.318267117263514 9.219168504332222 0.3249385886264726 0.6613738650386352 -1.791766054766198
Ni 3.2468359092653976 3.41355282393818 6.361594994416105 1.1466585309877542 0.9423589309022932 -0.5265598705488221
Ni 5.606843784098057 3.3299082602933936 11.115491268536903 -0.05880241485018905 -0.5495581312162084 -1.6925173589755045
Ni 5.790293303194099 6.160736367915985 0.5231020074931186 0.3075067663032704 -0.4338464047734851 -0.8944222551220145
Ni 1.5294966369750613 0.48177164393645044 9.744991290525824 0.6109535036045541 0.3450381875898252 0.7145483921790855
Ni 4.85835276439242 8.136743430703115 2.0152737692290486 0.195055970000006 1.1699627529313334 1.9340866420457015
Ni 4.595799465642901 6.957708563041027 8.686119226542694 -0.4705977533609057 0.551682890868695 0.23539889259342686
Ni 3.8698370104144693 7.485888496046378 4.087064609449113 0.4635485598236081 -1.1277508954499738 -0.03445612479534066
P 0.6375371474627135 3.2051197636541837 6.947730836266628 -1.0059220003659193 -2.0095240943494104 0.6861384735778249
Ni 7.512237964126029 7.6005709795342 0.8400561134751026 1.4036240940083633 -1.4169496074726757 0.5071824944634749
P 3.760618234493427 2.9716200990604396 3.9470543342796875 -0.1924442434087718 -0.6755033624614817 1.6666806004180588
Ni 8.562377325238067 5.825539754541274 9.43987460232281 0.9263052198735401 1.0620766931806158 -0.3832851468861657
P 3.915171016441523 5.336971701395067 13.379635071585563 0.7004870289900129 -0.32826122524180246 -1.639264927409267
P 2.0517329421543895 8.58112190305585 1.1204181455368782 -0.5044602104363054 0.5717498368218992 -0.036533576149659665
P 1.8291976096372213 5.882844079342165 3.6333738382198932 0.37949045573042384 1.2543967523066977 0.14496882353562773
Ni 6.797581322697097 7.092150840279647 9.775721876818226 -1.5002890882322806 2.0998860291734354 1.0903786254491028
Ni 7.138306248288869 4.350523296226168 1.623058014438266 1.2977182979124682 0.021682884290072334 0.09820791323100506
Ni 4.239098732959754 1.1893900701788531 12.202473738781679 -1.2963137042554576 0.1744560343614673 -0.16638071355250056
Ni 6.008103267004864 4.9048404248888104 9.141997326645777 -1.1118823038488335 -0.28110925014634813 0.39733416878006406
Ni 3.442781813573294 3.8790939338764265 11.5785700183758 -1.9185762051149282 -1.5965545330249342 1.4633212527586799
Ni 7.603035185480701 5.398410723814061 4.026035365097628 0.46142251461954087 -0.795445839156101 -2.1160122453113366
Ni 4.051136117579667 6.048241213302027 2.0433832525671183 -2.6245227145576155 -1.5963251906229474 1.1004776615563179
Ni 7.748063396129955 3.93514308261468 8.193890858496177 0.8734461670909797 -0.4986202067157606 -2.128635847612618
Ni 8.779227448530344 1.9092058543946586 11.237237809071367 0.8182474104316488 -1.7779342910894282 0.46975751684779743
Ni 2.4877497269133717 6.353885813790209 11.770516894831186 -0.9881433362262594 0.6804311387804024 0.20983364252981282
Ni 6.826450372137777 9.192549542568536 7.951113043198239 1.3294487962465298 -0.3845827826516667 0.017802318288743534
Ni 0.5197960952457874 7.65126717153473 13.230723198530734 1.111401764667989 -0.9823717238498049 1.6675887140546246
Ni 9.024171365459909 9.057571969656143 1.890541570927942 2.003036686852854 -0.15591632368606695 -1.0128686068870814
Ni 2.297267530172254 8.901828616295692 12.119765019642418 0.31217203298942364 0.19906097739434106 -0.04012180772155026
Ni 2.758157105290135 3.7265900422658724 2.276570968992354 -0.6352136617034996 1.1646829925896327 1.8354709518533163
Ni 0.6411577766492798 7.768367714790281 10.900067062168727 -0.5429599091734003 0.5547273341219736 -1.7653402564745015
Ni 6.128406355067293 0.384647781471934 4.8659447337242305 -1.8460811232689949 -1.0934068707524651 1.4696973314883526
Ni 1.9513650033220984 6.816667382237802 9.112591135684172 0.8602432952474603 0.62394143122379 1.1146251567012933
Ni 0.30989650940037 2.635085246501298 9.15564090586194 1.0983392750570762 1.2048253691364734 -0.32575748498334217
Ni 8.29150848507357 0.9126043669720213 4.495840381954543 1.593303115967172 0.5027933642568438 0.16571171250993397
Ni 1.989703248647095 8.611375337859734 3.875165048215654 -2.36798729709589 0.20206454010735522 -1.7133402092581265
Ni 1.7854787198672384 1.6300953067012196 5.02828237603141 -0.6213723849450331 1.3068457141350331 -0.04948525121432123
Ni 4.8658284453537215 3.813566360018103 1.1462600056500198 0.8287994749158822 0.297152676762456 0.39613526337595645
Ni 6.008324768662977 9.14587729735705 0.4614294854095306 -0.5290535835049535 1.5715526116639578 -1.169588143200734
Ni 8.078322368375904 3.9739151020201473 10.539054430540986 -0.9322113009453299 -0.2559695176559269 1.0606479311538894
P 6.16507410872069 6.367526624235646 2.62404800346226 0.65821629324626 -0.2283674396679422 -1.3490033213396897
Ni 7.779110545208743 1.8964418213459178 6.732508750161479 -1.1014587945226642 0.598232199383144 0.0923735659374151
P 4.661862335174996 0.6561119073426096 7.191494333943167 0.1942689553223364 2.2703224008525478 1.019098389846877
Ni 3.753068719646088 0.8647858506798037 3.642680599554926 1.0451814600871743 0.05437703208898377 -0.5643304044293765
P 8.960046635436298 5.234342599802876 13.27802856931499 -0.8391818465914708 0.37425363281151675 0.3105285838487297
P 7.885883573654793 8.992847339308478 10.206651506829221 0.05502237898246652 0.5040120671552932 0.6396236178457372
P 0.5513997672405841 9.116869809380049 5.728992719311425 -0.04993390871596562 0.7675953926027361 0.7538039952455986
Ni 6.174081842817271 1.548250444028598 2.7278972100212213 -1.6994359404722086 1.5567281450566157 0.14837887765844124
Ni 5.676016906079485 7.675789250934951 12.046889128276208 0.808714274130233 0.5234961440218339 -1.4179453957270418
Ni 6.9662732938213825 6.476708483213669 7.583859602353176 -0.8590346196513399 -0.5334100607014362 -0.7084268526623798
Ni 6.429510171564167 5.28946882496566 11.956075294297174 -0.6707617340114383 -0.5958058493298385 -0.026630715213650912
Ni 7.296698392310917 3.095577964481727 12.711870331179078 0.7190714768604197 2.1662958240572365 0.7245929208992811
Ni 7.0592209271069 1.7977812911282447 9.390516649506708 0.9415482620755397 0.4312920137827475 0.83611297785816
Ni 4.383213249269292 5.6248869399984835 10.738876613865855 1.9688854948924412 1.8327790068434502 -0.4197883840185222
Ni 5.6188510198149135 2.6335347348945097 5.169129742883787 -0.45111753314910696 -1.9326627651149813 -0.6064905827371941
Ni 6.120653797033351 6.943652436986629 4.5575184415795835 -1.1824511152063313 1.3694358781624285 2.113696966914598
Ni 9.116759058550993 7.303131169631939 7.54444338229203 1.071053956978562 0.24306206556563945 1.9244437196392985
Ni 0.4620699943709064 3.383816226336558 1.1542977470687823 -0.47007247698505494 0.5928969032131596 0.057541802970210575
Ni 3.5802143631964345 2.121007585729118 9.77628947481714 0.09004723179708363 -0.5321913578029868 0.23401949574739694
Ni 8.458640715355312 5.41602933486977 6.05647830621309 -0.07262852210000395 1.4571187234923937 2.0444448174859953
Ni 1.9275812627822535 5.24868483216567 0.35238514204425214 -0.7599725859501557 0.24328035222403263 0.5750711878856484
Ni 8.168122832269072 9.217191602033566 12.763605735125587 -0.34876345896021227 0.08876116599580842 -0.8380335919196407
Ni 5.936115228118256 4.570880529105229 5.952034736871526 0.5076568629967322 2.582626588544462 1.630563285870211
Ni 0.8057205876969167 1.3346674701934824 13.521697928786832 0.7641907377965612 -0.6170976688290791 -0.5648538810330144
Ni 5.580512774489917 2.710414268731106 7.785181536488182 -0.9529989271146426 -0.48759325947763765 -0.5134752694507222
Ni 7.766540326110851 1.864333310155339 1.0586201058470264 0.5198238373765692 -1.3128767508204615 -0.11122335165406651
Ni 1.5096537801024703 1.37749112409526 2.412366252192611 0.4598184033572145 0.6597949505872895 0.0642526393314829
Ni 6.41046102896648 1.224894940127159 11.824670358545426 0.90224329382833 -1.3375135755325351 -1.3245454454076415
Ni 0.2583170795381147 5.994508602738201 1.888974446696795 -0.6417936289138624 -0.5384630497443114 -0.707457289660259
Ni 1.2006589670353338 4.8355565520783275 10.483982657869156 0.13508370321143184 0.7081473737487481 -1.1752201446755308
Ni 3.1829326808999006 6.799501003734073 6.253923961331124 2.8576600648103754 -1.5323386604686577 1.60534384918179
Ni 2.6632897909676414 1.5792053007498401 7.602945661893881 -0.18859195954221714 0.5259507762099135 0.5167256580672197
P 2.1830557377079223 1.8088471447981223 11.457633804740597 -0.6225622914880762 0.42300174874949725 0.3781920486339745
Ni 1.0496686700885491 4.976025520264762 8.157080974612157 -0.026796808477869978 -0.6661586880217881 -1.6005477133447275
P 5.55288967187612 2.01649572004297 0.34010748971978344 0.48204173353178925 -0.2722818816627052 -0.4175507529372551
Ni 0.6699243815730838 4.0612882769098295 3.3615266990653976 -0.5328832416636887 -0.48709240858181924 0.5640318993523513
P 4.261904174509601 5.325961223139718 7.351644647376485 0.71272573714805 -1.9419272211360428 -0.14235632561344516
P 3.745343849319409 7.789493435432774 10.5781596253572 0.026271274991703144 0.7006227832369288 0.27034995474731505
P 8.154851191253822 2.564629260749968 3.065649398776407 0.4868455826783357 0.8904982374772599 -0.6813125129440911
Ni 1.2625779097135723 7.156847782920048 5.655806725623857 -2.5693797508368847 -1.112895061384064 -1.3989292596358551
