# total energy = -340886.88387478393 ev
CRYSTAL
PRIMVEC
9.15207527230548 0.00000000000000 0.00000000000000

0.00000000000000 9.15207527230548 0.00000000000000

0.00000000000000 0.00000000000000 13.39498726696866

PRIMCOORD
 96 1
Ni 6.736742005253216 2.193871442590861 11.141159971754684 0.1309992487294131 -0.02687805533776661 0.7475703556310608
Ni 5.153643464393774 0.5639078693966062 5.824515299441541 -0.9241619482782922 -0.7207699476087651 0.7061642818804483
Ni 3.162170168557144 1.8173459098928821 5.065099880834961 0.20090651524351205 0.13034027498917553 -0.8501501726775165
Ni 3.935419864289371 4.4055436717716825 4.8097112177023895 -0.9882091564671883 1.1631907243148223 0.01966611097035968
Ni 3.7034147537209896 3.1702514511067252 2.692914893027217 -0.033582978161767967 -1.054016541880301 -0.19327111018544132
Ni 5.2269607401635305 4.9283193688437335 2.60069034475556 0.34885679000496694 -0.6104079155137294 -0.7310186219199668
Ni 5.382472804809603 3.3789370736384896 0.011842785525660161 1.2706844337231278 -0.8758786877918723 0.25474592966147097
Ni 5.961561221618428 7.989487233644166 12.157919851999889 -0.5938541249201063 0.2483611091810497 1.4908927346190453
Ni 2.24367703674128 7.069950765236396 0.20977929553819116 -0.3837597725297391 -0.8875286133259747 -0.2674410086306362
Ni 0.9067363757986593 9.16131896371026 13.011261189688959 0.04696505589562879 -0.4411827905338982 0.6219233723524966
Ni 8.228438769416547 8.931482895003999 6.880375591279695 -0.1966078878681582 0.7926780466029767 -0.6948521993017388
Ni 8.719401852510858 2.7344387741775047 1.409554142116609 0.8623305167937922 -0.2419202386517124 -0.41281323825226973
Ni 7.177350369675054 0.969287150105983 4.7874487943707305 1.4141933848837775 -0.942914289185131 -1.089579783696891
Ni 0.921787878948196 8.196607851288071 2.799618939737937 -0.1881456160334179 -0.8198003567410656 -0.21387644514061876
Ni 7.831568173176417 3.8090205513875994 3.576903785499734 0.1017362380992377 0.28452933157149063 -0.006488950158453341
Ni 7.804496334239089 3.8680331333578133 12.666621487571662 -0.2547567282947483 0.4364614737988289 0.045694416713321306
Ni 8.404387418358445 7.480018654156589 8.60674804160367 -0.7473703238051128 -1.4183701419692862 1.6607081848847078
Ni 7.523106624987198 0.6351549457182131 0.23358475877682688 -0.808585976082485 0.6883473083036855 -0.44150597820127185
Ni 2.1718790054825443 6.545939537989721 9.117659903376714 1.1132215914855472 1.1695932854070565 -0.46831204265052245
Ni -0.036981706145353614 5.324531015657396 1.4142692913459907 0.7315295001181144 -0.758399585036081 -0.6678445603646433
Ni 6.851454117910577 1.8515563676169295 6.97806484375334 0.14086328600768644 1.9399328164138332 -0.4636413766477306
Ni 3.667868092993274 4.881744457298073 0.4691097575315827 -0.6327880829811424 0.4718753345217486 0.6856353086891611
Ni 6.253786988105545 5.726133234862569 4.652923353750077 0.05810975965853863 0.8961873174422372 -0.24735040852834816
Ni 5.75349794021166 3.4552287739027117 9.061575070316593 -0.3319978094660992 -1.7559927538213307 -0.6687413611472999
P 0.40998460503434747 6.092152185038556 12.515271786802769 1.1575767205621545 -0.8463966191723552 0.7965406148821765
P 4.269461463131002 6.235528597747205 12.334010358109985 -0.2307660218071058 1.5780932409959532 1.0720728851613794
P 2.4107664767273524 8.834415983655349 1.4484669361645237 1.1824855679886925 0.09054756847226987 -1.2291726876325864
P 6.629516290246544 7.752951845768828 5.657386505531387 -1.5015656409518592 1.0123739266388498 1.4180600669280352
P 5.040523812850375 1.279496744690412 12.57908554751082 0.3956030450215703 0.6474929932914849 0.09929523275791287
P 4.304092916321959 6.474507589745689 8.164592976444709 -0.19344774497262165 -0.313798255738937 -0.976567201352886
P 4.894365169229978 1.1135055537484504 3.55765514058662 -0.7908206816792638 0.05557670882403977 0.7568834055018706
P 0.15847550665009752 6.160719533692532 3.4246022688926114 0.9373077416316309 -0.44065751415804755 -0.5070534250847784
Ni 0.7433690848645853 0.40874907485972295 4.822356640237788 0.539633930123961 -0.8370799697571197 0.11878573738235672
Ni 1.8537345615544158 6.96729193583815 4.763779697055072 0.41519073734551076 -0.2565747553400936 -0.0218075827933947
Ni 6.348538424386193 5.695894777848055 8.849827163366832 0.16621796272239117 1.7857643286568083 0.7238462725412437
Ni 0.06800449601887003 2.3825048679922376 10.22213052832228 -0.4038259471519949 0.5173002996237672 0.7566946865298323
Ni 2.4539734245377405 5.517054073089999 6.844623924063745 1.7505826385493528 -0.6639285131396888 -0.975233570143127
Ni 0.615461509942235 0.14393194368346185 9.221511248195355 0.7873013556720957 0.3822021982346321 -0.44773756093328054
Ni 2.097710586703603 1.5174232480216232 11.568848351380096 -0.9152335354404108 0.47410756628637707 0.6400997861512072
Ni 4.2284052530319975 7.036426713164918 1.7330699390779756 0.3000821917044252 0.9408674339584313 -1.0853032678087242
Ni 5.487804040215185 8.455675648718413 8.254567029383477 0.3834224437949784 -0.4419389519736324 -1.1513513084777331
Ni 5.6182851787309005 2.892604940680178 4.552286217800531 0.3791243306402567 0.05795780746170664 0.3654319207548287
Ni 1.1255405328568298 7.426387492502518 7.019563099092598 -1.6596833431646192 1.1650648014090839 -0.20195912487774248
Ni 5.386545478348179 4.93880764721499 6.688157297956833 -0.0032897264948653017 0.21728495660153546 1.0846610062390352
Ni 0.9142246038644205 7.438459079912367 10.874894982255272 -0.9614501432057894 1.995661220324389 0.20879183152885977
Ni 5.026283183578406 0.5416051769333287 10.35543691250397 -0.17422386374600318 0.052165369149645646 0.11188515360778152
Ni 8.44585547184899 7.586768461244147 4.75761851991761 0.967761430135798 0.04568696051415358 -0.7746242744250594
Ni 7.828886615093714 6.001034122678839 6.6117255709394875 -0.27837282505179156 0.355678955133123 1.2080803857386613
Ni 2.459876513149835 5.798434630266523 2.6752468115300867 -1.1180588649731906 -0.946545715290131 -0.4043437673286778
Ni 2.460745960309756 5.826595566172593 11.206915802855738 0.3598477417988319 -1.8002149568644998 2.7119795599197034
Ni 1.2171802635124984 3.4898602270936685 3.5043561992683925 -0.5428246691471167 0.3172466192988536 -0.040102267337524485
Ni 2.030378768224251 1.3310412331606734 2.7775844030829298 -0.31937652115766285 0.01856696436890996 -0.4660947232842296
Ni 1.6421843394325963 3.461827420242743 8.334601928473042 -1.360247012574309 0.4008421819333226 0.4649703798717992
Ni 3.6723068495465547 3.4516960728108224 7.176819549303733 0.5999895483938827 -1.7084800529523478 0.06715155814583275
Ni 4.284653908241199 7.375007741388873 5.815165539246012 0.43113697626212194 -0.4933047080401181 1.5212672331458443
Ni 8.348651279369827 7.517761812972526 0.36663580005576224 0.3793966104650369 -0.3637735592157993 0.10367613543442789
P 0.7473593897248542 5.550120521393097 8.042712043151916 -3.0919420701905396 -0.5513771867028182 -0.5924490170424636
P 8.879453346539254 1.896529665973262 8.046047059415866 0.8343486868688856 -0.22305142677166748 -0.8724488361747169
P 2.1780566563556674 3.4747318465110437 10.547467588281798 0.17353840764320436 0.4210711073856877 -0.04259160941828148
P 4.185884710874179 6.441743159929721 3.8996288431493404 -1.1022972312635595 -0.8112442396409383 -0.6081931672505978
P 7.347524059060003 4.199274197136962 10.420790967496387 1.189414691008358 0.1589437976584811 -0.4044808071271744
P 6.674178418040378 7.977726816796814 10.054612771209005 0.1962368776819846 0.1779501635576548 -0.8584172977823151
P 2.4877720388702462 8.774259392264186 5.967587863247986 0.6231634154071849 0.6236298135206422 -0.6949383312576418
P 7.087943745409077 4.171634929526843 1.525394705666793 -1.1157577276438397 0.31837584780729045 -0.7233068550980059
Ni 3.136745703185982 2.5377149141511794 0.18228554592641705 0.027608762856204064 -1.1910879649457229 0.23217858588391627
Ni 1.8212080856980046 1.4119913397869979 7.035261653970624 -0.8421221601667174 0.11167509447950445 0.39554596653138974
Ni 7.235218942224319 0.9105518760194071 9.083663604216268 -0.1003766387475497 -0.46384860756253016 0.8375139719707447
Ni 2.9567701410823446 1.6321536648297186 9.407125403932966 0.512797269547091 0.16464059093294228 -1.812146161084447
Ni 6.599625612095998 1.6963097131565177 2.4594271462492863 -0.0700839013012793 1.9364713402277942 -0.8352858539711744
Ni 4.434464229933264 7.2404539293345795 10.373787738823523 -0.21617886802155029 -0.17319850780528237 -0.817836033925843
Ni 7.85551000233803 6.696326440429943 11.438984062744156 -0.9929654402052512 -1.3089100528632296 -0.6774579150846914
Ni 8.16731205803642 4.085458987865625 8.35868653001039 0.016448375364010382 -0.4928074566887255 -1.1116066815899437
Ni 3.5525610954370204 8.860243140342686 12.33122446636809 -0.2983621236895249 -0.5562247446031066 0.7588664973701704
Ni 0.43590694330550656 4.988604089290042 10.137861879167668 -0.7757540171541285 -0.19504131471198669 1.1330049447600616
Ni 9.093950536929437 2.4073619046906094 5.612861658868066 -0.652182171237038 1.7628486004008994 0.7115270888542584
Ni 4.330212939421058 2.8593920591711974 11.08129807719036 -0.7997190126101581 -0.24090028202763025 0.5800658128867623
Ni 1.063992826009794 3.811702109470303 12.593672125231684 0.9830792914397908 0.556409606920403 0.16993834899677182
Ni 3.01311946912059 8.556540671344612 8.172602872806422 0.9134427620885752 0.3614680510110742 -0.6108624865526447
Ni 5.70073622571751 7.95033465522162 3.485067285223662 0.5754026030831381 1.6261656710231478 0.7662558478557061
Ni 3.3791841796734143 8.601394992721167 3.8181076470200788 -0.30800093233086956 0.8819884002340358 -0.46723012244025336
Ni 3.7348338284579228 4.737306403846784 9.482994278315205 0.38169054870553615 -0.4729803946604693 -0.3982749354267786
Ni 5.541892805637635 4.8892125507980255 11.313192447646792 0.2677341143910228 0.01451850533114919 -0.25074580736314234
Ni 7.87612047606584 8.998503542920853 2.426301209456298 0.32549626090215555 -0.8751474660528026 0.6107524433373417
Ni 4.711772113571211 0.43605154609631447 1.4619287238227106 -0.6610833303814099 -0.40412085268459436 -0.9471458107679753
Ni 6.24708766893647 5.787131817187549 13.58908112885184 -0.1219844468253125 -0.17339853963123042 -0.33494995011588763
Ni 8.037938320640182 9.189781918103462 11.308302493777889 1.1092209549665866 0.32351959679175896 -0.09961224977769942
Ni 0.40288900100185576 5.031197848050802 5.309826376164291 -0.841833425281705 0.08571183764652336 0.061070899169391596
Ni 7.201283046761298 6.471002344879903 2.5070325814813375 1.7219775732181506 -1.3931825869600651 0.33771979955154097
P 8.86557880028199 1.7369906881654507 3.3760459330298684 -0.19333590198510572 -0.7978305373381936 0.3015346078802355
P 1.9201145641955388 3.7976811300071565 1.5157630615499424 0.2917770142728395 0.37794727961302005 -0.95090244959693
P 4.8533272632817095 1.57034969987239 7.981068239513521 -0.012102696800804964 -0.24997087687033076 0.3966949925341684
P -0.08096749556952308 1.9327901885796497 12.631741097930707 -0.39456586200630756 -0.7477009676716543 -0.6245399840397373
P 6.277298669724882 7.718723083894045 1.119815909714403 -0.21205533277147998 2.3192281254143157 -0.22279380223490663
P 2.00350827494501 3.6545243671073298 5.535598923407344 0.8972638383358676 -1.0787130161857164 1.3576108605030426
P 7.189174851049978 4.048795773943064 5.676393535654796 0.8112190428299577 -0.7872998130101989 1.1879185660788056
P 2.5831549683512587 8.779421162771506 10.327910215420873 -0.06520831837653286 0.30024828496864425 0.35508117364812397
