# total energy = -381171.591746587 ev
CRYSTAL
PRIMVEC
9.25345083911628 0.00000000000000 0.00000000000000
0.00000000000000 9.25345083911628 0.00000000000000
0.00000000000000 0.00000000000000 13.54336065618925
PRIMCOORD
 96 1
Ni 4.478475914944909 6.941392914388204 12.598521586127434 -4.077841090467312 -0.3560612781732061 3.219620996297468
Ni 6.3384750673036185 -0.4149700804334753 8.914971699174785 0.07297536391646141 0.08492636563075051 0.35812535979108645
Ni 0.9190462663445891 1.1202782871131192 0.5979663255059898 0.11819875453063514 0.46511281898693446 -0.5523776029428745
Ni 7.192762908188511 7.787778308201296 4.508313667384043 -1.1096225612803794 -0.9593688351967283 -0.4614885919707859
Ni 4.582410675495803 8.192514997280316 3.3962681755399884 0.3373637017637029 0.4896938507604083 1.4600708641421822
Ni 3.09380802860991 2.268714825326343 1.4345264051494815 -0.36689770666707777 -0.175393201463756 -0.9160768572773126
Ni 4.712088536460923 0.6549453747909066 13.403768913257734 -1.115420398909079 0.9449017519288048 -2.0374012803756525
Ni 0.9656161087078802 3.3403754813911717 12.374405781273937 -0.2262730190327587 -1.4702300640633712 0.06168179328051312
Ni 7.030429618984065 4.021346186848869 7.738554576118809 -0.46327962243293763 -0.21328894806826493 0.25912220435229566
Ni 9.22416373163734 5.156994455913114 0.10725304804497811 0.5080265876313251 0.7488386808205232 0.07494097228326448
Ni 1.7395377284937228 8.497934397809413 2.177149152598488 0.3918075825348801 0.4276464466103603 -0.4831563067522066
Ni 8.237107377185477 1.8961616384905566 4.4977499278323245 -0.5929228713550886 -1.0100280521144929 0.45474715948189426
Ni 7.2182654188792394 4.8357331474368 1.1795022235872852 -1.7149636037941627 0.12922158800370004 0.3729583110388609
Ni 2.563289181396247 0.7977723894902524 3.938558337648309 0.8514773761293722 -0.27051193424647607 0.2134234167636002
Ni 8.342291353608378 8.439137970767 10.293076112783755 -0.10388902277618237 -0.02074880251157717 -0.3269908431698111
Ni 3.845613900735796 6.475999854635118 6.753099068673294 -1.5395639745725034 -1.3039280262676058 0.6953918738552928
Ni 5.562129043380995 2.475862577257639 11.469127724529034 -1.4455857831521297 -0.19482791314959996 0.49861043652374776
Ni 7.28757376614831 6.983542383254775 2.0852309233912005 -0.6760978015123711 -0.3199833015037264 -1.0105615560204597
Ni 5.586086227770798 2.843659490328899 0.4376697208454588 0.6369645829563353 0.5904780093590218 -0.22664865720462257
Ni 7.058245492400731 3.9768648483545537 12.204017363057778 2.636510483047111 -0.08631604688942554 1.192629341290914
Ni 0.5435689890232186 6.581285619017959 9.832588307354746 0.7014031130463791 -0.6714093948977662 -1.301244823008488
Ni 8.302233164646053 2.781143176023179 1.2245850363903439 0.09244324283308596 -0.4607779390570064 -0.8239033231658457
Ni 5.8550840455427435 1.781122736855165 7.149201362714028 0.02088712786165435 0.6599654147268829 0.19925586701396653
Ni 2.655361017888537 4.840239578026925 8.621026577766335 -4.246425239429036 1.7843491934768367 0.2629150957358246
P 3.6434352519398123 3.021316494229951 12.81853348550512 0.5708080417339201 0.1648604202532322 -0.5696024514615932
Ni 2.284538226371751 5.511845791170029 12.913079694769072 1.1000287469443573 0.07133705698209004 -0.6807026472742341
P 5.3216040940398806 6.255610414460559 8.899775682100652 -0.9622343296699815 -0.29559741646019416 -0.19324077116813815
Ni 8.55943283251572 4.043202837883521 5.589439678378316 0.3867270826881791 0.3630464512417877 0.05859904059013133
P 1.8193487425385468 5.517758746297525 4.00278098830068 -0.2958306155169228 -1.1856775925634289 0.4156903026897486
P 4.243114391208086 8.701778667768071 11.504827538115691 -0.31268702495262923 1.3500171073161846 -0.5287075130194443
P 8.041295102611272 1.9878170696921775 11.829367344247204 -0.16081376098768435 -0.025049229659143954 -0.15575485840753822
Ni 7.921499927211354 8.010712447374386 12.758523005704136 -0.6636773163608312 -0.18130930983787485 1.4397144119730172
Ni 6.155173458351281 7.214240167736109 11.353791787119631 1.2672980337493982 0.7708956606205627 -2.9752810924606696
Ni 6.313407468805367 3.5209010550723856 5.188068469392988 -0.4833974762287352 0.13119310990777405 1.066971302268756
Ni -0.010273181193340699 5.352047947513211 7.75211180703789 1.1215249691449203 -0.8983138768669368 -0.9888701870899549
Ni 2.5587364835516033 0.6262217378405834 7.896632203252622 0.433886256872485 -1.7444888669467893 0.7632024057413631
Ni 7.4525350354094195 5.578063485837249 3.8805253203054555 0.5120951012737439 -1.8828263012088284 0.047168173045370375
Ni 4.314125373443446 4.699920248522495 0.7679559199881967 -0.7840154858319723 1.0905053808349543 0.21260734862020803
Ni 5.03365520881706 4.855211661589189 11.836112184610945 -0.2704854518839148 0.4984535992309093 1.7654299879748303
Ni 5.685403516320721 0.3004280891116151 5.26128454897871 -0.033397087403206994 0.7398992122390483 -0.648832795148831
Ni 8.481028343008266 8.89723005775703 1.9537107003511442 -0.14947956692178774 1.671676253860437 -1.642909980361022
Ni 2.0330386842587926 5.662825096115577 1.8256993858937889 0.23641165012865736 -1.5253056648812764 -0.21254049993801458
Ni 4.676869902321259 1.4995864931086413 9.373874388463983 -0.6283439311668597 0.026763384136773264 -0.11103103313760232
Ni 4.375864397873251 3.8387848539688303 8.34153164528918 3.9728408369048225 -1.3411390881002645 -1.4252028486204036
Ni 3.409378464780418 8.958201045761824 5.8494042773780235 0.12950106691733182 -0.644150044961181 -0.520969006724606
Ni 5.776059574824738 7.6140540209343355 6.841780440754451 1.6535139811291135 0.8481827645385006 0.9089153065318669
Ni 0.383468557521847 0.4204333178470479 12.029971055699368 -0.8634733721489839 0.5979601766686798 -0.6318316326051441
Ni 7.093547407598528 5.801423283751911 6.228442282607155 -0.09572474179783515 0.12943627511766742 -0.28662658042015154
Ni 3.053176125691554 2.5889767611050507 6.924083409127654 -0.20190307482882647 0.5493676124719571 -0.31452459238200026
Ni 6.075575273677243 4.304631332816201 9.904462636559424 0.7514632629275638 0.7177015930960865 -0.5614350851594525
Ni 7.090114377313238 1.9881501939247124 9.751612283841139 0.614008231270478 -0.417340693808978 -1.000686720108909
Ni 2.022156625995985 2.2418057900982444 9.307796420905412 0.46738464574024663 0.8989016310496067 0.27983861096404067
Ni 1.6172071075461785 8.92302867887668 9.91390300717143 -0.2018385401394782 -0.28755577710264024 1.1647238731298974
Ni 0.13299984983956573 3.899681814366394 3.1216498116891063 0.1648467934064774 1.073643314972293 0.6235588510733906
Ni 5.378337001530758 5.886397723401025 2.8323499226343385 -0.8125243919049425 -0.8480662935652942 0.38423079862888665
Ni 2.508647553809617 8.612177502667082 13.24267095974894 -0.24958675405803468 -1.1650912837716452 0.472447919195767
P 4.609319710723901 0.0013584065926701624 7.545317536931117 0.5018209730412454 1.151248978571914 1.0118512213661606
Ni 1.919508095120712 7.346805105383199 8.011845995110095 0.22721841366516354 -0.10164342127511526 -0.9563187355164949
P 0.8549550146950519 3.236061329353224 7.36601712014956 1.4713919455819564 0.8975165777766221 1.026760020157193
Ni 7.465415839067437 6.41099436203629 8.612453255504015 -0.9095477979095433 1.0872642481898371 0.5264511128850998
P 9.079282450837363 7.881608300365297 7.998654275501711 -0.5277983709416136 0.7623799098400675 -0.12464733836945628
P 3.6768772235059566 0.08880259228799556 1.6634364229162115 -0.8426276390482261 -0.5296691056017652 0.46768160815537513
P 1.334699251454761 4.917107994684358 10.968442928374143 0.5604673219295444 0.4166374970943663 -0.7725661063444501
Ni 3.837174753511578 7.122482948574548 1.486181018784382 -0.20755435957733284 -0.4050086546061863 -1.1043607986608077
Ni 1.0973759961263436 9.358940244050427 6.247972616084605 -1.1632290337519258 -0.28805637088814257 -0.7989857339885594
Ni 6.941032029802959 3.197326383870136 3.012002895895329 1.2454279731491842 0.10087928941558111 -0.2749072351006943
Ni -0.007601709917428736 8.748684410399168 4.058173070755604 0.3748745542249673 1.6044442201856561 1.733815446393343
Ni 3.468433988448136 6.232347238888537 10.45607009838273 -0.5464694649885556 -1.6016049509646482 0.7618325219770299
Ni 2.6488003211977795 3.366516480194259 3.503450897358098 -2.041058931732898 0.5928413673848758 -0.23349344804059788
Ni 3.771456745193162 8.104033499738682 9.429537597030388 1.372356137133017 1.9946055253663648 -1.2978530237181198
Ni 9.217084841695973 3.1265097241037543 9.804269046208915 -0.4091910681186501 1.1770646540834373 0.4871572003814836
Ni 4.221183712566204 2.35522533782548 4.894557334831924 0.1601020796326404 -1.4000947406988662 0.9067437528018448
Ni 8.33809954034898 2.236494309279493 7.194517362479861 -1.2099027836593808 -1.006365515661241 -0.8220279605200037
Ni 9.318872801637196 0.8688907117560958 8.678761633990089 -0.18833073546103046 -0.957208851430932 -0.19917076349932794
Ni 6.42008125082377 0.2943337663464069 11.462721560468369 -0.23414110892692575 0.009079593703765008 -0.08463608808384133
Ni 0.2336107708258337 6.82157923208648 2.7118144711621204 -0.5595710353675202 -1.5201775996260916 0.9284927144431622
Ni 1.113171636819041 2.5760959574470337 5.252860207275939 0.6727175721862285 -1.0813190863499957 -0.10336708883444133
Ni 3.6370966380707452 3.72384774029338 10.527958307763765 -1.8023569429081667 -1.280460539273285 0.6367478389598389
Ni 9.315819162838961 6.271452322407774 5.364552135719444 0.32238805429047707 0.8627413790789659 -0.3590756395194977
Ni 2.57035881788671 1.1495284454198658 11.768042874417887 1.4348935935456064 1.2692204475830915 -0.7017810652110882
Ni 4.799320818130553 3.2373197986761335 2.8283413277028346 -0.5861883808447323 2.313564242260319 -0.03558715307599032
Ni 5.484048424655171 1.235011824868687 2.150455722776447 -0.6597144750583414 1.366295532761234 1.6335133696374706
Ni 5.912510961851401 8.60281301035249 1.2454876566368198 0.6276399631212997 -3.7612231058913936 -0.6335707267834378
Ni 7.893943150419993 5.90912419882063 10.999823231078933 0.8210051756824441 -0.9421653268342484 0.4371872962212599
Ni 4.07660779564605 4.684244902691546 4.760748733383371 0.28081305906216797 1.233831012340204 0.3978980117033341
Ni 7.828993178526588 -0.1633798545016598 6.27003469372932 1.0741451943093758 0.3093476761667511 1.6019793035849315
Ni 1.9962839772691068 4.740256041011931 6.183749965432234 -0.06770768775961888 0.7130736074057719 -0.3395064591383185
Ni 7.1141826031138855 1.0503592120844016 0.37212937878439456 1.1852929555305005 -0.13566271564335347 -1.9756084154385714
P 5.182062054411365 6.65343477571448 5.042870720572101 0.1365011523842488 -0.6826003785175793 -1.4991038096749278
Ni 0.7113423820139778 7.257444530005707 11.927962863626634 0.687438680446487 -0.321140297926305 1.154887860876082
P 0.4302031113112248 7.520029706301355 0.6008552528781398 0.4858508228652343 -0.4076586906345237 -0.5708841463874942
Ni 1.9331291748510286 7.571608441638845 4.484640563936986 1.0880088396653458 0.27423463451370195 0.4484551558255954
P 6.3270840692411054 6.335097557723752 13.389847096373046 1.1844349784055794 -0.47688281503866903 0.7628283102313959
P 1.0545787856965105 3.405640070615304 1.1851431272582098 1.196330958512217 0.20142613519240793 -0.1174456784146945
P 6.950109665139534 0.4314273428657906 3.410177962938502 0.8869202903180144 -0.15879750188860395 0.5862390315770096
Ni 0.8168622587046839 1.5710601478891884 2.8368054592444927 -0.9448516154171599 0.6558534494410382 0.15638349313047262
