# total energy = -381163.47600944544 ev
CRYSTAL
PRIMVEC
9.30692587795373 0.00000000000000 0.00000000000000

0.00000000000000 9.30692587795373 0.00000000000000

0.00000000000000 0.00000000000000 13.62162678086642

PRIMCOORD
 96 1
Ni 0.8978354138039184 8.636966791001967 4.3279587767070185 -0.6058758319713308 0.45102317366308775 0.8405658714231912
Ni 2.5263277937860056 4.263949463493552 10.2183996311253 0.479362129817097 0.23218681341403238 -0.9846296666460461
Ni 8.591018498089484 7.362848642385652 11.137137469691652 -0.6132422996387309 0.9900832335614496 -1.0810424356498414
Ni 0.3727637861491981 4.626063334394674 9.320706613286855 0.326478936530399 -1.3172311711344153 -2.3636377618779423
Ni 6.609750816602343 0.982476320237638 10.96468757926549 0.8449688855868932 -0.5886180733321476 2.3574180062204757
Ni 6.6906652299264495 0.4363356738477999 1.5781474952989234 -3.3921556452665063 -0.676525375968093 -0.24374675033748985
Ni 3.567018935204031 6.860684151321065 4.811417277509341 -0.6942731868698173 -2.4763922054645544 1.1992833562723217
Ni 4.332951011731984 3.8742405574525667 4.627130838789461 0.9961338106309038 0.010120119153137411 0.8319133379545156
Ni 4.419347204380672 0.5435626279298912 4.221178555065641 1.874909874575229 0.9756971400431067 -1.309908412220757
Ni 4.086708367640746 3.403254267979395 8.109267818180303 0.747534360186803 2.3506284941024678 0.9094356978117112
Ni 5.010941945920453 8.92212169206446 13.337629789532754 0.4371286750691826 -0.869556088007954 -0.4129325374389533
Ni 1.4629556740759568 6.855928312212643 1.1055436621133372 -1.2718913095470352 -0.2456257125277576 0.5236570950797305
Ni 3.144838164878733 8.998345414761081 5.610789138609817 -2.2717331651571455 -1.3896889719845098 1.5760823812135116
Ni 2.335954625561413 5.239873707934069 2.5243872997466594 0.9846461217062783 -1.0163635074142174 0.22316224131791892
Ni 5.062483701267692 1.9813700576714715 2.563495002160726 0.28962165849273347 1.8465750321862777 -0.6130458673572087
Ni 2.527249179444975 4.4133163164310485 6.077206658184116 0.6279297264475766 0.21722942077325172 0.5455089008474993
Ni 4.044250171921333 5.509216141980498 11.78082772866664 -0.43986150061931345 -2.1163017515272973 1.2324523868251225
Ni 5.330234650994083 3.2376654432885146 12.537494760512727 2.6353815116489905 1.3586529286143116 -2.5292193765679154
Ni 7.0358311888580305 3.0846875031219234 1.2295454193441944 -1.1040594653703049 0.8980727073904081 0.09321148845767818
Ni 3.934465674616162 1.5260100966973997 11.164366742645683 0.27555978108302864 0.3320865125251635 0.47938218442175495
Ni 5.316534856145556 6.08645960386238 3.432921955505649 -0.142408004786987 0.4632618818211247 -0.8895009065609972
Ni 0.21023228659944634 8.227257301313234 13.327971992580094 2.6966634983879234 2.6325988066975308 -0.7384377972021734
Ni 6.373755097869956 3.0557336568082243 6.943855494163357 -0.32325631582804326 -0.9794121270008487 -0.54834996984072
Ni 8.217503643024338 6.557725101110997 13.225591154787153 -1.6893150499881227 -2.0924460279556225 0.6877713811955575
P 8.230337893768983 3.723784794190833 7.8807511450595165 0.24937103850280276 -0.7927788338468992 -0.04629348374990092
Ni 1.2697532003935166 1.5587425549054608 12.917879057546417 -0.7805545238665653 0.8547285360768182 1.4932589208583766
P 0.6254542684680574 6.910113234500767 3.1241060568593197 -2.240290630377148 -1.4514602396550358 0.5475408436758635
Ni 5.6803705083285925 6.538013032164545 13.030938662057565 -0.3752584199269473 0.3960277912638147 -1.6117590086795146
P 7.552104979508462 7.3462264728207955 9.230123234699072 0.016716027203100243 -0.19347911243118934 -0.6082044801045073
P 4.93169347232317 8.311550128720231 2.7313407563697907 -0.055114938696272826 -0.782617319932865 -0.8067234689524494
P 2.4671729730949514 2.1666523374571076 1.0845537522479292 0.3290014458419366 -0.3918268658085897 0.3528034333575408
Ni 6.917502933624226 8.082999950666391 3.7365343519102594 -0.15814984100227603 0.6585456515612207 0.6917457924622732
Ni 5.133058119974468 7.897457076957005 8.256094811053831 1.5074087299961973 0.43012910382289793 1.773364669440875
Ni 0.9101159024605965 5.1645992916739605 12.97991157970973 1.2306130196235385 0.8323527394847794 -0.3133202876612539
Ni 2.2488324926965677 5.565811558063302 8.2875885174315 0.7743167704869697 0.476013010839206 -0.9627580633839355
Ni 6.3554204539490335 1.9936458928652256 4.689626845860013 -0.5403520392369081 -0.768768844085547 1.890482017981873
Ni 4.430031555254386 5.575118483911486 9.553105205178921 0.2510458551020644 0.6288964612362201 -1.6591701509736265
Ni 3.306220259086234 0.40890164852510963 1.9997912560027808 2.2210464374355556 -0.5237403988221561 -0.01970776284157251
Ni 3.912352418800878 7.030470399569476 0.8956762070071398 -0.23107146886266658 0.1715126354624272 0.6521256069674898
Ni 9.061027560348597 8.847917572276891 6.930588471366772 1.1053640431143414 -1.7787488165709238 -0.6211589833826463
Ni 2.5264301699703355 2.7011583958441316 3.6431998460417514 -0.2346311611894669 0.0930569651576849 -1.3348550548637657
Ni 7.446229391059527 0.1483365762461023 8.470499392511018 0.17693894868432108 -1.4590195400595323 0.8315500410778259
Ni 1.4181521330428017 6.881522358295148 6.332517040129239 2.2822083536568565 0.8859756670165579 -0.13157234762406372
Ni 1.6606999275723107 0.7117145799993608 6.978196189157984 -0.7908497351449864 -0.2445265659263079 1.3621717404008478
Ni 2.07057694192631 8.858257566894224 10.23206219827043 -0.23848087395286025 1.015915364133205 -0.527713267426975
Ni 9.239888061298988 0.36031949559759197 11.399626283543478 -0.3391621884250223 0.6915038516547961 -0.8157891786991434
Ni 4.000377323472997 3.8876797583773435 0.49708756301440227 -1.3525185335817997 2.209840027196775 2.376326155978888
Ni 5.763499970004566 1.4061182779211003 8.992371299059132 -2.241358152409714 1.8620795555797802 -0.4552672936514224
Ni 3.807705344563903 1.3165298097064866 7.6209464486223055 -0.9026171322279809 -1.436510817434055 -0.2342537232453901
Ni 2.693768696720674 3.4875191746088476 12.24359507192328 1.215827633784248 -0.6843878094353052 1.9888071735170327
Ni 0.9228840740317192 1.5454429578684068 4.991236391822093 -0.9393844216550015 1.2149022937565013 -0.4719074733112647
Ni 6.616628634804151 3.8706573910010156 3.5277148566545673 0.14441372236310612 0.6756512008932558 -0.6158733095036749
Ni 4.254642537645369 1.69456783073385 0.006964372612195678 -0.946461640216757 -1.1814828377557909 0.7763772525604242
Ni 7.074585228089865 7.492382436340669 6.939987535780851 1.3768637951953835 -0.8986352647620975 1.0502624741545075
Ni 0.642911269281495 7.359749436078206 8.68365126174904 -1.2618562939085365 0.5981278125947957 -0.3458678825799721
Ni 7.8766933253897085 1.3758428481369596 3.1820667989640516 2.029931968581801 0.08487417223657641 0.5206987837823549
P 5.228993911617542 3.7268653866465815 10.37048503710305 0.08832073602428016 -0.14928981950848483 -0.7467900258216106
Ni 6.5900852822851315 5.634236076899146 5.347918740798216 0.05686431728721175 -0.27607400171528584 0.4361701678106553
P 7.466974528775128 9.301797732041104 5.523868966035878 -0.05565178503634932 0.19958676799082403 -0.5768622183478
Ni 2.549706791516642 7.645993247464936 3.050182075539783 1.8417714401500473 1.2131516296139815 -0.9716926468694039
P 4.4679479711598855 4.29731479265929 2.549641643035705 0.09257179799115026 -0.4283144192116624 0.14963691843525842
P 4.376637721663357 6.04762180229791 7.171350266826014 -0.9597598999875601 0.037117216567271565 -0.19603093231876562
P 6.539548674929495 1.527945937273822 13.258392484246489 0.29727377572135255 -0.7535245163319668 -0.422783204980788
Ni 1.4041545165671339 6.624083482408545 10.678266005595061 1.6431457505209122 -1.484379873201192 1.2701794690622512
Ni 5.183399281887292 7.934796463459918 5.868319222369733 0.1311684273174257 -0.5283892104480772 -0.9379574594004878
Ni 2.6112814129282236 -0.13012664513154656 12.861090057405972 0.7744535531751502 0.07852740408294218 0.5868920917799764
Ni 0.9183748684582744 3.5234904430120766 1.0631217634047323 1.1156266013826142 -1.289559930471392 1.2296347148706694
Ni 7.82759929154054 5.913937119414604 3.241225342425445 0.45165592215108025 0.6520489880932835 1.0586602112998995
Ni 8.769720781300455 5.074992209607651 1.4438103969136586 -0.9852279623516774 0.6047872268928423 -0.6534507535368166
Ni 8.603992352721852 3.7570105194688477 5.40886235263729 -1.5409996785777655 -0.6055935248442215 0.47885407983242695
Ni 8.79603146067327 4.9865112655689705 11.156112430110928 0.2063351424582511 1.9017408787251442 2.63841592759994
Ni 0.9303938324986185 2.87782246229435 11.1783429531919 -2.4275286469946322 -0.23150110020091744 -1.8307162107771504
Ni 0.9547044535066586 4.92062753748968 4.514370917290624 0.011047001842780974 1.1275683471255227 -1.2979694946913258
Ni 7.3650729976633675 8.789739978799897 12.876959296669709 -0.4746662670033245 0.2541571470375365 -0.2380617841375707
Ni 0.17228981130157206 1.2781573544344262 8.987222707679917 0.03594530774635745 0.0883634163367575 0.5907685440162471
Ni 3.6834951121940467 7.64777087030194 11.437671135025683 1.3153023295428186 0.047621715643021215 -0.9431179205555047
Ni 8.75273564162752 6.910597194644874 5.336095222200683 -1.1361139227026884 0.40819913651902595 -1.91647612805279
Ni 8.545582086098653 8.4290407606277 1.787538435801694 0.6014651044981448 -1.3999972958890534 0.9483233760158442
Ni 6.601402504116523 5.68760198971263 10.83897334767857 -0.2784702698616043 -0.14829685946759621 -0.4083567451428128
Ni 2.9714315224753793 8.102730633464539 7.881146689408063 -1.364512215608566 -0.1518552662428159 0.16883328885805116
Ni 8.619413928852293 3.3534901354691575 12.989228743176346 -1.0923478333603316 0.40382260471788517 -0.953407732517287
Ni 1.7382173129618306 2.872498900709189 7.742695929797902 -1.1931697871754159 1.8571453515029563 -0.9735165874520202
Ni 7.829274538193213 3.1522092501504946 10.630685277888809 -1.4616497785935278 -1.709839138083404 -1.2501426050160342
Ni 2.3695712417250516 1.877709517574404 9.548011524662213 0.44970471196198036 -0.6156249409382947 0.6259708029489929
Ni 8.515036755464914 1.393712145765472 0.7381332197120144 1.9503486124305185 -0.6556963550378836 -1.0409828486247943
Ni 5.730572066353693 0.701087932065905 6.673970466339979 1.006187852432796 -0.049907426353404366 -0.4635794130615436
Ni 6.475005144172343 7.383007443772817 1.3116902082654311 -0.2552295541661088 -0.37835171414029034 1.293588849125127
Ni 6.288159300844212 5.117366642994431 7.709078382941679 0.01967202450763064 1.6112018506244639 1.268897259915718
P 6.833842977174904 4.898923786411716 13.503336812181907 0.9604376427808748 -1.2395069796790588 0.342052879709256
Ni 9.066053300306615 5.597957679942927 7.178529629425302 -0.8073770433760483 -0.8285853020225471 0.5122516814562662
P 2.2026608335637294 7.117192334622849 12.83146332035345 -0.4191798039002458 -1.4456562313787489 -0.9515218283484839
Ni 1.1447425724007163 0.3960599522397861 1.805151792969381 -0.8253305425306753 0.10242477952583005 -0.015609938623115051
P 8.992212150627129 3.270304832238094 3.1827610956323262 0.12545929274779039 0.7551975331590156 0.04266385741711362
P 3.1386211384121463 1.933606914218594 5.617245353070702 -0.4375017421378853 1.0070167760919948 0.09268492653024683
P 4.8415279747059685 9.062209539931317 10.392401916782935 0.6802131092323254 0.37645166890410003 -1.1883510256305339
Ni 8.439883329240834 1.6725476441770482 6.80432978461773 -0.0914561963294683 1.4616076125016828 -0.26781381858902265
