# total energy = -340869.3491719518 ev
CRYSTAL
PRIMVEC
9.30508145484982 0.00000000000000 0.00000000000000

0.00000000000000 9.30508145484982 0.00000000000000

0.00000000000000 0.00000000000000 13.61892728122051

PRIMCOORD
 96 1
Ni 3.63511389840645 4.892760821085616 13.382544258271334 0.4846578309983976 1.0541620663192297 -0.8007047735621953
Ni 0.5044107974376802 9.031763501848307 7.469600337596644 0.4810881113692683 -0.14625437511627068 1.0794113278043216
Ni 0.3168938612040938 6.58412690528064 5.047133986934458 0.3027862208991495 -1.0183232022437494 -0.6163759601717061
Ni 1.9992805415918014 7.1157262208370735 3.3709026180685537 -0.05714585308337255 0.8815991352154171 0.25331973873790564
Ni 8.30003979490955 8.029364274338553 9.653599777365182 0.45626591011926576 0.5148677789228746 -0.6544516839975052
Ni 7.349953736523867 7.315078290441153 13.245754905245999 -0.8165872491204066 1.2501328348240213 -0.4851226864499581
Ni 0.90091707635642 5.185759232572418 0.04909919391677006 0.9231458483089521 1.5206776791909618 1.1888963566110426
Ni 3.5866158127652787 7.4423625025450635 10.15254290881615 1.6537831756301 0.834405251138434 1.007165642965033
Ni 8.00958167071746 1.484300101890152 7.75429024166422 0.8363117241325273 -0.2505779143267104 -0.7811466489246095
Ni 2.149185407224816 3.646912741958447 5.87541001276011 0.7622238438781777 1.3900617819428964 1.9594549456071608
Ni 8.877308451280808 3.9236272605304268 6.743548077933077 0.17124035563764703 0.4142823665986284 0.7022364075809518
Ni 5.809916195456697 3.8407934235431456 0.8603413372453508 -1.5041660546891835 -0.2082572991816284 -0.0014038223260620984
Ni 7.847617419245812 3.093092891384532 9.450255827726556 0.5041547633807446 -0.1853189452179002 0.2143392437096502
Ni 1.3555829072097367 7.563970614832951 0.455286479800413 -0.9277866895150731 0.8741982147656557 1.6242337441077577
Ni 4.938067263715483 1.7056307743884072 2.1168307077653155 -0.5163888435530913 -0.26624081767494795 0.029680300673252107
Ni 6.3799734135371065 7.729163729642567 4.949458544690526 0.5440639408708566 1.8991381509949743 0.22776657285914967
Ni 8.454271523517074 4.1913437651317595 4.282621963730583 0.030420778383702447 0.7395641974971328 -0.008157338999811758
Ni 8.298178778576426 1.5211203100409803 3.3098212704909753 -0.5822124269161199 0.7476413180783124 1.4007891956627294
Ni 2.7867696029525737 0.9485414148291905 7.1935995187884165 -0.968027539312991 1.079540140072702 0.5095296545394128
Ni 6.367188231328555 3.1790253205664616 3.465445039315675 -0.30404271901406993 0.4589997641106611 0.2530813974748544
Ni 3.5833125087739863 5.851444774930325 8.674902453874076 -0.9433675746724657 -1.3151604046483154 -0.06214304918764781
Ni 1.3435328264527686 3.161941190628397 8.76177748782873 -1.2699485839983677 0.7884650369628937 -2.198106026589298
Ni 3.845780947315914 -0.024212753002089863 5.03392356249379 0.7424662016352762 -1.170211892827662 0.9179203382439546
Ni 2.602417324993462 5.454964550240248 1.8005584260164846 -0.3856243365423036 -0.21365687293064495 0.4613404964286958
P 5.5621497859464375 4.379743753615412 5.472520447818759 -0.2388176884669887 -0.8398912139536696 -1.1964836820399973
P 1.1374159624777898 0.8526246330200585 3.0235923059159067 -0.4386124587035608 -0.025842157874084528 0.09963358993393809
P 0.28922520087139547 4.11819651815838 12.02257121353176 -2.2899838838372175 -1.1893663542689257 -1.2013458952283054
P 5.721471394225052 7.974594563654757 9.5363548178703 -0.8754647401829053 1.6627277864178978 1.0629878921409759
P 2.3735774515910575 1.172551950847142 12.048637538801641 -0.13054750590397515 -1.7926065483896223 -1.511012902407688
P 5.538421827699126 1.1149721055003328 4.364444338340812 0.6548360639201174 1.070385727266944 -0.5938950054603707
P 6.836694736930356 1.9974009150953476 11.562551238688052 -0.6454710777654498 0.07275450615490696 0.1462155514585353
P 2.217624282875395 8.947431546712862 9.332247851535094 -0.7588888659676737 0.2506061964614845 -1.9765412116654861
Ni 4.774344351809035 7.46397820725428 3.2882632572880843 -0.2021704695576002 0.05809073349514512 0.17444780683135117
Ni 7.2861394864610975 5.822403615051949 5.984796830788382 0.3877948618310612 -2.357568929976043 -0.09037376189856694
Ni 0.29383400782037333 5.6528836372678235 2.463242149029065 -0.3751931139066506 0.001954552623209537 0.3639147127793539
Ni 9.148765598711716 5.010163036460648 9.586118394617994 0.019677680934585464 -0.49868037052973474 0.8704773142706427
Ni 3.5508005534343368 3.587648676830162 7.923438016181721 0.26162851571391715 -0.2739315014509863 0.8450635021832285
Ni 4.9783861825725815 3.4644028701691263 11.965126291869103 0.5483317150082749 0.4071503835395375 -0.22535256410101834
Ni 8.727868839731073 0.6186790613077329 1.31769075365103 1.2866952073290874 -1.2731511500960653 -0.9526680261377851
Ni 2.4459523767861904 7.05648076587212 7.061509232004217 -1.2211449322321033 0.1710567788719312 -1.6177509645968915
Ni 5.821380056068731 0.625753714898098 6.5841929713604666 0.1955802179345922 -0.5513339921697086 0.08815104321563529
Ni 4.235031123551809 2.5827463823523575 5.944307628936803 1.3146122454543296 -0.5258039662194042 -1.0065907442981696
Ni 6.761500371990543 6.473368518214857 10.608599849378473 -0.6087125300891775 -1.312279997776727 0.44599923808593506
Ni 4.823233250880162 1.1276735419738937 10.67311291107433 -1.9528924618982948 0.057445129491346225 0.5284743139627157
Ni 0.6232366903075497 1.472305851623178 10.135314550112266 0.27439892800570803 -1.5690288168008397 0.025435923574601355
Ni 1.2330442867552878 6.828524875227949 9.432795772489202 1.7369861308118408 0.9265317340620496 0.7756100353770966
Ni 2.735172925116753 2.7896262630239166 10.437164885787565 1.5429092368956525 -0.9861085651844178 0.95351777573259
Ni 8.872544249468014 6.219823652990253 11.735061869719505 0.9178565748855547 0.38533791565013636 -0.3947558665299266
Ni 7.767044717103274 5.09195470430138 1.0067875040232575 0.17686310114106316 0.1695244013878048 -0.721249458348345
Ni 6.161918129785146 3.214970851040722 7.372497157875146 0.9001874397405659 1.2802450808283694 -0.047586491529711596
Ni 0.03043320009555171 1.0779471855528613 12.562725621171559 0.3893555214499617 -0.26488327520578897 -0.16291846603551297
Ni 7.292541382647038 4.168034535559401 11.66338575615746 0.9788490554085272 0.48365252966233474 0.15588392778623478
Ni 3.060041241308277 1.7817556474947818 4.037794099010324 -0.5647703201802725 0.287467331153892 -0.9611084435956543
Ni 6.665909268039708 7.601172331332069 7.7197395429316344 0.293937512259268 0.11373711921485574 -0.7835588579105279
Ni 4.084242275160561 8.392495086339073 7.802202107160458 1.8378530789322478 0.11064613899435785 0.7139806926010737
Ni 6.608878422511169 8.702010017782337 2.107706144684016 0.10272482726475211 -0.00921791905384219 -0.16592537118263684
P 2.6935140744998063 6.969580608196966 12.652228410188584 3.204066079282004 -3.1501019663607237 1.261291679654318
P 4.8415363465164205 9.224062319549851 0.8221923634326733 -0.17185124974876856 -0.839024237967684 0.10566925460505672
P 4.399582187726497 7.33122260713099 5.664016236972562 -0.5079535683015445 -0.426632146413233 1.2310058841865832
P 1.4528675360237135 4.9108592049252335 4.205225085960519 0.38114238951155005 -0.8614648263593873 -1.0364808469893825
P 7.457176192556719 2.5046581370145384 1.5011599793600752 0.26353678848022355 1.349274058502573 0.9470249689193948
P 8.57236231493536 7.192400093761719 1.2711718588801342 0.34221537342904934 0.5327174055097859 1.8368716888555847
P 4.060225859381616 4.822572590081903 10.503379846920062 -0.3080448981949276 0.19653435431774538 0.3252103542306206
P 6.086174765027062 5.64826831676168 12.927208461538093 -0.44968337180574164 -1.6447601461958836 -0.1795535034890327
Ni 0.869142083484687 2.614271999035452 4.5068167403655135 -1.7509636760378553 -1.8948156123602207 -0.664884449295055
Ni 9.32015589791063 3.038499977252384 0.4381307007335235 -2.666851300122498 -0.5446689214447071 0.3412175282921543
Ni 6.745337445137374 1.0109040721521245 9.642663514883587 0.9191634666224363 -0.8868339012517952 -1.8257460112560686
Ni 8.79277178434872 8.288920222319144 3.3711343146020276 0.5041930728178479 -0.392507436815382 -0.8448310744574482
Ni 8.677574873328439 0.26181336079266815 5.366061938990655 -0.3187386304633478 1.230853674879435 0.5219159440189075
Ni 5.53620721826271 3.721465056263333 9.601806762306216 0.4604580938237425 -0.47152797848465894 -0.4223833984392081
Ni 1.9910455443177344 2.9237497101520526 13.03024921387042 0.3277418624032227 1.0630645110151822 -0.82691948428435
Ni 3.9617594851961058 7.16217718851181 1.0879752720638918 0.051491225900756485 1.1024286146351014 -1.2535567729039057
Ni 6.659609727752088 8.859498524972826 11.479448484840635 1.1478777481068358 0.43432977216780677 -0.41265331563563773
Ni 3.745360505980625 3.830343816832663 3.1288123083743176 0.8287678503469985 -0.7439823811694865 0.021562299551808026
Ni 3.5805302893559685 5.72843159531093 4.46157450279914 0.14805594710138373 -0.9204850136473373 1.06244436093268
Ni 1.917433043261075 0.7537665148964265 0.7815477667172787 -0.6825150178926246 1.1118967020265365 -1.1116215939882792
Ni 4.275629194858876 1.5901640159998236 13.062444796433436 -0.46213908107059115 -0.7141005060083896 1.3507629843432736
Ni 7.252250379034938 6.137650476801229 3.3622274904317035 -0.5008113008298085 0.19850099112581296 -0.6779001448284325
Ni 6.786130923159418 1.1152884782769636 13.697100682961025 -1.0956154483680098 -0.6319252207602148 -1.518028928714205
Ni 2.104995574394823 4.871870912746317 11.269894323698379 -0.5092961983723681 2.0039221747816005 0.12361709733272903
Ni 1.7936661520267654 8.16677241529465 11.390966463282327 -2.9376293435461664 3.1055303503979355 -0.1983546953559358
Ni 2.9850888084917693 9.117053880395309 2.51049986728421 1.2155885211902486 -0.6632109182473739 0.5880521735263485
Ni 1.5696649210904798 8.700000120142565 5.3149500559096134 0.3287620761376209 0.2965350977831151 -0.7899429070600008
Ni 7.336238046148755 2.2564171683393326 5.587818784229195 0.06003114505096758 0.3837320046155972 -1.5931550204250822
Ni 4.6825683313411 8.30839575824527 12.29064596377722 -1.3628649098131302 -0.18266402409355637 1.2512222112334581
Ni 5.2288975911741975 5.720205903118528 7.184134389718156 0.2056250037651039 -0.15949709905878984 -0.606072264252853
Ni 9.202102326819006 6.535600904394473 7.6852288560502116 -1.7289907713111898 -0.07264446293960393 -0.9479297401218514
Ni 1.4273995275049327 3.308673023413438 2.238379267530543 0.03355906690236801 -0.03320091223200088 0.5914195473366847
P 4.911780408010129 1.73302493481197 8.225178551893364 -1.214831845529882 -0.4662662158650874 0.815532325493331
P 0.6237949952074865 2.0061011664526953 6.719769872244772 0.42491773482528755 -1.4087634721174578 0.08288336705879275
P 1.5217623606759072 5.19139811206178 7.693263794068469 0.9923218930839813 -1.3777955629810335 0.4585205104813974
P 4.883660451216649 5.513316717365304 2.3033557222933476 0.7322998026252355 0.2559723458694043 0.2699907716356834
P 3.253010024889745 3.1895400628486037 1.054918969446804 1.8357298619416578 -0.5543938620419548 0.990889531512829
P 8.821254639327158 8.48901669845647 11.670508796172486 0.016929685875803104 -0.4742988563615767 0.5538873547191816
P 8.266401924688362 7.663441937838346 6.157797839623613 -0.19973280665038506 2.747171020219172 0.20992054581666428
P 7.412697902195092 5.075345133528263 8.240418414645305 -0.6916799722213443 -0.21025067546257337 0.10687253088453853
