# total energy = -340874.46727910085 ev
CRYSTAL
PRIMVEC
9.18507579022295 0.00000000000000 0.00000000000000

0.00000000000000 9.18507579022295 0.00000000000000

0.00000000000000 0.00000000000000 13.44328686067774

PRIMCOORD
 96 1
Ni 0.4125825880851028 4.732711401892262 10.883550762921498 3.1277745065081164 0.35498964237558217 -0.9275100388149188
Ni 3.8869220562587965 2.6441353593556105 12.96967990123395 0.3605995323631919 0.689722077164025 -1.298851640185963
Ni 0.8209749445370269 0.6928964089399876 10.699673809638362 -0.761224713189702 -1.9797476344179257 0.7051353263953017
Ni 1.295013038565294 4.870202803288691 2.3761010664937037 -0.6621012301229628 0.25339892871527325 0.17214101307504548
Ni 2.474211454897468 0.9743436681629879 9.094289707788517 1.182142839937293 -0.36617214135496295 -1.9183404349550381
Ni 0.6378199382209412 6.207017122350688 12.80595408600437 -0.16722403538940234 0.9114601844409077 -1.012360042681779
Ni 8.405657929596632 6.07735140563525 8.687468917825932 0.8647339840289623 -0.54788974237485 1.4216205305857839
Ni 1.5769673139788938 1.6645470128442117 12.801288985946298 -1.0781355464156916 0.22949563973511444 0.8031015559291458
Ni 4.30742401679924 2.8072531225595103 10.395115980901464 0.0600789675697675 -1.1247799857471081 -0.3151257163011089
Ni 7.58724929527072 6.255973576986466 0.42322166151936585 0.7789175024837747 -0.19549177198584397 0.024552492528383523
Ni 5.5910934866074635 8.605515996467158 8.413964912255656 0.654223627147099 0.8545233620445477 -1.3984906294365398
Ni 0.9671884940239126 7.138025602338891 1.4267490713923459 -0.27053044618923733 1.0991031498062942 0.8216258399855785
Ni 7.591612206331131 4.923127210720465 6.078126626042616 -0.7728844089158173 -1.048508210467562 0.5729482280053746
Ni 2.568826921914945 8.18277287740305 12.311899874538526 -0.7605109749521288 1.3171620084593767 -0.6640938350729596
Ni 7.060870964638978 7.076568259380543 7.105785067363835 -1.4894007234545512 0.9110392948534052 -0.26495963696967917
Ni 2.292236730836673 6.578424852116603 9.54474695641595 -0.4918209244057401 -1.2305677682079001 1.2070532300257277
Ni 6.903934757526987 1.8870554769252115 2.8242602091267917 -0.748914271253465 -0.08238508726613554 0.07367393264538279
Ni 4.153803622093164 1.486053432555829 3.3349972739800586 1.529013966970799 0.531642170167736 0.724758757053184
Ni 3.186440611626834 8.221157309658757 1.4432179125109106 -0.11439583584477717 -0.31381805323327894 -0.176062973837271
Ni 6.321307021981643 1.9395206305611525 9.154596160734506 0.620884389565021 -0.5648425681791047 -0.2741297335047215
Ni 3.816481709053959 0.44853481223807906 6.569519002507814 -1.6151294678136443 -0.09371851000108375 0.4591190632973448
Ni 6.145091340520591 0.2927173473727376 6.075451931935686 -0.2986336321833567 -0.11817972836724162 0.05216639759091016
Ni 2.6027382221992403 3.117249434746662 7.383739242215732 -0.532085942573374 -0.07337208513424784 2.5377497826364297
Ni 6.913138203595477 3.7780421663427526 0.681198296252534 1.7845232571608558 -0.1904655224158462 0.02595811462665852
P 1.4221344892518177 9.170085872760357 6.9590250058599095 0.8027223182128563 -1.678606148211051 0.18920876719060964
P 7.7485667835949545 2.9720241994284082 7.614923010500013 0.16974937291441733 -0.9562215478169983 0.7229142476452775
P 2.9691860109701618 1.1522034782131212 11.225642485884219 1.4158538033053358 -0.7381277221609224 0.6828461759797982
P 1.1812375031856719 4.6861430669948145 8.918585635056022 1.267297519528766 0.1181362767238159 0.48929198733629925
P 5.664454687953798 2.0020434423258324 0.6659317815714596 -0.15664111766723346 -0.23964172703018083 0.6500682102178289
P 2.8756727530626836 3.608779587350609 1.407041572505568 0.5466736105795617 0.27759789455898 -0.4195551849617935
P 4.1768581626439705 7.664578449413049 9.748695137592165 0.5296379952535136 0.3769188383485057 1.9380078314769784
P 9.023271619308522 1.7467993676778695 3.9085547470577056 -0.19937465198001791 -0.7430670684440687 1.169738038515037
Ni 7.780944176201168 0.4329697825897132 7.65292718061277 -0.5982273142871375 -0.2707358773318241 2.3364416610791245
Ni 4.513362603926592 7.090079506053945 3.3424445335332837 0.9228717687119591 2.043169036097365 0.34736015085478245
Ni 3.080463205700453 1.4469525643786232 1.3179050032723767 -0.4714567589270912 -1.0942514781409476 -0.11514891196071782
Ni 5.363955744264469 7.052907503819237 0.897629914107074 -0.2061158273585934 1.3067510975386978 0.041029921358116436
Ni 3.444394283670211 5.448660514367874 4.944548644773291 -0.6295490072185546 -0.0538818376201201 -0.21682190092218787
Ni 5.732286473598305 -0.015424497986840991 2.0198266678080707 -1.1574054850916131 0.30387431175700574 -1.1308261919411882
Ni 1.829639567370193 4.2888609783716785 12.968833037234436 0.26832161146337663 -1.4166071365315926 1.0538424781962819
Ni 0.2105540877754716 8.191957953319706 3.9203180737841676 -0.5505125247096777 -2.726928725030368 -0.09743349695882575
Ni 2.354667691842186 5.638690550007577 7.057282355478341 -1.022595090146226 -1.5699161045017995 0.43490801326878
Ni 0.1751107168282781 6.866018764143031 6.748691359906438 0.849227403752931 1.1726786092005999 0.10211470448457897
Ni 8.783697284174373 9.35665313477948 5.681979812802778 -0.11344889855047559 0.40153175180117945 -0.5930953923772109
Ni 5.4856396300083325 0.25067174385665153 10.568453978077825 -1.498044258062162 -0.2633894642690819 1.2390197556299953
Ni 5.107379833608591 6.917078601163723 11.739215902180552 -0.4805486939260305 0.4059985293232814 -0.6061758797102528
Ni 7.704836637155754 7.3729706592110436 11.631440976897279 -0.6113278562248374 -1.689368014713245 -1.0540589650824619
Ni 1.9131502776044322 0.27180844055606107 3.5962943136570984 2.0955876589083973 0.5406060642292431 -1.3035711571488195
Ni 4.917129356146888 7.312395083540695 5.738683878974257 0.49059579374938733 0.199764688329585 0.40189993377387556
Ni 3.136767721069557 4.793718676130694 11.172177995988546 1.250888482043123 0.965360534003789 0.24793919115228272
Ni 6.616983800814727 8.525991609180746 3.9837437785114544 0.7063992807093898 -1.1318654318389798 1.2092484379048336
Ni -0.04928160632322793 8.736550289494177 12.871033104396654 3.127617154994646 -0.5542107994968714 1.958445016285408
Ni 1.8432610349545941 2.847511310302215 10.4662176535723 0.5184701515621523 1.5503939753084717 -0.0785482300185486
Ni 5.177397667321262 4.977328343704653 13.290181184746983 -1.0382433382064442 -0.3816499252755879 -0.8296217137068616
Ni 8.224316975774085 9.081027376672457 2.2804651375418863 0.5487104385039324 0.04471919728424557 -1.6284904625015826
Ni 1.5471984829330105 1.695059835039344 5.470422714737207 0.042467425135591375 0.582446654414113 -0.2608548707726862
Ni 0.5095962784244187 1.7177653427053186 7.696806125281821 0.21697591000154892 0.7403345000042539 0.14723267986914
P -0.07958776431023551 4.462514023651982 0.6608092647327404 -0.5909104689107502 0.8246648839222185 0.0091685538731455
P 3.3878693264791075 6.464814648103482 13.092753488964005 0.1499855600239288 -1.29878941948946 1.2150095087583268
P 1.796389592551897 3.957408328843217 5.2464850528435765 0.46182592070554657 -0.6513671315349104 0.21742508172382555
P 5.776172766328089 3.1320006666688123 4.197653174519281 -1.3376405880287028 -0.9690048156245956 1.96436420998332
P 1.1129832040489986 0.3047984777259157 1.2307964988015827 0.6239946530592286 -0.08531794464221436 0.2130009845142009
P 2.3067491507849898 6.9326840451461225 3.226321292749364 -1.113444506129631 -0.019605947156385587 0.5878400575155424
P 4.420501486409196 1.8227232052049507 8.147922862360073 -0.41483001157198235 0.19002740643716304 0.34373772361084676
P 7.799433734021397 8.756968713256905 9.742269258480873 -1.0726801797280752 -0.02276506161065757 -0.678692815933057
Ni 9.071254455897135 2.696352515941802 2.014490138700493 1.2090661466906985 0.5157337264675956 -0.11475810428020237
Ni 7.538320395862692 0.49820311025739816 11.718661539294258 -2.1230328996035435 0.864919360566891 -1.4942248843160717
Ni 5.211143636239058 4.0022223142405835 2.317178804488353 -1.099429165687145 -1.8327170432572628 -0.4245135574083334
Ni 5.642952425232906 3.4240217852870667 7.257009075763257 -0.6520291905989416 0.72957726148775 -1.1830095588129625
Ni 3.7316299777358877 2.918897720326468 5.537464583852882 2.1653499152042 -0.38570018408556156 -2.120175889770723
Ni 0.36809834691314447 4.086265758877989 7.1238530301994905 -0.0590312430315435 0.38745007689713273 -1.495703268633811
Ni 5.039915451000749 0.07745774520516291 13.08355830946384 -0.07460055822471023 0.4141088171352416 -0.5659332301401221
Ni 7.6553015227372265 4.823744689302243 11.485420314004644 -2.1926758567126625 1.0417508371390705 1.9396476810732466
Ni 5.750693365735284 5.288941229253137 4.368637955245796 0.8279553817480322 0.4963640636917323 0.4818558427732283
Ni 2.1253898268106104 7.618193816033934 5.436949542574138 1.1500621573526644 0.7477716730085896 0.13113551719696126
Ni 3.6002374667481187 5.657005591385389 1.9162732034160956 -1.0017341875368166 -0.6034939620027154 -1.7172930232582875
Ni 7.750247652487702 3.925875963221336 3.684509619775849 1.0039592202125935 0.9859602125320116 0.02101002659276382
Ni 7.8514763741651725 1.5110276539732177 0.4780997345986125 -0.2179004786983473 -0.30087306303683664 -1.2673232305603788
Ni 8.32701530959822 6.313169044719485 2.8694967080163236 -0.16535792871494104 -0.02980397073530996 0.3016009423417967
Ni 6.985443121211396 4.3475903537827785 9.143962598345794 -0.15139812410073925 -1.2991848551556657 0.7281261308635202
Ni 8.86927463648986 2.4731551711670527 9.76286495420879 -2.234565812078229 1.363180641281336 -0.41627240044546376
Ni 5.910293244863105 6.373441512884584 9.37284826063573 0.7881431348471007 0.8667062772639847 0.4813963866383064
Ni 2.1689087165037284 2.7359218229907576 3.238568672976634 -1.059275733396711 0.3974442119953671 1.2974354765647267
Ni 3.5687326563539874 7.3248133061800145 7.803263910678643 0.9185412596574051 1.1963540984406686 -1.624868292367963
Ni 6.450991108848914 2.7415614596035844 11.494816646667383 0.5437561798224506 -1.2321901343026715 1.110109528219127
Ni 7.3426690937619945 2.3339094202705426 5.5877831852471 0.5408120095924621 -0.3884615488807826 -0.6600893418992567
Ni 4.313587202739317 4.695943542997886 8.97292362567137 -0.5799254306541561 0.32425981739189313 -0.8994582748840251
Ni 0.6679727054401406 5.698191471795677 4.751019095209341 0.4000523390421755 -0.34369272930552425 -0.7896937671636722
Ni 0.6228078501427582 8.051830435135196 8.934609918500222 -0.680414426609854 1.650297273964029 -1.1797162327736714
P 4.427583179940939 9.016511403433862 4.58348882153508 0.17840370615530565 0.35336161985385595 -0.7884732644930098
P 4.909808850641313 5.575552338156481 6.923441103251191 -0.14347398415765614 -0.9487697195246435 0.5201735074065043
P 7.850282314296008 6.7397147852130885 5.072972539224796 -0.0179324161087046 1.3719732998723015 -0.8528907115371311
P 0.6715548850476366 7.47714779025776 11.002792336979121 0.5186688978365197 -0.14956441332611017 0.4023958995736877
P 7.117395921830081 8.541440906872564 0.2754659377860736 -1.1226930213110922 -1.084624753684461 0.08207578355583284
P 6.399251576210388 5.713209070919409 2.2540626368194574 -0.4080330432548069 0.3621643057471504 -0.6225442937659472
P 5.5799703596723935 4.64544399560811 11.157282558374506 -1.8255395516722175 0.7842479135577526 -1.581866077774824
P 8.707745891419544 2.2426281358108118 11.930326102748054 0.6214952836761425 1.0331975482524205 0.05095746488447352
