# total energy = -340860.1037363856 ev
CRYSTAL
PRIMVEC
9.39317892814144 0.00000000000000 0.00000000000000

0.00000000000000 9.39317892814144 0.00000000000000

0.00000000000000 0.00000000000000 13.74786683841147

PRIMCOORD
 96 1
Ni 9.094532351358723 2.612487326823006 7.514721740209887 0.6220508990692964 -0.7605917075913933 1.0573980567580241
Ni 1.0048071533222735 4.219312721026799 6.100121180801488 -0.050217501394655445 -0.4043417104461488 -0.17579506488786498
Ni 7.3014683953918444 5.75280556609636 2.5601551081741603 1.2540463109458144 -2.773934147245629 -1.7225748404825172
Ni 7.561960037839712 0.3046790355101515 0.7357940188064446 0.130249257937266 -0.17452622547777039 0.2135648274374709
Ni 1.3855784539824931 8.616889194771598 5.696868245313824 -0.4618796567616174 -0.20752813432508774 0.8595257003551455
Ni 1.5099723246350645 2.1135967991405047 9.181403289511419 -1.6270925537127914 -1.099424794811771 0.20898029339058202
Ni 4.020365187958652 4.062174228076042 3.4962473992014993 -2.4024110259913978 1.0169630886714291 -3.0597791123047497
Ni 3.9446843440526065 1.3708687355318454 8.382184646871984 -1.4246968555182624 -1.4336566358147116 0.4439408128950096
Ni 7.849720079177892 6.655630974068262 11.363670803005148 -1.2774402643897225 -0.5994308476769353 1.5302941192348032
Ni 6.924848879888193 4.769828160972877 5.098231548903718 0.8138569946734371 0.4132919776609011 0.7233546776168058
Ni 1.7833514087906515 1.0740630627326344 11.661944629695698 -0.82060896868529 0.9602149852471076 0.02583033079954261
Ni 5.125801468842732 2.3398315174571382 9.864493119777162 5.642451466485483 0.4911336685307283 1.7663075054837776
Ni 1.0306571821704105 3.8717557016191275 10.928577808365402 0.5431118613702324 -1.0222549331979878 0.5610671602970725
Ni 4.671472182750187 8.371257561639776 9.357403286069392 1.239252954686724 -1.4371957593162217 -1.455041529248391
Ni 5.021076915198882 7.487124580051519 2.4502962428412136 0.9628439382295226 1.9293018190625484 2.825575782681321
Ni 6.704888805201849 4.308256733804055 9.771543855437098 -0.02180989678623986 -0.4386574530088832 -0.26212730972720666
Ni 5.323997547583898 5.042108243175255 7.369379201556909 0.1262365372334471 0.20615645078854172 0.48105931501386184
Ni 6.299188007244044 6.991934964929397 0.6215222379383035 0.9437563254704521 -0.10694606443495129 -1.7151924319755172
Ni 3.1019189231646385 0.14207559096642783 13.594482266021831 -0.573164972001871 2.1552094843360883 -0.81834562657241
Ni 7.094273651085085 7.9116305225420165 7.382041206966535 -1.254335302941143 -1.2278218300316468 0.185010669948862
Ni 8.77801978883444 0.3027027106301922 4.209514695920879 0.05853939099678951 -0.34735500864845986 0.4206314487451078
Ni 3.0844382168832496 6.224390122172199 3.177434447118749 -0.9057639053870787 -0.6602088981962565 -0.9213800146577811
Ni 2.0084683387959017 2.1314626257644713 2.6787580839194365 -0.023978108082152255 -0.07712666708067362 1.4186061692394925
Ni 8.508576446716416 5.6210474430393775 0.3805496216337602 -0.4568505789781422 -0.6849861051409365 -0.3835661684616942
P 3.24121976902869 2.6132481743290743 10.112876015063645 -2.838046661454822 1.3246621734911639 3.003998000779388
P 9.133457685496323 5.408592518443752 10.325679426603406 0.291726106430246 0.2659340850678065 -0.685837140287322
P 2.023751041170872 2.285398044646472 14.395528821311649 0.4002315449325172 0.04001716382288592 -2.7748021516728794
P 0.3866476734972088 7.709339017718806 3.764935529720909 -0.5271267987958858 -0.02315252685706335 -0.36477191857332664
P 6.246576811176306 6.501338614380946 4.047688067287671 -0.825351625576598 1.4046839027314455 1.995747866500924
P 8.56873975877031 7.753064266369997 0.21415602932832747 -0.05986479467643239 0.4026553238826614 -0.18155510730009378
P 6.1835861522171465 0.28442734139802106 10.118897982176486 -1.344519574536723 1.4480704972471965 0.3125949794594552
P 2.7295639109666032 5.670746753590065 6.711914903159118 0.635268426200835 0.9529313071015008 0.598098244908441
Ni 8.213893632390926 2.861162349979102 0.3740598742023729 -0.7596835939548271 -0.9215173115665937 -0.09135952285060395
Ni 3.6123067020499455 8.252349307574164 4.289609394680028 0.08625459752387081 1.7335156557647369 0.5702704240628953
Ni 7.789904314750228 2.208449121563646 9.909627345291442 -0.3518973766035036 0.35621425881130264 0.3113413095580122
Ni 6.119665568528349 1.1095974592197353 2.906285303678477 0.28533974328792794 0.13094885510745188 -0.013232182419557856
Ni 1.702222521013995 6.429368076214367 5.033190358949811 0.2726796313217562 -0.6058737750888017 -0.3807135295042475
Ni 3.5918201784606336 -0.07484766892100617 10.9513449958371 0.5265308170830997 0.643770293024259 1.6195401952868302
Ni 4.2671991480136455 2.2518643953049575 1.3317010573737926 0.6974294731106118 0.014397663482568752 -0.042642517260874944
Ni 5.299547102419763 4.619452756964947 0.6366236519568899 0.4625049490504422 0.37655991234719016 0.33916630219008037
Ni 8.919931938484751 6.880851229043472 8.591124643853156 -0.16936447877117286 -1.1591836600379584 -0.04765436865316954
Ni 2.7194474570896254 7.384335021299644 0.13128846410261955 -0.3061669644459243 -1.8470067204070577 -0.17926168328022676
Ni 2.1921143831309027 8.541640437103567 2.455602449707606 -0.1332566773050221 0.47828586603378276 -0.32563895712760693
Ni 8.464513043618084 2.768554997357815 4.167061283718103 -0.5287450511255991 -0.11689649077944383 0.03426200650666358
Ni 3.7142414815048808 3.7791483489978406 5.637849022472758 -0.7025171720461643 0.3373505891375803 1.0935709071341553
Ni 4.5588479654939515 6.898519798906606 11.816635260176314 -0.7210304003590033 -0.31962437550241085 -0.46880775134001834
Ni 5.991608358031747 3.062683614117158 13.03083328307595 2.0287418049284414 -0.8603746786190021 -0.864191481261931
Ni 6.616555349065265 6.416320950462164 9.122782337463653 -0.08538710731725295 1.1411903087843314 -0.1113904733595501
Ni 0.7055066521574866 0.5446296739300011 0.5726204082921242 -0.09777442523801226 -0.1544410246921211 0.3319664420075315
Ni 0.7282259344158399 6.2521845390914 12.263661349528515 -0.4111715888837887 0.5410652632538488 0.10073016543222651
Ni 6.236507323194764 8.419406997641065 12.188845617416407 -0.4873418055884639 0.2918178948131039 0.2853106898222054
Ni 5.660170033937812 3.0537225212679124 4.301198699037888 2.183031391644363 -1.5830382437060544 0.4615981209654566
Ni 0.7974151522546813 4.5539447260104025 8.527637085720281 -2.2092034220540406 0.9669962698349992 0.3900337784639089
Ni 7.363472770546841 1.86916749293185 6.23869969119373 -1.125676015198816 -0.4066479899818223 -1.4735120772487527
Ni 2.3481069082330137 0.9540370203556385 4.7322357189477575 0.44198523183053556 1.1092284111657542 -0.3749655712768768
Ni 0.9756413322563342 8.452884287908057 9.98047070196755 -0.4339340793912849 0.7918673777762233 -1.1997806076237143
P 0.39754000396679434 1.7640672121245087 5.627442319361984 -0.032162957885789774 -0.37063943309769715 0.34141910277999915
P 4.887308651817225 2.9135950756441824 7.154087536876933 1.1198576087448262 -0.876390080210652 -0.08071566998351261
P 3.930406711839973 0.6592856358228111 2.7766838545399293 -0.2857452062564627 -0.7216551784271958 0.9730591881996273
P 8.095210814623407 4.532331020930619 7.78141663812698 -1.2006972059007128 0.9102149991798969 -0.13670889751968068
P 9.287430677094674 2.1556124891978143 11.73111036458682 -0.8979413240188665 -0.07448357303087172 0.6128754032176155
P 6.116387349026895 5.240933664915266 12.41912222069429 1.2113500576288685 1.3291698315535303 0.025193211436175967
P 6.305039957815406 9.115047054485295 5.878134058068114 1.0289143474960345 -0.3166290403195128 -0.9000822816212691
P 6.366349237717945 3.3713528721035764 2.000067079420257 0.4275492589108637 -1.1275963721499809 0.8213407046449919
Ni 8.82507961606161 9.182180105421935 6.9656180950806235 0.9737580140388649 1.37761250043595 0.2144480013733726
Ni 7.614956354250028 8.040786734991828 2.7188059029579654 0.06334915368060702 0.43753696625119487 -0.048464266148974595
Ni 2.7464528469654947 5.0976688974763915 12.132574838776272 -1.6723822787885263 0.5769578633853999 2.584421989881988
Ni 5.079840643568773 9.20961758153582 0.9448345228038508 1.029617544210646 0.4555675985006606 -0.46299705819551235
Ni 1.6769548692692682 7.333048263483209 7.971879312525605 1.3373708793070838 0.22207183646721754 -1.105996534492018
Ni 4.509956468344768 4.501775009359766 11.247899870754681 2.0168203709005073 -0.9898217523699469 -2.49965683241945
Ni 4.695913234735235 0.9531258819841744 5.532032042101058 -0.7618795731648814 1.2013188986451118 -0.5012882404662269
Ni 4.416860670410944 6.41129559965048 5.259452317485797 0.3367520363216329 -1.5827101709426743 0.7180780025988988
Ni 3.7590469457511064 2.6209411880015394 12.603467117553382 -3.0039198392432844 0.7024834905947515 -0.6008701512266232
Ni 8.803869817682578 6.66790785913531 5.7063544168740465 -0.5368280852440497 0.4405454140602154 0.4804491922336887
Ni 0.8401531777838013 6.57462419761974 1.861515809247369 -0.6012578735833451 0.06454137421649529 0.0358306365453641
Ni 7.842308860878045 8.48327122225534 10.02642964860569 0.6222316476215348 0.13196958306248238 -0.5438104300991538
Ni 2.9572545720417622 4.252611540891133 1.0165486271813473 -0.7481807355215502 1.1518891832590743 0.23056778975337067
Ni 0.8818513783879615 4.055758686759445 13.515527899203878 0.03394678925908992 -0.47495423055738845 -0.33660471211049126
Ni 2.3867504469979974 2.1420205590585506 7.0286106326756 -2.208812614373525 0.09322382975285236 -4.207308990153863
Ni 2.8295543023504752 4.0343516316195815 8.01869115982487 2.7757197783911423 0.47736463977109406 1.2232918033717772
Ni 0.07512758565780649 3.708060769665464 2.1527231473105735 0.8255418872105331 -0.31059106165554895 -0.7827777567701293
Ni 7.3531308803717685 0.9931032521795488 12.000430656058803 -0.2134604406491227 2.13421437014166 0.12257374366987922
Ni 9.269095191516342 5.004930040347883 3.962919322614703 -1.2455493292183968 2.0473002846569197 0.7042392969435936
Ni 7.965782199980065 4.064193761579803 11.851224702847238 0.6302411481895727 0.1861095594399956 0.09254120186353094
Ni 4.1430682863755175 8.225804183473569 7.047032535501533 -0.3741456464787427 0.15552474467460312 -0.7435627771335646
Ni 2.3857265904774865 5.660113674863288 9.897832330311571 0.695982199141124 1.1393573693406507 -0.30972742810367304
Ni 5.862480325119197 0.675892776449085 7.71412108519213 1.767578658886717 0.011905750298650463 1.3131480022039772
Ni 9.209974522341136 8.984726087828664 12.109794500853852 0.4586040713341392 -1.1112724381789765 0.9327517468298323
P 2.389944127887665 9.580666941840725 7.647663403831864 -1.1358593834897213 -3.387260264847418 -0.2459062198826539
P 1.7058764676789389 4.099427576336112 4.0224748959816505 2.133842074403906 -0.24612424943073097 -1.13246578442714
P 8.955738737165381 0.712383398567269 9.08991090724779 1.711105406390337 -0.56677680908734 -1.60388012015207
P 4.1547158284437185 6.139842117207782 1.3162802752662395 -2.339911879015912 -0.17163579130385279 -1.3424572926910556
P 5.148946262113738 1.149509077161499 12.767602589606238 0.8683098743056786 -3.135971440496612 0.8755531861316536
P 8.980405225448525 1.4266078602356407 2.354225625090454 -0.5156401383125249 0.28097812388512255 -0.9227110747643786
P 2.0771888369982885 7.8411628930293995 11.616178243228847 1.4574362547328126 0.13961167298877245 1.650113697198313
P 4.549802334032921 6.175893138544682 9.448661778173747 -0.9813157717814647 -0.6736488257512464 0.4806394538676238
