# total energy = -340852.4958971388 ev
CRYSTAL
PRIMVEC
9.55155370657495 0.00000000000000 0.00000000000000

0.00000000000000 9.55155370657495 0.00000000000000

0.00000000000000 0.00000000000000 13.97966433541881

PRIMCOORD
 96 1
Ni 2.1523376015818063 6.942021608073387 1.0556253186884612 1.4580664321176435 -0.5075707310408291 1.4742571829448932
Ni 7.53282342226552 6.001365478069351 6.700760818725629 -0.9593675496451477 -0.3306109564209016 0.24572932798515743
Ni 4.913768243051383 4.82441345642857 6.098180983434127 -0.48789279299592747 -0.417642541320113 0.30448983385381756
Ni 8.674988684645982 8.911532916683814 2.2868215700149293 -0.8184831805915389 -1.4305306885912201 0.21200776736299615
Ni 3.0064375502522322 3.8084146693555088 2.784232110911156 -0.5878878800343423 0.4681734601901292 0.8129733065169032
Ni 3.548488233399701 1.553483827462038 2.5855951307888705 2.274159000989819 -0.36185551625748 -0.41041362767184153
Ni 7.925946277190339 6.733797733313654 12.403946842672877 -0.40914813069585665 0.02731437154423683 1.8533730289447174
Ni 2.831844696732363 6.601059788931269 7.556623984243791 -0.5427657908847233 -1.2575381261491567 -1.6481822845035552
Ni 8.098991778980343 6.657203822685292 3.154566868569839 -0.9270984051987969 -0.8265736709091571 -0.28289590973312567
Ni 3.0663353446842634 8.554868342949725 3.5545257706123445 0.015662132017289155 0.0035954306607421946 0.06770588798740597
Ni 4.3905627757250585 0.008392950401439312 10.4307448136401 0.6696659298440982 -0.5210404833924897 0.9739917273162257
Ni 5.526127914368869 3.2783511863375563 0.8750608336777761 0.17416549970424197 -0.9912068056429316 -1.0998855364982736
Ni 6.290108952105439 0.44875588054583193 11.894737267258726 -1.952798873743224 0.6354376047888477 -0.3916286337548545
Ni 5.310367863591457 0.4661034127173285 4.940092325566879 0.4003387599343428 0.26313749615927584 -0.8325391444639726
Ni 9.087100028700267 1.53445713211702 2.2139451241598005 -2.150238770594374 1.6390430412064483 -0.29240822009893513
Ni 5.2504318629438735 2.590534239304387 7.151465216264625 -0.0030881520070204877 -0.3397190893697568 -0.2472884449421612
Ni 9.087644467271886 9.51464668383766 6.783492557882458 0.2867047419562546 0.08234780627029689 0.44121235822025306
Ni 6.844013113627992 1.381020970459206 0.11542670811566348 1.0031776048515626 0.48004270082388945 0.340187287255427
Ni 6.618338549914772 8.102554508580589 10.7010136721459 -0.02645562308836734 -0.6690192973990349 -1.0094251284231712
Ni 3.77865202744031 7.1275223361334215 11.037476709406741 1.393529942997155 0.1988185223662318 -1.2946077773079445
Ni 5.707817572427568 7.666124908327301 12.879604674744431 -0.6968975118665417 0.06852067057921749 -0.3413519969874895
Ni 3.550866570317828 8.678780651539542 6.464154501587522 -0.5783701703518943 -1.2663366982773934 -0.6558076838047673
Ni 7.211747938318345 5.351000173831269 1.2258741255000405 0.1525080693354664 0.4925256637822486 0.7736958490735191
Ni 1.3608958464170613 4.316108413167622 8.30450778821281 -0.4906065923826648 0.572665149547317 0.10107160793204528
P 4.727149983186444 6.97644540828596 1.9690776680639102 -0.17935809964877497 -0.5498170413045499 -0.03351201571451648
P 8.741477051260775 1.7124121326054869 9.912393445999689 0.003241646865749256 -0.3894043724100261 -0.5645438059917631
P 2.001489911027657 8.60253059685115 11.162049030370223 0.6928328548788648 -0.723025062191529 0.07089971233435531
P 7.65721330854974 0.31063850101369034 4.132976470471825 -0.6676455569799599 -1.371752185000431 0.5191604927609574
P 5.123701845957077 3.9919668804223796 8.762229712393365 0.05498406954536337 -1.8637011503436032 1.49025818635884
P 5.442207961908364 0.15659581568398456 7.074324956753865 -0.6171223514194275 1.5096579310416904 -0.9491790391479201
P 9.052638022272141 4.702822175433552 11.472719051511746 -0.042010282993514746 0.65054232164077 2.316862453395616
P 4.4164092805461515 5.9826921902181915 8.7666893329037 -0.7399879152981127 0.602909293143839 1.4416067438997238
Ni 3.6064661655002324 3.7147234772675173 13.155535694395073 -1.0871423778999922 1.1095408001998506 0.7840203709279787
Ni 1.4791154288895938 0.5896527622593992 9.286313922677392 -4.039606472466146 0.8533974759702205 0.39126482265753265
Ni 1.2611871753795911 3.7428910096834094 10.668455290407667 -1.094136035609006 0.029020555602066147 0.12336178678881336
Ni 7.018109286345681 2.4611966481061507 8.836112892028295 -1.0035712407455555 -0.5578172859012069 0.4837800563791346
Ni 0.27291081831123776 7.0442327862295295 6.446959794278234 -2.138944428627477 -2.73039200098862 -1.9854032900418064
Ni 4.70677651874321 1.8463058150083278 13.005897230563153 -0.0856241630287235 -1.943043851238989 0.16028591350867236
Ni 7.43306699345861 8.228529952810227 5.7247562980926565 -0.8530375215276406 -0.12037365069476688 -0.5765619134985619
Ni 8.659515167347323 6.5781456111538095 10.364522935378785 0.03369636381118068 -0.49740150381731113 -0.9924231945485359
Ni 0.4817822884245808 8.464185890336472 4.545921665180539 -0.41176139994898764 2.7577732212150505 0.9268790900991393
Ni 6.669878734694749 8.73095123887613 0.874327274339173 -0.41535065996214277 -1.277279570442142 0.34326798306327977
Ni 2.1164333105165847 1.1082381429700685 13.408819024621737 0.9408064988135088 -0.6866889467646561 0.05441816973956435
Ni 9.043134226153521 1.6716938583806824 4.884005601136184 0.7679556041556322 1.5303319144512741 -1.2725837076283697
Ni 2.8526384295466722 8.573178671753137 8.855907532305913 1.5851210943770122 -1.394570211336211 0.0637777565775934
Ni 6.652876968774001 5.708830037139704 9.284860176175627 -1.3973855692978192 -1.587752618462588 0.3569881608628497
Ni 2.4236876959877347 4.233869534191416 6.198835258306516 0.3998847031160597 -0.193720281907718 -1.3271330036291595
Ni 5.171440512289608 4.712698482153808 2.4486077000816864 0.26079265007618313 1.9430726475943954 1.5801390677813882
Ni 0.519867199242447 1.4435931999798945 11.538424190707719 1.0340275003528838 -0.6783907113116059 0.4070007453355507
Ni 7.547399093498701 4.39902545246988 13.196830882474718 -0.004485289464863243 -0.7408561768356788 -1.3595317316748392
Ni 0.9208280592878098 6.763951988938263 9.046115266121985 0.6125537582121385 -0.8244517394701479 0.9006882906363842
Ni 4.016027244666406 5.963254778055987 13.938410660877617 0.7863670167832845 -0.05026635235471987 0.43336740825453746
Ni 7.274721333102333 1.3655761078222113 6.299823837564985 -1.1389069120667932 -0.19074782954295538 0.5827143062532029
Ni 0.8261043442245187 8.00659004666724 13.593308243125025 -0.9739292495094066 2.0252145085014734 -1.2511268233061743
Ni 0.40379003030700655 5.7047801782911645 13.926164613637734 -1.0273374899272179 0.13245192201553965 -2.6265639133573604
Ni 8.120224883273503 4.564926391951614 4.4146384224553055 -0.43441667545465834 0.46474180880076094 -1.7376715869146395
P 2.714245965262554 2.251215287431015 11.534803196628754 0.5703642693282822 -0.05448758952491907 0.5580304303532776
P 5.924895737641534 6.2292942085001535 4.930208377603513 1.3862696618903159 0.8460055543815236 -0.9196131525653453
P 7.347924442100432 3.2024449875891348 2.119303552459947 -0.05292770123696691 0.642402723252771 0.4372397467257502
P 5.715172268921376 5.491045056938021 12.480862640667265 -0.2802859829141044 -0.015483440347579789 0.38483397943052433
P 2.127474906811183 7.050001924777917 5.386379129432647 1.520060614432253 0.3046962934376688 -1.2718550569924612
P 1.9764170820714964 4.709126200999673 1.0502535247818157 2.365483299727113 0.20320508146970165 -1.1019740435961858
P 9.54947164931353 1.2761831149838472 13.925493139399403 -0.7267228227580903 0.03817111175308265 -0.5517160580994757
P 0.9564735032426652 8.307798298527247 7.707869974595072 2.417763082967436 3.6272352068473017 3.0017925084876365
Ni 3.7687375145045023 6.27714749347934 3.9177169211181475 0.2025571634730576 -0.48052272578410143 0.5316195444599167
Ni 3.3034717730631575 1.7407611445452522 9.415513971499639 1.8064933336740436 2.1301844230466607 0.01564156319199887
Ni 1.390534318131715 1.2862791074435278 6.018790377827341 -1.8422157267763177 -0.5001770096799193 -0.13069997232143943
Ni 0.08302401670580493 4.738793327375991 1.8905123167130522 -2.051226102073887 -0.9684872525582288 3.2208299290039046
Ni 6.952432801811374 0.1258617807383703 8.520144623945068 0.060917147200346695 -0.7913194756925533 0.39274474963716877
Ni 6.386254893542662 3.112306973547502 4.828491969938773 -1.2437045627001742 -0.5078550950504672 -0.650332519622809
Ni 1.577744774337713 0.9532441228731117 3.235145687480301 -1.707528744782672 -0.5457500703240279 0.7277427793821725
Ni 8.747083813393067 9.01737368531742 9.913316126105276 0.9360288749192073 -0.1794516878038458 -0.04503287186992244
Ni 1.2745211446073246 2.6809874546243253 1.3222368872105226 1.6532417013043335 -2.0354670394674175 3.6383547137992305
Ni 3.426409823156392 4.2481777619157315 10.915154734539287 1.9386243820150548 0.8838853601464326 -1.0741511078466468
Ni 2.0791918019070343 6.0869760555680426 12.02817343023033 -1.350859914932454 -0.4711695667039757 0.6357276252254406
Ni 5.5039014484713515 2.6058835864025007 10.87420817817656 -0.32219933531843864 0.196901507849177 -0.814554534961094
Ni 1.0577581806716652 3.3151533234682558 13.366781680804989 -1.174620563418319 1.7976065727073753 -4.348156849542582
Ni 0.698718135485614 6.709164275836345 3.355245015758004 2.4202755649766443 -2.4035896196805315 -0.7037970671998525
Ni 6.30719668201118 7.992234061173484 3.48620637111721 -1.5005150882001579 0.21499076125072009 -0.184802667703114
Ni 8.591708686295977 4.073527599072533 9.510519457402628 1.209499120463059 -0.054811548523241084 0.1623610508701462
Ni 9.455684941686657 4.69200026487838 6.186714336422566 0.9930734265380252 -0.6595134147911286 1.4201557731147996
Ni 3.2048806338305904 8.232321919703788 13.17614126159779 0.41773278704107414 0.40439441806095516 -0.691901344203531
Ni 7.852609446437806 2.1825300634219675 12.029991090935228 0.0276756115383975 1.118595711313267 -0.45986648298633054
Ni 9.302735909277134 2.314647156801629 7.470145170496674 0.17952804956773596 0.1444216927829061 0.9419159298276036
Ni 3.446582704967977 1.3104636418880984 6.09338610338232 2.470992631715538 1.3735167331000215 0.506964722025714
Ni 8.271101228489316 9.403810452520597 12.479073634624033 1.590591887683596 -1.1700925936409785 1.1760727224838134
Ni 5.3273218717427655 7.848196628541523 7.9995973540657905 0.5526881922047577 -1.4713086418395305 1.120440992052122
Ni 6.222197403961324 0.9880222857349311 2.658121034616307 0.5471351235970126 1.187525187295129 -0.14243448714954826
P 1.205692647289956 8.493480506111156 2.17559945592079 0.8487008418254995 1.0363425216393054 0.7820110538074339
P 7.7416394933663115 3.908094685731315 7.546236669390524 0.2667825491110309 1.4048805921232839 -2.1738358411880236
P 4.885801293267139 0.5868541569701973 1.0062342335332972 -0.7603379397093744 0.3495237341650045 -1.2421860691731186
P 4.0593148868870985 2.683289379111348 4.600553687954082 0.9763671695269378 0.7517357998626601 -0.9280661684287049
P 7.575786311654019 7.357485547542382 8.553052592555604 0.9780743820260317 2.4866017990077047 -0.6557955996199093
P 0.616723776288942 3.6622758948681735 4.384427812662756 0.35891494557191733 -0.34544802143373404 -0.30012512912721856
P 2.234041593540281 2.4789434352301685 7.6436472365625265 -0.7056320635260622 -0.11747190366693962 0.02052743052939045
P 8.479401515680154 7.2804236107735045 0.47853667041341774 -0.9944420247507777 0.38040499712489323 0.8671220246451647
