# total energy = -340890.40048328287 ev
CRYSTAL
PRIMVEC
9.08729634677570 0.00000000000000 0.00000000000000
0.00000000000000 9.08729634677570 0.00000000000000
0.00000000000000 0.00000000000000 13.30017676149993
PRIMCOORD
 96 1
Ni 6.453416051926222 2.170237151362193 11.57636743715675 -0.49268815750204176 -0.692575230342104 0.17810417263701586
Ni 4.7056927345760515 0.4097961630646123 6.080974128373167 -0.29463453832629255 -0.7590912117864669 0.6469769728870147
Ni 2.8167437479199156 1.5872689294127522 4.839961169957516 -0.5164994009890267 -0.27231967687917613 0.3721761814571978
Ni 3.4415317067039264 4.244975907593032 4.915026779718917 0.07880431189341268 0.7748150502796268 0.44113599645636287
Ni 5.305281621164873 4.501274007915111 2.70634673076764 -0.460719060794613 0.016152184279830246 0.47953439372890316
Ni 7.3257692194421296 6.270370645785688 2.4698689320557046 0.46349713776038237 0.037098190403878045 0.8672991736529774
Ni 5.079098820249522 4.212407038228603 11.665372050466726 0.6334727677529929 0.8463788785605424 0.03157186126901015
Ni 5.72277018041168 7.377185141000147 12.223314767577243 -0.8507955195709992 0.07747762266218915 1.1940105379091566
Ni 1.863313724246244 6.504941021037916 0.6383761927015971 -0.6293122086174001 -0.09287235995070457 -0.6379295179727658
Ni 2.885207437035876 1.4461068711797649 0.4137827598810673 -0.8094516665168898 0.29203258192707127 -0.041096770040309864
Ni 0.6310854550087732 -0.01808735423631636 4.849470116638024 -0.19614251819596543 1.0186373910500586 0.20006345051692642
Ni 8.643281762950012 1.8777534378121137 1.2769795678066849 0.42655989841440084 1.0702705418453182 0.4573488587707995
Ni 6.785992916044343 0.8131985045653821 4.76105072519944 0.4706453187693894 -0.7761826200511148 -0.15862163843237198
Ni 0.7590927433500346 7.753317415515506 2.8537926542811807 -0.5710726082492165 -1.110141667008643 -0.8122963350545365
Ni 7.689488247430757 3.9464037056294012 3.6143493610393094 0.7779893342425505 -0.4491899771090909 0.37558752113159183
Ni 7.6534207690525715 3.7637490532228703 12.925670068749893 0.9892972473250445 -0.20524628026944652 -1.7629177630759378
Ni 7.939616073674028 9.04976560657173 6.946482744436706 -0.2544685076303682 0.7622143307964808 -0.1277861411087541
Ni 6.745045559639177 0.6286055318922686 0.2761765606275164 -0.6842859937501183 0.33704179964790987 -0.5075370495894161
Ni 1.6725804655715837 6.872422189628349 9.350542386578836 0.18516030815284887 -1.554340875771362 -0.7039320501158198
Ni 0.09795196508905449 4.831615397182882 1.2692053859592327 -0.08209223861606507 -0.6024225833154077 0.6982411703786298
Ni 6.226878846461426 2.2660445145622954 7.07194286367003 0.6968478895755289 -0.7010459868172765 0.5057825287921548
Ni 3.591426656527097 4.291684609750722 0.8228792011429282 -0.5967072780981854 0.9535748542227707 -0.8617005965192773
Ni 6.290035554631843 5.776485187893024 4.7008546581113135 -0.9933081682566507 -0.03376912603064507 0.21281689352785282
Ni 5.56480571161652 2.840270757625414 9.435890271922226 -0.8199160563833233 0.0717664312100248 -0.3863514445163153
P 0.31272566570110183 5.779002368923702 12.567629692118922 -0.5125923526251366 -0.492762462383403 -0.33310029850165856
P 3.8566121324737326 5.810189969274906 12.430544194934171 1.038425372310263 1.2730768452147043 1.1679025279681952
P 2.6199220008317043 8.338711945534227 1.625254736006013 -0.4325801364665518 0.3664709035423044 -0.6606963793556363
P 6.4585594615412525 7.8460987091011125 5.726630463811794 -0.6574639884612676 0.04293536591094542 0.544298682589482
P 4.756154490039408 0.9401262221252558 12.679390712421757 0.5687825266634591 -0.7968018389633632 -0.6005531342068366
P 4.153339613321019 6.393994222469193 8.322665598010872 -0.48126603170802923 -1.3360585882535636 -1.309472610234919
P 4.586558282185523 0.8865511590044626 3.7809613008409406 0.5001921791885708 -0.007775530180360804 0.14764199949241671
P 0.12447869125024373 5.630852179959339 3.4267902949062217 1.0400353971098604 0.06485556302280444 0.9058114707955625
Ni 1.5506107767854915 0.9701869977551464 2.531994232114274 0.11261560401590283 1.6670181862631355 1.0436763362965573
Ni 1.588522976280021 6.442384074412714 5.1856191968686325 0.7690892035394432 0.010473388727498091 -1.8032282897695269
Ni 6.256049067069633 5.674434852244997 9.194810666445182 -1.1899690208499312 0.5983599832102598 0.1748003050747635
Ni 8.561359788251263 2.2847552573137904 10.258744937365577 1.1296123741387447 1.6747302101954125 0.638491818234139
Ni 2.438866712545748 5.436374955275152 7.2176067684105885 0.4145338204878022 -0.3065006936362592 -0.024007675768507042
Ni 0.5582943954711218 9.244415489882572 9.123495383800606 -0.10553915678509566 0.2017099849814139 0.3030998954848264
Ni 1.215843874297721 0.9592731550914528 11.375201962513797 1.634611744907972 0.9400981598925745 0.35065013445996385
Ni 4.057259631236728 6.594387276940277 1.3381170787748768 1.4794922060915874 1.1994183391882893 0.46222958390186847
Ni 5.7249511314851915 7.961425584409136 8.017506015075625 -0.31631228041004233 0.6053639253319187 -0.7086135147518893
Ni 5.18404800336609 2.648019920495435 4.904307405192612 -0.23114885906782126 0.8036054921487581 -0.18650473799588524
Ni 0.7844126765838813 7.658218861414295 7.044784570427136 -0.1994474141994823 0.10760195285139533 0.13680351411601602
Ni 5.145690526360719 4.858486531867763 6.917607860953036 0.34309109116578335 -0.07211430146774676 0.27596061606587313
Ni 8.326971158921827 7.358956024944053 8.829016100018263 -1.5383861522143183 -0.04727101717182182 1.6621125214314019
Ni 4.705901742387263 0.28265307658622957 10.335952422827086 0.2699725168032383 0.9160102657054353 0.8442451200469913
Ni 8.275455277106275 7.209569963704701 4.698513770625746 -0.01929947165956031 0.0941702528265217 0.12000906826649654
Ni 7.416433173027202 6.169610706189488 6.953744402781883 -0.5875798618756204 -0.00943646282255149 -0.2990234114226076
Ni 2.263563682716177 5.014206438516435 2.9392595832039996 0.08607770562637435 1.0065385509039955 -1.6553654325155556
Ni 2.1775978612352924 5.380515345904856 11.235350292384142 -1.1084087434779362 1.2608317092987642 0.6549247669791818
Ni 1.2130268124944361 3.369896551235236 4.11148352730189 -1.0771857809079126 -0.8497778769397623 -0.6580077767798796
Ni 3.7817237249870552 2.6168141455519516 2.6360419554537913 -0.9723984146871769 -0.08588615844085853 0.3796892020047912
Ni 1.302409457323821 3.5034979790800524 8.332919702974829 -0.8125138503819813 0.12263724991796299 0.13194618602371472
Ni 3.7582875882429536 2.9782431749133917 7.322983963175333 -0.6196091223970231 -0.4999476672779325 -0.1229403829806786
Ni 4.155702310317323 6.8831088498885515 5.769457073058636 -0.03454354230282438 0.3570511528903012 0.22443879403749736
Ni 0.6249669785179613 7.718440372931612 11.60662540711287 -0.011100995009167978 -0.4279812042419596 -0.41570984307377434
P 0.35504520382335125 5.730158152173199 7.901701147990657 -0.5475832668780246 -1.4890682798157968 0.12174507712099678
P 8.565185539926047 1.9100860374769113 8.075015877424878 -0.11231967004203881 -0.5847570477148445 -0.8854401062280622
P 1.8296543793450606 3.4391599224114837 10.600121030335698 0.35582576512363234 -1.930450587955011 -2.2444748436618247
P 4.0910189363954474 6.170337689880658 3.580886301734742 -0.06738887096761943 -0.5669999808417396 1.2038120973806106
P 7.025524954988808 4.08117739467623 10.544379555815219 -0.12259122717137597 -0.05553762805598823 0.7500519844023341
P 6.32949259447011 7.653602514975363 10.080070520668203 1.4942457102516782 0.49723361078087913 0.23986669855679335
P 2.4523522600169567 8.526573618628765 6.075906143316096 0.7411667660975622 -0.10187944854532131 -2.1871199598914397
P 7.02936888125587 3.7122876951841546 1.5912064548300533 -0.2676055592329585 0.21723353453830974 -0.09004028981854814
Ni 5.2316381732493245 2.7967516964127332 0.5134249620520926 0.7914966247003659 -0.4039750711353495 -0.31798169769266527
Ni 1.4374375906625592 1.0790255436194758 7.035394667326058 -0.5948427140856207 1.7361037282068874 -0.08119415228182791
Ni 7.108219349859426 0.7958308641833244 9.313794269719791 -1.4303314280962205 -0.8578637392716904 -1.76270641839608
Ni 2.624456561605379 1.6027173328501205 9.171588989889976 0.020298602348036012 0.3605992752528758 1.5102166317586379
Ni 6.2761410788343515 1.9173467870924747 2.5644867681911294 0.8369812393957262 0.013452783070796186 0.39670244873333615
Ni 4.2396053155745115 7.121395929261887 10.383594390298319 -1.4362876456796554 -2.1384764878521234 -0.5392037845650779
Ni 8.056324217995275 7.442286530544445 0.2890923346307703 0.715390942685039 -0.4880794550854368 -0.773891510024093
Ni 7.579659186287207 3.9607707208261536 8.404926528855631 0.7433100376928101 -1.276413365787105 -2.0137916113765124
Ni 3.2278530252767044 8.138091708659651 12.384153548141368 -0.15010511632092857 0.40881954371184426 0.6799243743473129
Ni 8.95566665504588 4.94881425549567 10.005590132778195 2.597885314475745 -0.050960035987634815 -0.1134113604443208
Ni 8.50616355149916 2.469981614527836 5.656724620798475 0.23955816617743905 -1.0870385053322764 0.7726370687917016
Ni 3.653483801864619 2.345185776642319 11.55341110964882 -0.7667155611009441 0.738904709536263 -1.1733121290195405
Ni 1.1696622353161295 3.28152259627735 12.60514932042022 -0.6280657378048087 -0.07449180056098784 0.6564540591395145
Ni 3.076222401890865 8.533616273136978 8.082078523984595 1.5226486868744036 -0.6879428737764153 0.6937795350628503
Ni 5.549529966805805 7.932273538393209 3.577641228283281 -0.26723789148089455 0.10370621734141493 -0.20272839894359923
Ni 2.884553151713823 8.225393362673062 3.8820292997762733 1.2383867500316867 -0.05455186710395121 -0.022412049146613017
Ni 3.752780686782339 4.5054996006200385 9.491937079592997 -0.5389366469466201 0.15340641278001968 -0.2526458525993326
Ni 7.606957423890651 6.143239372792286 11.333479459747918 -0.8544845383868123 0.41329789119817206 1.147951795877881
Ni 0.9194889725921596 9.00402924510098 0.45771892798655667 -0.890344485508215 -0.35942736643196166 -0.6644741012305138
Ni 4.632140159621899 0.3702927780160337 1.5921379026843652 0.01612055971094643 -1.6429709155059444 0.28449050791375524
Ni 6.237401935391116 5.497905037436577 0.5721034506849011 -0.9937043752538048 -0.07067602635932344 -1.4264999701652723
Ni 7.393724019974272 8.990816316513962 11.388595728293994 1.2062014235483938 -1.0260928188868395 0.631513587144093
Ni 9.048593345369719 4.803690136145804 5.831448789863953 0.17448380227560917 -0.0651062455810298 0.12048112280690863
Ni 7.599805721828764 8.875371306356122 2.2193603481041824 1.1231115969057497 -0.06571122615488037 1.9359370649908787
P 8.5604510586373 1.5551180756707472 3.5850355611520963 0.273952841607225 -0.3885571939183824 -0.11993090673039344
P 1.8464840517956524 3.192285348186199 1.4461414029050954 -0.3608982945505333 -0.6834606696353455 1.1038224096588345
P 4.59177439016967 1.1567219256132983 8.39277045280965 0.8274326764753426 0.38205024603780013 -1.8940982745782218
P 8.548274081810199 1.4494509961591482 12.421260613197928 -0.5452062820054159 0.47814342691864753 0.6508919916707048
P 6.099338645141741 7.651394302013434 1.1972885243102138 -0.12936659822199656 0.09945412693328033 0.2803034664156011
P 1.8056184810557436 3.1682857990814406 6.171281859949565 0.4774227467025391 0.37577289766952054 -0.05423099342942273
P 6.803295127894195 3.8914437385769287 5.716934318830812 0.34560460161625645 0.9624700998298716 0.6547285918079757
P 2.4107597055858774 8.51010743802376 10.320936574685964 0.013124967417732235 1.820934448800038 0.9322892053711169
