# total energy = -340868.9014611483 ev
CRYSTAL
PRIMVEC
9.26180834993756 0.00000000000000 0.00000000000000

0.00000000000000 9.26180834993756 0.00000000000000

0.00000000000000 0.00000000000000 13.55559271806716

PRIMCOORD
 96 1
Ni 1.2505941757402796 6.907197224482361 5.963078134421842 0.913906074878239 0.3255525680613877 -0.21217643173037654
Ni 6.225843042485357 7.579502619868552 3.6959319714168215 -0.9744789513652895 -1.2648901956388539 0.5295899156243977
Ni 9.133476584988353 1.0061843191663333 8.49326983827882 1.763291344365273 0.7923995961306095 -1.577035232045084
Ni 4.725985822674646 8.01717862813936 12.964256779065147 0.4449538275405563 1.3745071220377487 -0.7240303635275918
Ni 6.721738777097591 2.873207401425828 3.7106536155497665 -0.3653519594465127 2.5126283049784535 3.0300193645438136
Ni 2.8323443036500784 4.0122153119797455 4.051183443797898 0.37860985289768345 0.9252145579125227 -0.15006654977350928
Ni 6.288128702626317 4.2261816050022665 1.949524491157283 0.30228202756922135 1.6741784514570004 -1.040705940814324
Ni 2.5620754785834094 6.128010562475104 8.282792468405011 0.2950209751314339 1.1663884053165139 -0.5606516700262086
Ni 0.9765002238872588 5.281129344338437 0.7177660547521216 0.12044872690707643 1.6577092501573838 -3.0668486175570213
Ni 8.766949787305327 2.812190609008186 6.965704066877966 0.9918691218172789 -0.23107301152456333 0.7317508721003011
Ni 4.476732040412415 4.7908833127278365 9.45081021460109 1.0910334854242822 -0.3599924949068123 0.3308220439904431
Ni 6.518858868489751 6.2113205272286995 5.9489937026930155 -2.6850963623756146 -0.2777452187701216 2.049661328689928
Ni 1.1703869167334824 2.4939919265096258 10.298834339869561 -1.5143825902108692 1.5350390901189563 -1.5158494045643829
Ni 6.9120504119788455 1.3143895106177417 7.194535562060524 0.15258365976840818 0.8304593791168084 -0.1916744551222828
Ni 4.666145279898328 4.017124070325427 5.421817137068131 1.644175477337007 1.0244059181027194 0.7459042807825477
Ni 2.895361646638791 2.3591307373181736 5.920160767587466 1.5460467540833698 1.2402042628563994 -0.5204401308043295
Ni 2.5530266919725966 1.4424062235498374 8.587590240619862 -0.5443331353718431 0.26265001499989604 -1.898147247836615
Ni 5.237830391006245 1.7519821626147567 5.3234437674590325 0.612906513565867 -1.8493207132522151 1.3523992343951161
Ni 3.8682312417118854 6.30873622586998 5.604261792064817 0.20561754756593617 0.08461269104507363 0.7766212502504303
Ni 9.20611694669624 3.074901798584145 0.6570502711009601 0.0003679248623800115 -2.5969190939077342 0.035501278230403374
Ni 6.75798949439004 2.2838600220816563 9.609966052880385 0.43307867336952516 -0.08099540600746051 -0.7712587003869362
Ni 7.697090536768124 1.2790742359534322 4.909659519619392 1.7119003914878064 -0.35884861111035615 0.2126690550960789
Ni 4.588559112611961 1.956862621793667 -0.0444381557407175 1.5957220098213099 0.19951503421262412 0.8058176693087283
Ni 2.2254735831926435 0.5880470214729759 10.734144882326243 -0.04084634459240062 -0.9125991831413572 0.8734538804004635
P 4.018476294322539 0.8610017709174708 11.841677463895325 -0.5019520993024711 -1.4592658517423838 -0.297646585679739
P 1.1886882497354951 6.156712906085042 11.62541146389689 -0.1720476820302908 0.7863423341929361 -0.5436003709708767
P 0.5822741364222905 1.8139436594687377 12.27479203162793 0.35820840642319596 -0.5345632004692729 0.4808114606691139
P 7.291932737085405 8.481436025942447 11.24821413698734 0.8592115115488363 -1.2118164557423259 -0.22971983993077857
P 2.194094577013079 7.810844065073145 1.4410271403089472 0.3024357795382662 0.023597070593649683 -0.5211286722309219
P 0.6021314532018024 8.48078769936849 4.295875785521925 0.8611534657665557 0.0791652947772572 0.029775174379903558
P 2.5171834942409217 3.948419977102284 8.326942581910728 0.8184752101717389 -1.2931574180146632 -1.6202665319298934
P 4.65981020308994 8.615148750917173 5.161101867159142 0.40762578051405923 -0.20844190438860877 0.009444690352667606
Ni 4.495959554234367 2.740087432175863 2.038001618705324 -0.2676613521715584 0.48773852680625024 1.4449316945078987
Ni 5.306654887735982 7.984558539661077 10.297573807773624 -0.1869827060735683 0.8105968358649265 -0.5854975254252949
Ni 6.860897445293564 1.8187227524996274 1.9567903796897117 2.2490022992185335 -1.032450899894383 -5.41957770294226
Ni 6.4140707705217475 6.297270107319124 11.766931893183713 0.7604508111381548 1.5695137268570583 0.8353997538412193
Ni 3.049320684337404 6.384321842585277 13.32034829744991 0.6698178820409302 2.1313439905724003 -1.0012292228759403
Ni 7.446632719439971 8.732560693460957 8.359313527748448 -0.8378230185707313 -0.5922988646178444 0.8563820125198411
Ni 1.803607481518208 4.7146678930549815 6.2614908160640255 0.8314430831863164 -0.9311113830129318 1.1110207271794865
Ni 4.2227825213930865 7.975259684228881 7.556402744038429 0.5067793454877852 1.14716221009705 0.9513688477103872
Ni 2.7649090781502528 9.147795340464624 6.112622994332621 -0.8455173018911954 -0.9971311415471666 -0.6393431104908409
Ni 9.17266329548001 8.784964004253158 6.500882624955537 0.1397273726310303 1.3826184382909736 0.3657329969350153
Ni 5.218074954116927 4.779306052478588 13.346619416407504 -0.9766957565109502 -0.26152155782240766 -0.42057591291682406
Ni 2.096132431688033 3.0485797396814522 2.0929695241879385 -0.09282325188032402 -1.0291701722605824 -1.5312546833758596
Ni 9.189140052266742 7.721643590304732 9.986500234322861 0.6455723792300042 -0.5596155154522104 0.29505774190664025
Ni 8.036656210782699 2.8556562748879664 11.688092603247966 -0.9997523812200975 -0.15868694445266862 -0.9125793856470155
Ni 7.097314361391429 6.577254569186963 9.17621427274366 -0.5978161948916478 -0.6318226337440797 0.36111478143671355
Ni 2.583016426922251 7.592376533265717 10.368564641441198 0.14060771835345465 -1.4178186403411903 0.2559983140113333
Ni 0.46485941533604663 6.8727432979805965 2.6324828183344224 0.2409203366322883 1.2325832559760321 0.1544255980731534
Ni 8.069683818821757 8.961883064478082 3.055322336050615 -0.7952224102913853 -0.1392514614358763 -0.22853738958690317
Ni 8.385946783406641 7.0859871699635635 4.939739094108581 0.3838525893538615 0.6117034943967014 -0.42156167386886106
Ni 2.916311856785832 5.6125724125621375 2.088646112120459 0.7449478304065493 0.1643012053156525 1.0661243808874283
Ni 4.843518168725023 2.676134646559011 7.851006043968201 -0.4671445047049826 0.5776289213104955 -1.327657508674062
Ni 2.338208312595731 4.460699850419255 10.28697274210859 -0.9812298969358779 2.3530173060496185 1.0470575940639646
Ni 1.4951800066700143 8.075490972562779 12.625990536740948 -0.573300983359103 0.512617035215485 0.450731610564598
Ni 0.2844949624609461 4.505156529776371 2.561220613686605 -1.826596532181822 -2.085042022182067 1.385622001003988
P 6.845004182423395 8.76937638105357 0.9669540781761381 -1.0899081135705875 0.9318037810942662 1.4268023318970395
P 8.175935282485264 6.9297682510642975 7.36076834798498 0.4540203086181987 -0.3402124840664076 -1.307041117975291
P 1.3947912675967262 1.3813060748584007 6.765555465508129 -4.0322677727128875 0.11672294131605705 0.35464125789722795
P 6.686117862762702 3.0274257697540246 -0.21013375678960955 -1.3389523648615906 -0.7018692540495202 0.9457458450966552
P 7.925570083239104 5.865799510541912 1.6754444320165616 1.1300016391573637 -0.988052062064034 0.4163731876893862
P 4.338203175174001 6.183423960932109 11.318621476738352 -0.53030236831039 0.0311658840798431 0.10855120413854209
P 8.581352412797566 3.6837823314208498 9.167226614066964 -0.49283291061002216 -1.557230281504015 0.916811164340176
P 5.465476374739279 0.7138307124481971 8.60997047395289 -0.9680676485223069 -1.1422861129516715 0.6949547863178741
Ni 6.766491834317088 4.27824222889109 7.959287695989017 -0.3568632052492112 0.5041712184409769 -0.5954284113857616
Ni 6.871150266970299 4.603155722334214 10.361054241172305 0.41870980624236276 -0.9955941360773498 0.4037621837935949
Ni 7.255283762040382 5.355103406427038 3.938346834504617 -0.4160111763642771 -1.0813563673458344 -1.8413412945911645
Ni 1.7740900987867227 0.9953387417648368 3.9631675542981872 -0.27025096727560555 0.027763800376829604 -0.2731887097476908
Ni 4.191357206172525 2.047406058750994 9.975913061370127 -0.4241613162752373 -1.3329573236204204 -0.6406697997220644
Ni 3.1956479920797123 0.5151667789327234 1.8514632444845038 0.201772205677917 0.4689753872661343 0.8029547459386365
Ni 2.3171006517093002 1.1943749999699262 13.291001331989293 -0.5603577929348736 -0.5632160883192752 0.6596486548174123
Ni 4.545130493964978 7.835786114554128 1.9749138859742963 0.35354622506083627 -0.3007000277940821 -1.559685942133359
Ni 8.388252973648292 7.547734617744612 0.2220824155476545 1.3638565843024382 -0.3317671815125319 -0.31508123621641865
Ni 6.22349054320271 6.673734825200105 0.844500933429421 -0.6166279282815121 -0.13718609426641534 -0.5384797619148597
Ni 0.6907836289248119 4.101304645049767 12.108654642327927 1.3309485207205078 0.7852874105658605 0.06001648976294824
Ni 0.21243068522306058 5.4229739369122365 8.4328254256079 0.05745901344841717 0.6209836341470466 -0.45566221509699584
Ni 5.146490438543771 3.1787544539240082 11.454244912744615 3.5668821596805405 2.40416683234024 1.4391230582459216
Ni 8.447185859221069 4.9042293214720845 6.054537564210089 0.8685348458322913 0.20014469737682308 -0.14763814283767476
Ni 3.2425312651850713 7.643094194965627 3.7677091326005256 -1.5159512202495697 0.7011179777057925 0.5626347618945086
Ni 7.963497187815643 4.732682110002813 13.253194630919344 -1.3710374183215936 2.2174247815225687 0.05200544653301367
Ni 5.643766182577714 0.5175415065550494 3.1701104083315093 -1.7677650638659104 -0.8163651058072716 0.887393373299691
Ni 0.7686958118597981 3.1287406896472523 4.816668186754964 -1.4443202861761448 -0.9088852246248799 -0.8370385749962229
Ni 6.654636976692943 8.637784610156507 5.898702084170277 -0.13886708151326407 -0.35922373506158783 0.06765318037259961
Ni 6.14563578347856 1.0461860687795386 11.58626272681885 -0.12134912723415875 -0.7511729853806546 -0.2983510679459313
Ni 8.81439803071085 0.7549827786397676 10.58590130646748 -1.1602797213156146 -0.7698397085522225 2.565097064301131
Ni 3.0572580539642895 3.1107635199322186 11.970970453997296 -1.8350541760308718 -0.3738651391238464 1.0685180779305854
Ni 0.6594870528382221 0.3816115046973866 1.7873455986817028 0.32466322347789894 0.4123830926933865 -0.8353771281334
Ni 7.9564582135841 0.7649605246129805 13.063104353254056 0.4999805773983969 -0.2895869486000561 0.6959616303158338
P 3.779771711599423 1.8109891426531293 3.888896188166385 -0.9778658655596513 0.8174058883669599 -1.808071991015073
P 9.001523603571512 2.292158602228318 2.7673060341122575 0.09410983190223147 -0.5530548315155571 0.6285771302235884
P 2.9211094734331207 4.438462248932496 0.1727975555761914 0.3745436532481098 -3.547267984994039 0.8592053409012492
P 0.7060165248703638 5.315638841689398 4.342331163088472 0.4627841708537578 0.944082084240987 2.8974203754274486
P 1.8994486727655913 8.561652546757443 8.453822870976758 0.3519847941109873 -0.7300855685827362 0.31453641945654215
P 4.761282573722557 5.948479672337949 7.6769933391562475 0.9926193697197421 -0.6311307498833776 -0.9233407379285775
P 4.768414166036095 5.488204852060604 3.58603691240767 -0.04034909324100793 -0.03678734403167858 -0.04672157242625502
P 6.780680924478568 3.1511357418734 6.070194650971174 -0.25396354296949164 1.0562495449758775 -1.0514171565842407
