# total energy = -381164.90055083344 ev
CRYSTAL
PRIMVEC
9.27590644520644 0.00000000000000 0.00000000000000

0.00000000000000 9.27590644520644 0.00000000000000

0.00000000000000 0.00000000000000 13.57622670555710

PRIMCOORD
 96 1
Ni 9.054972996648184 1.3540875605959803 2.6062829982282287 -1.5240944181819944 -0.8426026993475618 -3.0625972984798353
Ni 3.424219450531428 6.804331965471889 9.632930615710364 0.007519191195180598 0.9808740562583559 -0.1673212230888989
Ni 8.0107934735063 5.323544797465386 7.6678261051486905 -1.103941451735202 0.7426495212906759 0.6507292408405955
Ni 1.426309768905397 8.068155679540906 9.175180397072351 1.0134003110208354 0.9863541055363206 0.3754854483360888
Ni 7.587830687159941 6.642244774616668 11.626462997040838 0.23115862925983413 0.6916488618730926 -0.11353297362384962
Ni 7.256263407938249 6.1704536162512005 5.479066501672597 0.7854064526422281 -1.068285135984173 0.9384593387375708
Ni 3.202580939698498 3.5209764316354 0.9126147027518741 0.1816093575767969 0.21528540967300344 -0.19827704804046498
Ni 1.6761192078960074 5.238827943048498 10.918408933593708 0.6391456497680541 0.9337063974336177 -0.3406894237028262
Ni 3.268662497879371 3.891762243702225 12.095780271132465 1.4400268010071136 1.495453357406534 -0.33598199092482783
Ni 0.012334172924355388 8.125378746977432 2.154424835423524 0.7277908590112886 1.8101525276931858 -0.6098836675791433
Ni 1.7302997779878777 1.3187556325905132 1.4075696549254952 1.6935365442686383 -1.2468796179940462 -1.5850609305630379
Ni 1.3069659553799726 7.585873470880299 11.612751351995504 0.25013851279644667 -0.30985161238636316 0.6589097197688587
Ni 2.8635280039001683 0.696628001772903 5.93631396617622 -0.1751602595173435 1.0606792986124574 -0.2674978300105006
Ni 2.696654445271039 3.767530027430967 5.221417066475575 0.3420811618440302 -0.38217108788638054 0.1043209681072784
Ni 8.181293911592016 3.4792441281183093 2.8521075077698637 1.1760038169190907 1.0553267760512923 -2.0185944320817946
Ni 4.032245848229083 1.1404634330123866 3.017004370715621 -0.4921911632609653 -0.3693999042636413 3.0948764702285154
Ni 5.384339088919267 6.999710384894087 6.418555360848057 -0.6058120686129309 1.7089024852017471 0.8630272857505008
Ni 5.582082864508805 3.9055833444447154 -0.08629468611910251 1.134709329045678 -1.012481655861308 0.8443402508639587
Ni 6.424947388043795 6.353866116238625 9.642935608502881 -1.0150985246588646 -0.9992944677470725 -0.6131230004520473
Ni 3.405611982015028 2.3894828002458244 10.17227263585242 -0.3788101418339476 -0.09988658648500863 -0.647832893129407
Ni 6.648320493399441 3.554879870033925 6.605418498067836 1.2188029143624879 0.10896540885782524 0.04233115666804323
Ni 0.6141995134990823 2.4791251610347014 4.326159440038699 -0.9671289387581216 0.5989832186165556 3.1241564501395547
Ni 0.6036379663142505 7.110371949899396 6.835997127622653 -1.7564987469234716 1.769990096541687 -0.6802329067266673
Ni 5.851223292725825 0.949324102878321 5.83795410842238 -4.729880822589215 1.7392456162699788 0.6052196864445706
P 8.79994122227635 8.734583184805487 11.266883407663276 1.9028832198597034 -0.20737438235604283 2.5871285901798737
Ni 4.279791966024279 6.099131170876026 4.617939573344442 -1.6656719566478861 1.2196920018356607 -0.7790198323895938
P 4.338276556750053 2.3654303745912753 4.971233808451459 0.5010013053534275 -0.05226024285629709 -0.14066659661584807
Ni 8.247607367436355 1.782226302790872 10.849754238939031 -0.19838580570418737 -0.1760568031896839 0.5011105772377822
P 7.673141199595299 0.36270835265302637 0.9819790042567528 -1.5706897494430305 -0.18519990314153267 1.1633442191735512
P 4.134939409517748 4.9224824264566225 9.87160061853879 0.7766518463780495 -2.3699552194555378 0.13123887554404495
P 8.219297300680596 4.262974747469825 4.782212167780153 -0.8186281908098353 -0.055533771401246296 2.181453762744598
Ni 8.293263379419267 7.53954959362661 4.08590140201087 0.3874732168255843 0.37870472660433485 0.051545733287775744
Ni 0.5082630952845278 4.644511335214871 6.500610030088373 0.7832153585281801 -0.6529889834090497 -0.4250774003316034
Ni 2.2505853757370646 7.33428305783428 5.251366185916702 0.37784906347225894 0.5825896077498806 -0.6337455617984054
Ni 0.14260871471484707 0.6145529255382024 13.494823512767695 0.7851429145681962 -0.6219704235403481 -1.6135739504010662
Ni 4.437380342208286 8.522981204847305 4.947475429034183 0.2443216490043534 -0.020628731993945118 -1.2429054638376464
Ni 5.318109116233776 5.429781755051791 11.704785041490027 0.35335930586101083 0.331767438622848 -0.6059766192152531
Ni 1.9333493721174855 5.577927258379519 13.364885686384554 -0.35382956062920995 -2.6232394769698177 -0.49428866921994224
Ni 2.8945466353651943 5.283853193386785 2.9661473579365256 -0.40767360303285916 0.53308970124754 -1.5721071986158472
Ni 5.691121145869863 4.571630537541214 4.855415767001351 1.0091155676025525 -1.6114607607128055 -0.10826118370194902
Ni 7.672195057128364 4.197997022167043 11.216379806923301 0.566027075405509 0.5696646721580964 0.18318364404245227
Ni 3.067560844122866 5.568131901074775 6.821171446202035 -0.011741713916960423 0.4293222916508865 -1.499032333007044
Ni 8.984615245553023 5.236304896470002 13.086681769888683 -1.5383151897670666 -0.7308910952031671 -0.9926859612916193
Ni 6.875292650492058 2.391161739329308 4.228709548716296 -1.0376578980166193 1.546401309209311 1.1407599061151321
Ni 4.558013506742573 3.0360969691439887 7.63508029988618 -0.02043358526400352 -1.5694702752136327 -0.3070905047014582
Ni 1.7447423644684534 0.42384492505818094 3.52228433445734 0.39778076939917945 -1.2969374538823857 1.3850735846996856
Ni 3.1930082041506784 8.071161073259407 7.351336812005467 -0.22082819386810357 -1.3855263559663882 0.07038214926798846
Ni 0.17421636624507267 4.285867684807052 9.46690673012017 -0.7445020011183824 -0.893999565762299 -0.39355413291234154
Ni 4.476561771427265 3.650338224222495 3.1410640551252613 -0.03155154955403598 -1.1609646631977812 -0.5351509546519428
Ni 0.1575095309784287 5.815112188571117 1.8295324985469974 0.6453036989496499 -0.9528006950609075 -0.05961642611105216
Ni 5.227177404436035 8.23284940013347 8.749158416749564 1.1562857696648734 -0.8999061610547212 -0.16484627918584513
Ni 5.129233107295125 5.15697734375203 7.491782385315516 1.042033915597128 0.14551209763360748 1.9537062160488416
Ni 6.159489494722593 2.154431328558101 1.8757320786530698 0.8393003744472062 -0.06146222107053931 -0.274528768715353
Ni 5.561536731525841 0.9016691330363448 10.500668482628567 0.172229973244426 1.2273474614983895 -1.3227878392865866
Ni 7.121521589558775 8.60621391421802 6.324512509997275 2.1161269165123295 -2.231836586072524 -0.04634439159249438
Ni 7.771206083521211 1.6108446535839906 6.342894573984788 2.735064723873941 0.9728108196342472 2.4766189767633797
P 1.9465860907480452 1.2495480939061365 8.653351288475143 -0.13447640864473615 0.4407194777442345 0.2676883487547519
Ni 1.5485198375512434 5.939984442393538 8.373218911009902 0.15028355088032183 -1.6338162455898704 1.8357951679619544
P 6.0736595315210735 7.213881790963457 3.8295144176937486 -0.3498482073839588 0.7875846912404695 -0.46498734915266376
Ni 5.487301651497552 8.239008602075089 11.382498306760189 2.74552808529911 -2.3335188310053745 0.8590212499149013
P 7.510673696571997 7.7174336533170385 8.195275485517627 -0.650904590076195 -1.1324572997867077 -2.802124493636916
P 7.709827409955399 4.686419880956194 1.2041610832128442 -1.7512066452865969 0.028094187133054838 -1.3002557196223412
P 4.181170527706052 1.9731893907007045 12.561620935453433 -0.03770291386741249 0.40061952439955517 -1.52987194409572
Ni 1.8867101140414841 2.098952131550829 12.532255270533584 -0.11753695257692016 0.5191656349672802 -0.13861511340345806
Ni 3.9882316717035007 0.6931829300844728 8.289087366295597 -0.5445709624142621 1.8800909045555365 0.11895491597036933
Ni 2.751938848241001 9.359018661169898 12.980583023309704 0.326676911473818 -1.7057994207963911 0.48493859546360996
Ni 6.6472630400540424 3.8595933998264154 9.018321107142278 -0.6795065700836039 -0.019169116729283116 0.6928338833201294
Ni 3.5386934131240957 9.047914031772322 10.74237912762034 -1.6859852142839413 0.6886129032602463 -1.410226172705913
Ni 0.8937317398112783 5.007607420761209 4.195624245274474 -0.707697173585207 -0.40855292031401896 0.17664172915887644
Ni 3.498037114765481 7.937921951739185 2.5272142433026836 -1.4286134169638494 -0.6235480524401131 0.2954554915656912
Ni 0.9681820208712626 2.3083557216593666 6.705108520819308 -0.45173768323160907 -1.6310512812502234 0.20437596184935122
Ni 1.8171964704413341 3.035781588321677 2.690359815093956 1.0513865604566215 1.9284271297670788 0.2582225753561618
Ni 6.317875598868918 0.3579127089725784 3.6058862249082915 -0.7700479679082868 -2.5278474359210525 -1.17017949692783
Ni 8.785563567141546 7.399325714482832 13.543508108235454 -0.07695311761728683 1.8146208478771846 -0.15383707255953508
Ni 7.365524311056232 8.752161027696104 9.932028511684397 -1.6300423803697348 1.439905959158533 -0.15862832330059135
Ni 3.760684408405492 7.17343883845523 12.038759418458481 -1.9928669454087036 -1.5689403708520915 1.866568187478753
Ni 0.6099325964913336 3.2986886073447685 0.4239256254450666 -0.3944015685143014 0.062225581599125085 1.4660119122169655
Ni 5.497004249736911 8.368657947764879 1.5773131790376627 1.14519043108266 0.7113111161887105 0.1728732632553797
Ni 8.333984609123652 2.3628238448539327 8.44858101368263 -0.7419668934013544 0.6700279411692074 0.29389868860153257
Ni 5.705767802294287 3.0078982132666927 11.127577843266819 -0.5212968223776699 0.7313562077650436 0.7970360664613563
Ni 8.41242167481392 0.6022781184156939 4.573871596560936 0.8632849102872616 -1.3787970076623544 -0.5498885179724337
Ni 8.804319450162563 6.726312315575856 9.433197158168301 1.2950451219556793 -0.5387798096537818 1.48482364560683
Ni 4.311970085806627 5.704617589883502 0.5134000923255958 -2.117518654653534 0.7904568705819419 0.15924358828708704
Ni 5.859154192816315 5.623638925801663 2.292590390906389 0.37507047228585727 -0.1444062661639384 0.21834193711114008
Ni 5.956643970536835 0.7222193003222029 13.06102275722165 -0.08796258135391302 -0.9166468708481698 -0.3961026103658081
Ni 2.344197824524456 3.62101708365403 7.921130705723039 -0.29774248782765494 -0.005605776222551636 1.2856734509327923
Ni 6.212556956029833 6.815667123262038 13.610846551752305 1.0428587254912685 -0.15130967815199103 -0.5604812058866154
Ni 4.2048797448186725 1.311084457883104 0.9512599845729235 -0.5124717678868722 -0.3276408180489841 -1.3768874493444674
P 6.095003392466356 1.5711159458792345 8.47073744404069 0.5901879889224289 0.8868675827032081 -0.47561808939363254
Ni 9.273513354697227 0.30817066015942074 8.145858093433318 -0.36677326527407156 -0.6039691018669211 -1.0401189579626025
P 2.508696751079708 7.307911655545086 0.40521890472870387 1.732997835588054 3.342752926463662 0.920324319699757
Ni 1.305351947642259 0.6617385345093263 10.852115884743753 -0.18180476141705465 0.30860051358808144 -1.0633874415722395
P 0.7793663053251123 9.140366992242392 5.642931883811264 0.7783765423786401 -0.27808666126994047 0.9849939919640003
P 1.3714242299165942 6.861944620983035 3.3894273802865063 0.09415534042818624 1.7880965763344108 -1.2240387088401308
P 0.5132637364994785 3.5970481411583286 11.740884086966235 -0.6193442987714108 -0.3695706255135506 -0.5455520953806089
Ni 7.629850543779726 2.256104540127522 13.266742884843719 0.39596685611889226 1.336175316337086 0.24156619774640328
