# total energy = -340887.65239038796 ev
CRYSTAL
PRIMVEC
9.08032856598301 0.00000000000000 0.00000000000000
0.00000000000000 9.08032856598301 0.00000000000000
0.00000000000000 0.00000000000000 13.28997870999838
PRIMCOORD
 96 1
Ni 6.657152009602829 2.36710542546214 11.293318921977193 0.1447965596238216 -0.8040263817362604 0.9188654757660434
Ni 5.186747180551058 0.9411124829244973 5.738918322274528 -2.3606164585531153 -3.009159233265353 0.5382511908438214
Ni 3.097726814278277 1.782295951110092 4.845140683596502 -1.1611976051441937 0.36649995700802684 0.06150541560364891
Ni 3.6745183585972088 4.525617545464755 4.822547918346901 -0.7126863992696822 -0.30352772705086434 0.48715128684421266
Ni 3.790601277672368 3.1524267129413532 2.185430753732145 0.2648981876041245 -0.45216062970164067 0.6712433016335471
Ni 5.432442708111734 4.73748884949954 2.9512520358363656 -0.6219395703024126 -1.3792549211353795 -1.5583811072790064
Ni 5.561819228057202 3.1184299631746604 0.07971892767807802 -1.505136131911937 -0.6639421399864437 -0.6646792752627843
Ni 5.4574408523712705 8.13599246379703 12.615724385438059 0.9651838992166087 -1.764783098419451 -0.30228177045890525
Ni 1.946105076588493 7.047842222065894 0.29998681144290124 1.6012938474821328 -1.0198771769944306 -0.33285784347354935
Ni 1.045890393062816 9.390421680348588 0.22898499908961623 -1.485113923153739 0.24125997935989413 0.1053172705822767
Ni 8.083035988198912 9.204184143565774 6.9878839051897055 -0.34396115247556247 0.6240270489590608 0.11932592615654287
Ni 8.925181971201619 2.7093339249164337 1.202095651486028 -1.3347452687587789 -0.7892438241104472 0.6765122633419705
Ni 7.206611765247149 0.9542153968970767 4.665273905263556 0.8372879720028678 0.7149643966705815 -0.4601945557497107
Ni 0.5475002207619343 7.4310411635467135 2.190852617857597 0.5339373939598159 0.30531130131384837 0.7990217294328175
Ni 7.7059571881023725 3.79235378106579 3.6268484502304394 0.5592342208533917 1.2263673569733073 0.2005211068796353
Ni 7.8900971690101604 4.130514293368514 12.594699792914074 0.6269992442135073 0.16371319402266643 0.052665962935148004
Ni 8.153626461672808 7.55918275882117 8.948354969440025 0.7221210623200209 -0.20111323193767947 -0.03194184301391918
Ni 7.3045249470671925 0.7079323720848244 0.3996307038680555 -0.3373333627463997 0.5972937467292745 -1.6639392902274956
Ni 1.8499807194757238 6.878230766699427 8.930520296305207 1.438420375751942 0.0763872178114878 -0.25250135660166834
Ni 0.21864250496988794 5.0976691583258305 1.3465273560236914 -1.1980386852319431 -0.3659739093012278 -1.367223186781826
Ni 6.641388559390495 2.1970127126871173 6.799565157123094 2.089230349231802 1.3540226289311519 1.754288369535714
Ni 3.2748386209554505 4.3606552182715115 0.05711254193578158 0.36312641255010364 0.43138174528307643 -0.18539427854052584
Ni 6.27996424556473 5.894740390836587 4.627955571344978 -0.05164960585549169 0.7273856531530699 2.0668254991740405
Ni 5.694737076103369 3.278180181829955 9.316275350248455 0.5017538672487358 -0.2679691132199643 -1.5410315602569653
P 0.6476607838766518 5.710827418140382 12.41612242122292 -0.795317541108353 -0.19421650481784616 -0.5627897994151339
P 4.021187138670069 6.208719988441474 12.709472420591975 0.8325270602791146 1.3948944274448494 -0.40109980647008336
P 2.53268521499089 8.716788432968286 1.6091377194458503 1.200066000074617 -1.3290099089368983 0.10739060817153764
P 6.617861428342017 8.23622112937522 5.588861354253833 -0.17610488281879993 -1.4738712603603845 0.23800162032359656
P 4.922300774713615 1.064441504113391 12.494945120481667 1.3007678833720695 2.0830090509124384 -0.6820735594798317
P 4.282836803340808 6.459110045817688 8.043493881839666 -0.47831389105824074 -0.4193422976200391 -1.0934814327441424
P 4.765674189049705 1.6063191854908339 3.388718652345408 0.2509131861789421 -0.39825153838801086 0.25348531778149247
P 0.36052445327504945 5.652359183165026 3.513976335299912 -0.43583849550284937 -0.28297175727638363 0.2977111203690873
Ni 0.7667247747863214 0.10845090300173416 4.383074549247463 1.3084397980950304 1.4636881491797955 0.9337045976614048
Ni 1.9478939012957681 6.930143004524261 4.489594066385048 1.2463589696038857 -0.04422863080107221 -0.38334093982476564
Ni 6.191639890601957 5.749436974766445 8.982098378042592 0.10057024281559453 0.747210658298797 0.8770097160725219
Ni 8.863726308161828 2.6271206310094803 10.245324616809425 0.7964048606352607 -0.004506115400469659 -0.005438654517068053
Ni 2.2886604678674667 5.749219046883325 6.548158102958987 1.076472814001288 0.019739130300140198 1.6004556678515534
Ni 0.655657829154303 0.2765931612228345 9.361779600276721 -0.02801242605252595 -0.088928287701292 -0.8923427468851663
Ni 1.6356668070843035 1.1400806402128967 11.408915135446717 -0.9877805535702021 1.8602998379715383 -1.7721505945281155
Ni 4.436067346159434 7.023143728645646 1.6171247763621919 -0.3231475581643209 -0.16974474492872701 -0.3801969948791452
Ni 5.975809563357162 8.031695811067266 7.876718213052296 -0.6629322106646905 0.6393387396154667 0.024819887257157253
Ni 5.397537925498708 3.033147518247103 4.925783988712147 1.0800918988111141 1.103357554207274 -1.3733706944404604
Ni 0.7351615530478002 7.823102505607741 6.668061116218668 1.309592423642235 -0.6926767889169748 0.4044584385296712
Ni 5.5000639141781225 4.521912771451718 7.057576334178578 0.4184948620180793 2.4517751782468222 -0.04071084745580086
Ni 0.9923527764430459 7.55940068670429 11.182174793553235 0.018554623073735788 -0.1959504567898174 0.4563777531067817
Ni 5.084021424645451 0.48681184547729484 10.17386424786874 -0.6973628815387345 -1.5082502520608865 2.007123712438034
Ni 8.651491790988509 7.366961285581022 4.668264057426528 -2.3368604937840978 -1.264436653041203 -0.7487908583017233
Ni 7.491398106842443 6.505038347185192 6.699624337957189 -0.37517588751547 -0.43924752118439836 0.6872970126623003
Ni 2.247562901242453 5.355150952231902 2.330623389795035 1.6415095004690696 -0.14713626350059175 0.776382908987379
Ni 2.5262109407965383 5.4830836999517025 11.049128912875737 -0.2654628018583428 -0.25853727838310314 1.3926033174178274
Ni 1.4779233410194041 3.64413557955892 4.154101354584849 -0.996931881052167 -0.0788927578421609 -1.0415754879034707
Ni 1.5963308241811753 1.3224590373987994 2.422045044796648 -0.17326587070810806 1.1920037918917727 0.9475181065057294
Ni 1.1807968330424505 3.7100769248595933 8.21643600168648 1.2171095858204652 -0.4773864941479649 -0.35365472561424255
Ni 4.07726724725957 2.9266534260292154 7.054001408862567 -2.452783564906679 -1.36785516393887 -0.04864167226710332
Ni 4.449660597869033 7.474145482762123 5.584621748894307 0.09777648212054128 -0.9227077323302689 0.24491634516555882
Ni 8.527790476332619 7.431449778327564 -0.03772331656804156 -0.6698163393790335 -0.37429245646925213 0.16584540987432084
P 0.27692277714605323 5.959083598327715 7.851466727628633 -0.26779427820499685 0.04976421590732075 0.4292346170330865
P 8.750249443355642 1.9211341733143465 8.165854940014368 -0.008166337860876258 -0.6775124224717106 -1.0484426473369493
P 2.0658927696766898 3.2435568893992928 10.192111167915794 1.1123564152717746 -0.14051978662533865 -0.46496343789326383
P 4.025536616004002 6.213877615008643 3.6551827071674023 -0.2474365404842513 1.7811664248734809 -0.27805503670105663
P 7.426337553402711 4.331307596678042 10.36385740850399 -2.0790271834465552 -1.5633032271709721 -0.688118737232647
P 6.504956624229021 7.907958175097523 10.383938554900633 0.01761179954449225 0.3781419121223294 -0.20596310383081307
P 2.6194931551002867 8.794325357716627 5.766335466036694 -0.8670623750518229 0.1665321515287003 -1.9356591287391438
P 6.851180468207178 3.951559180013285 1.4146516122869484 1.490610427491936 1.4827968449847884 0.7579285589369334
Ni 3.1348381167078903 2.010421043094231 -0.14037552181309573 -0.30370641872057375 -0.41714374730682346 0.7825761822822844
Ni 1.6715431848429045 1.118505779784034 7.163949658027904 -0.3293187199720393 1.168649947657181 -0.20439910177780282
Ni 7.095641071096841 0.8817462034641183 9.296645496176437 1.3214310681483759 0.3701493808351561 -0.9299330464341146
Ni 3.2172239368556474 1.3349081677220196 9.244535307191102 -1.9990591902623442 1.8832505332304408 -1.2486696200149334
Ni 6.699893115679704 1.8766768851579023 2.360366913709506 -0.9643693737351134 1.8097583775785606 0.31379491330482734
Ni 4.227782771867662 6.8873292558196795 10.25062662059916 0.37241837937499084 2.2149567795980496 -0.3419595486645014
Ni 7.659602111297093 6.222358641793389 11.026655099929005 -0.1638090961705824 1.9317934751361503 2.1765982344245094
Ni 7.940937928076322 4.070475161569003 8.196541002023332 -0.7275933982885018 0.04356734306798949 -0.7720050916346576
Ni 3.138878862874071 8.870718161078589 12.27667127684739 0.9530282376906812 -2.1272276544111817 0.24571570113840266
Ni 0.41058430409336566 5.153840070199965 10.018065788160687 0.11443311684061581 -0.3638499209796895 -0.21363450433314174
Ni -0.1486268162877201 2.4847229200476018 5.893414662880942 0.2775045635142253 0.0993811076034998 -0.10704967989235112
Ni 4.183806741119774 2.730845223046053 10.94645037467814 -1.0954167020936425 -0.4683328685861289 1.199592145761992
Ni 1.2631554122048176 3.5521609325538908 12.128607440924396 -0.5105007602034305 0.09124793697340415 1.1572666455209037
Ni 3.5711933010130217 8.645417051246543 7.590212057246048 0.4286077820823651 -0.5469528323828774 1.8997300189427024
Ni 6.094144403891226 8.066954726490362 3.297655670318097 -0.5807921495298256 0.5405291882447207 1.1949407630329099
Ni 3.684533960892257 8.773150031740151 3.6307820485207527 -0.9214293798384775 -0.3738075464130336 -0.5184914917183909
Ni 3.63515513470869 4.538393567612655 9.074384480313913 -0.4620413791504623 0.07963709220735318 -0.8042179289217762
Ni 4.951403227438575 4.917606244898075 11.12977221799138 1.606413428096885 -0.4876343971282183 1.3111039751907547
Ni 8.180131940457256 0.15646041565303143 2.5900311213681784 1.0546261504398418 -1.1664598819843977 -0.44434524742227993
Ni 4.934096121387475 0.40794646867476947 1.461312696161442 -0.7264826817228262 0.4975015197302851 -0.3792539142395856
Ni 6.312190331281074 5.743126146484433 -0.004639139811913257 -0.6664085992490651 0.7334758252112078 0.7399118106445386
Ni 8.352458414034258 9.111473989955215 11.423214836710763 -1.0863270810875485 0.3669146759479423 -0.17264237819149622
Ni 0.10547800346284124 4.934622780438348 5.987201743447251 0.44099998509913085 -0.11635064557830285 -1.2962674243985546
Ni 7.286355209812077 6.181578886664592 2.5375223059633036 1.4014034322079607 -0.37863556392929626 -1.2483898839909855
P 8.82278310712069 2.0021761048495312 3.6069670710599873 1.1469189837379925 -0.8932210357250615 -0.19800502532600092
P 1.887555118656967 3.1345838675109174 1.2383670235327837 0.07070430849409759 1.7428500457917855 0.3388282021243713
P 5.163792110195771 1.3756243605515732 8.107604632922133 -0.3050621614175198 -1.2490614561367133 0.47411270849269954
P 8.659918335802477 2.0249949702778696 12.403337318746557 0.16438450905807817 -1.5523549556895846 -0.14461066886526064
P 6.7307389914696225 7.91043710476801 1.2360706084644086 -0.13089871859580682 -1.0392319273719586 -0.16112332180830316
P 2.038660864615175 3.497161383051525 6.243286074802818 0.7899773598423621 -0.537196524327062 -0.8576788769543939
P 7.169800113656825 4.196237710786067 5.839430294100776 0.023059452922624804 -0.059409195196252526 -0.3563703247731927
P 2.6532538163269326 8.556302707707463 10.083292511611296 0.07980575657473352 0.09568231859567392 0.27240298062160184
