# total energy = -340890.17342374066 ev
CRYSTAL
PRIMVEC
9.05883019598012 0.00000000000000 0.00000000000000
0.00000000000000 9.05883019598012 0.00000000000000
0.00000000000000 0.00000000000000 13.25851367240595
PRIMCOORD
 96 1
Ni 6.350692848657167 1.8085229608324858 11.218174384564193 -0.6057333928561955 -0.20048202611158375 1.4190568836236657
Ni 4.936591350816669 0.47081638907614104 6.12409436640113 -0.6543087306617377 -0.11409295989237771 -1.447819557578655
Ni 2.542143258465539 1.423087857309677 4.916774254067904 0.1580631948257407 -0.07954710359670816 -0.23794865559847403
Ni 3.513494434676882 3.9949803138566513 4.870170196683691 -0.8906370770479695 0.7244720790507008 -0.8716690205858988
Ni 4.980581029831118 4.3311353815807365 2.5150736623306593 1.4779382313409064 1.5720133533504603 0.657886420710667
Ni 7.5015175670090075 6.257124192450363 2.5777335902019405 -1.6107642488664131 -0.06438350848239234 -0.4527576398556912
Ni 5.325649986383501 4.372479882203048 11.896161688842339 -1.1832468716347495 -0.9221030088667346 -0.6588166458344202
Ni 5.66067270034383 7.796618016674304 12.54089674543549 -1.168666145607097 0.8214399492270176 -0.5327667706904824
Ni 1.8776871287227896 6.582970311509201 0.37104062247792446 -0.33307638724225863 -0.25977115079020424 -0.5815089730911921
Ni 2.737623753410512 1.5335421728416316 0.3086660477551102 0.7669783278440275 -0.037073250703213566 0.5783920247287652
Ni 0.33950411721577456 0.19317774033099547 4.498136726425705 1.249548423075461 0.27823912768740466 0.9988666361810346
Ni 8.623190970066677 2.2376940961266616 1.383128451811194 0.8114627834096476 0.432570623384855 -0.37397518233914945
Ni 6.874972641276857 1.0124420295905727 4.762272283008795 -0.7261864906386462 -1.2790083802077907 -0.1341125975474142
Ni 0.5249782284211755 7.364674879366451 2.3859355096967074 1.6941451243869143 0.12809930147379872 0.42263896609343987
Ni 7.649819674740791 3.9541249900602833 3.502448097240676 0.26831698347768623 -0.4980913307954841 0.1458172875788521
Ni 7.619853064736715 3.383355281315769 12.695291822299298 -0.633077074976471 0.5013738582014978 -0.6421607824452942
Ni 7.905206213203587 9.011515840394596 6.7513413514668095 0.06961030409897044 0.2580246004127427 0.687970384580241
Ni 6.706985695715915 0.9025720086007168 0.6378258868682077 0.477566471369255 -0.6691146853263186 -2.8603779779621705
Ni 2.1046017641496686 6.436606793420971 9.016703832398626 0.1757978931013424 0.5801300904657943 0.795949518265397
Ni 9.053847753498902 4.826861741693519 1.285886439994761 -0.049551071455250145 -0.3285167928960342 0.4409909862380664
Ni 6.447305271780952 2.223843144888381 7.050838051384519 0.663104988797129 -0.7433745723821584 0.13251208582951374
Ni 3.2553087177100783 4.571140026516652 0.6595208790987892 0.3197238771947526 -0.561152263811711 -0.22832655912767774
Ni 6.402119827191974 5.699670963967636 4.842208305782971 -1.6918810109430864 0.693227262103806 -0.8252891477697786
Ni 5.533260254845844 2.9762605149998076 9.20171322561938 -0.932499264499394 -0.9429446282024341 0.40458725079805163
P 0.13511879227261353 5.656596226794304 12.566803187784238 -0.1947276401263098 0.9968033258941027 -0.6855257796944904
P 4.024358099903574 6.057838988859166 12.575448029358267 0.9902554974732557 1.051589420496047 0.9212758849797488
P 2.618753784706312 8.1937480698692 1.6513613172530648 -1.5600196713236938 1.9739860493438002 -0.3262426521498768
P 6.314973881533203 7.786635185893019 5.958601316769487 0.165159953771522 -0.13944943637929533 -1.426387612957124
P 4.8238270336066496 1.0051043772014245 12.619944096975866 -0.7372969987295109 -0.32955140480813566 -0.5447357701269006
P 4.09378497386707 6.0841095961783385 8.096934540716973 0.7436895325194159 0.7308918665341154 0.3760451774943007
P 4.644335373805932 1.2031485210675439 3.9719853795052766 0.04744842328995054 -0.4560861900082919 -0.009413322894099917
P 0.21382643768386492 5.466777500668118 3.610519034570674 0.7505127260888365 0.906308207926323 0.7257249776211954
Ni 1.5779576168712532 1.0435500521885168 2.55095115898155 0.18530326148861634 -0.4208026842156495 -0.09767800886946404
Ni 2.1931518284754996 6.071345704553264 4.831070474162653 -1.1361900273562626 1.0750522795046773 0.5236609517344724
Ni 6.058799224850832 5.418910642366564 9.161739325992723 -1.0452164270901676 1.4187984877559565 0.2231139045784867
Ni 8.60082471852494 2.2687658834041655 10.409484467692089 0.7360060478322292 0.39225624003652443 0.4956963482007463
Ni 2.628564497715506 5.098400174242551 6.907460323700564 0.6854334770910002 -0.08977520908261957 0.7104680514621248
Ni 0.48925020246710105 0.006602981267222322 9.252811368621193 -0.9518406451404833 -0.1749211469233439 0.18826568655104997
Ni 1.6465601372947334 1.258153737495825 11.577174915942837 -1.3737391335234728 -0.7706033261911245 -0.9585429968613233
Ni 4.0366599911930345 6.666365901502409 1.8675937802141616 2.065677501612526 0.4256227313121122 -1.6309759479275976
Ni 5.479142803768349 8.024846182467142 7.93312552760279 0.600579873679714 -0.9569170312221261 1.5514193312491926
Ni 5.62415655617018 3.1701375970152994 4.778607165463255 0.28044359153789117 -0.3774243172300145 0.06324116734783301
Ni 0.6125897979476043 7.245351969156748 6.795253124542312 0.385877075983058 0.9021738740429753 -0.32229369480445785
Ni 5.078724395243501 4.278784402374703 7.207592953491997 1.0867245736362834 1.864948135376827 -0.41131737043303357
Ni 7.938850708232347 7.152245313285557 9.155878262911514 0.1390491156170831 0.6194998505126685 0.2923634829039288
Ni 4.424450390544459 0.3181334311031333 10.279710385184408 0.39192276795650566 -0.47327041509706236 -0.03349093266859394
Ni 7.995812631964402 7.558778432134694 4.541292993070027 0.0007101386931471641 -1.256460576814262 0.8175048758386695
Ni 7.418792330443946 6.244903830631893 6.9815488716386955 -0.005139892329726632 -0.8936308695689708 0.4944007693177744
Ni 2.1736481672485413 5.498175405829584 2.6149898407955825 -0.09793331941337972 -1.2143163393460443 -0.3345105485856239
Ni 2.468485910840646 5.216989319213339 11.431821457411878 -1.698084568650637 -0.7322190699859713 0.3453402922112762
Ni 1.1216734030576694 3.337427012657767 3.482467941549929 -0.3292284742510782 0.2508275684436712 0.7144416913978922
Ni 3.495621362869735 2.660678050455667 2.7831606806077587 -0.6500460987306417 -0.7879392463664107 -0.0656970850874933
Ni 1.2217100639630558 3.6850233828108574 8.411148216031483 -0.4592159938865253 -0.3602035824763538 0.06570017041128685
Ni 3.783411336636213 2.5830438764124573 6.779542395482435 -1.3546173250923574 -1.2173235016034842 0.3212071466084984
Ni 4.122130053281445 7.1287285903198425 5.987955549858124 0.022499209543780607 -0.5096492108364127 -0.3779025424180137
Ni 0.7375001945691919 7.226980661693547 11.001835027407799 0.16836894762712293 0.2955315962192653 0.7982180025845995
P 0.30631709310757177 5.767829601715723 8.294658907880207 -1.4174954526738168 -1.3576977637898942 0.16941204417965663
P 8.394600451069438 1.6902236984252197 8.298039663277281 0.8807938657053024 0.18178162148860305 -1.7915423687911662
P 1.7731029351021534 3.2308679940731384 10.520391724729546 0.28256243765310696 0.27107989093480406 -0.14343644605150135
P 4.3192411376462285 6.033552265334096 3.864419019012409 -0.5714294773680029 -0.44515565913871724 1.3111895929260258
P 6.988090252861169 3.898367890732868 10.59128522328786 -0.06889399475823618 0.39502994612691966 -0.37317325526314443
P 6.014891075307375 7.591716338414869 10.19305271046857 0.2179382739148182 0.6786593915919602 -0.4909575479641803
P 2.079680922516895 8.434359656422489 5.776800561173715 1.0328581626351307 -0.4045029186143614 -0.3816355270978847
P 6.894992655820088 3.755972140232843 1.4080674111041873 -1.2358572987416134 1.1492538025187562 0.28043510689745893
Ni 4.82398103371852 2.799214739328806 0.7167047441685394 1.1312306264684584 0.03708353511585871 -1.234396655035687
Ni 1.1213835204941474 0.8485605458355094 7.141260575894099 0.3454500783162631 1.4960529386637462 -1.0183504559372591
Ni 6.904984545431484 0.606306593383267 9.28603734569887 -1.309914582868344 -0.6026982055742975 -1.1003020552104017
Ni 2.5883885861773925 1.7200272494873152 9.076354416907344 0.6084047690407716 -0.45059919875179166 0.20502156585315015
Ni 6.264380315368521 1.9447043538770095 2.5927821187807716 -0.04086177121136834 0.8946945349467947 1.0830291270625672
Ni 3.957023815695502 6.768286799070688 10.509095363582302 1.1823721823392799 0.9706171544170381 -0.8313330399710135
Ni 8.227972330025004 7.744774331954434 0.31966165574270033 -0.941030956119489 -2.0175683048101254 -1.227091122513209
Ni 7.720895255784318 3.839494553847591 8.466422479714033 0.890706239723008 0.09415276932502495 -0.714291538973273
Ni 3.090863774722169 8.267043064289691 12.356590317431275 0.38034997551724176 0.6461673325015259 0.004094224674031659
Ni 0.051363566724036996 4.937270763074924 10.46689389763158 -0.02178264309273023 -1.0008499851596506 -0.5741813290815273
Ni 8.497925467304775 2.4078642197441282 5.5045772810683635 1.4620760674976692 1.51643998696053 1.6657629736997956
Ni 3.7113302254504705 2.5078555864989642 11.42194461494288 0.5799858515784463 0.8046930687859819 -0.3730932939548284
Ni 0.9193444325494919 3.501989720437107 12.60229659003846 0.9019820697471432 -0.1334407682913702 -0.10876743391440623
Ni 3.1144620271588743 8.455765671972559 7.967518281998642 -0.6572295038529584 0.20092014209026687 0.05856613046966688
Ni 5.76277477451431 8.156815219510488 3.630472919654102 -0.6100585025941107 -0.3665511219609365 -0.21114027715637831
Ni 3.219644103566774 8.17245981911056 3.78873974050695 -0.15982697159438283 0.6382434496687589 0.2220859775346046
Ni 3.545752928698804 4.384301655496675 9.460665319613495 0.24897688838817766 -0.6111455650107023 -0.5104004871801404
Ni 7.038756289666732 6.093422073531479 11.342909945764656 1.464189514296246 -0.29007057310469403 0.0022129484909187693
Ni 0.8971213105234941 9.080208949119175 0.46178564133942285 0.5258111653082558 0.4284005511675654 -0.3037483277021027
Ni 4.597682398739126 0.4824089739679841 1.509494602431468 -1.2705245111064958 -2.0562186701924716 1.3553076662911627
Ni 6.349814142136492 5.6854757771851725 0.22913404880384336 -0.004583762715940493 0.04025653352720164 2.7154394934438457
Ni 7.697695591872455 8.643672984945521 11.26956422189555 0.782525017329375 0.2199085102673116 0.7665252994670089
Ni 9.44817862818979 4.795427601211613 6.336906215112668 -2.1209888725903214 -0.107955222425756 -1.4265773603704268
Ni 7.951143540691699 -0.07748651511241539 2.4713204187820836 -0.26783207342146775 0.4233696736118773 0.3295570612350905
P 8.427955063534677 1.8214499113995406 3.46515198779455 0.3539840839292033 -0.20278984830915397 0.024017960181152185
P 1.7708110510843085 3.1084922581163448 1.378435071931172 -0.2407475584998499 0.20291814635690214 0.4751506628389108
P 4.674175160188468 1.1171349291725297 8.135251580316503 0.09563989539351271 0.4320111513369592 1.4419795538581102
P 8.4665185033132 1.2914811734707334 12.546001396202508 0.5781482841490752 -0.3804654180491835 -0.7536903524858697
P 6.352341555737198 7.810930968248199 1.341244044914323 -0.4851319424213387 -0.2714997520810421 1.3052652570217906
P 1.751832802003734 3.190483729442493 6.048613476275081 0.1234756866588583 -1.0800453618438948 0.07211970078438547
P 7.098653274354445 4.157685961463429 6.127527663012843 0.5637022839270743 -0.4019498131752045 0.36442559097750143
P 2.2845463654558893 8.64196086605472 10.187602918274358 1.2860334053753721 -0.5742119252091465 0.475998869771819
