# total energy = -381159.47610146244 ev
CRYSTAL
PRIMVEC
9.30662985030079 0.00000000000000 0.00000000000000

0.00000000000000 9.30662985030079 0.00000000000000

0.00000000000000 0.00000000000000 13.62119351447595

PRIMCOORD
 96 1
Ni 7.346337326673774 5.4469006690428605 3.1349448429830895 -2.4825553968524727 -0.6283513873660275 2.5301742842820167
Ni 5.332019627852257 0.1635221430848574 11.170454875914013 3.2828117700233403 -0.5035135302523199 0.32657792400210855
Ni 6.521323187054159 5.831981100130316 11.783994461177336 -1.013145771807868 -0.4110268357758083 0.332559338396524
Ni 0.1626715170993729 2.307327638941812 5.353469548764125 0.9154266252878235 -1.6158262367703526 -0.8397174073799667
Ni 2.378579198513689 8.833797392407053 5.618047734117953 1.673834952074653 -1.420497215614618 0.9515565382411612
Ni 7.313215030368091 1.8827591766025957 6.763494729928199 -0.34840581851047736 -1.0303508228322449 0.10551241731221828
Ni 8.631089683546676 8.771340598221203 2.485023779574732 0.3950685126743389 0.15183675430005464 1.5624845879244187
Ni -0.03692312401325308 8.231304776998984 12.146712921609188 1.7785762955488014 0.6294471915333676 0.8692436989738578
Ni 9.015416277601043 2.198858865847477 1.0287967642493965 0.8443096547363395 -0.6770478241304663 1.7058390157850751
Ni 5.730706352055451 7.930840226218151 9.039337108788033 -0.9772847962452008 0.33997697101683383 0.13886065375536083
Ni 5.303122541583884 3.9466067604870076 1.211739052234807 0.5905309740841442 -1.1217720521587198 0.9274789284666671
Ni 4.856032034552406 6.093339191490951 2.0558736632677475 -1.6802385416081516 0.5886219299868896 0.8590675297718043
Ni 1.1004066290777412 3.9730562030553562 10.82993831210111 -2.2852024032881744 0.8744787221205521 -0.7042248987658905
Ni 6.909363126493739 2.070073719379917 0.2425596293466291 -0.49139669238412786 0.6405638702718194 -1.083039154364896
Ni 0.8019495183961319 4.2087279955107695 2.0175852566279016 -2.261465978903183 -0.30894298452916474 0.43400144229411064
Ni 0.32652311488757985 1.7079062114463224 12.502921394329372 -0.0317387258641776 -0.5001932076298353 -1.389217174554414
Ni 6.501509371702993 4.16283700279278 7.724551326119102 1.326497941148322 1.5819046443222433 -0.40068277353732284
Ni 8.667860178827302 7.4669419453378225 5.3697738339279155 -0.5082651860046924 1.7831556873893675 -1.4280883976983147
Ni 4.722128241563879 1.9367376308237148 -0.08437483858863583 -1.928098028562434 -0.5721576137832791 -0.2841053566601946
Ni 7.768690811063917 2.6114124688074742 3.51368187503656 1.2874061173531828 1.073767499254983 1.2239047543654276
Ni 6.217089451107886 7.413168236977542 4.621561728034915 4.130020857794661 -1.9864936948925078 -2.9721764853934167
Ni 4.703077569875839 2.4431020645680026 10.550500230565412 2.14318006397538 0.565199180187575 2.098957089601263
Ni 0.6301230693282566 9.265727399106426 0.5725327119893415 1.717560160876745 -1.0994157959507065 0.14910007209518192
Ni 2.114512877811959 7.507779437945111 3.292201762726282 0.20772868037166808 1.1874920200643484 -0.21260940550273705
P 0.44251350637872666 4.669824980749623 8.491874596795391 0.7743177989282343 2.1357017533204634 1.3570053657085597
Ni 9.08845471014024 6.5104995763198215 2.8687873225117935 2.638999825127868 0.8759918163309688 -0.2872295041114731
P 4.5276475936572025 4.202743832396256 3.181516150356866 -0.7460454343461023 0.6823882625067732 1.0666002920825823
Ni 4.347257183628245 8.687385488647287 13.23444764322702 0.570791843784004 0.5010136466486016 -0.5748274473059584
P 5.9232419142841595 5.232615512415056 5.328692507613628 -0.1320415739509984 -0.11220602728230998 -0.35318832750078527
P 8.164073681603575 0.34848583111454867 5.040713731691943 0.23196724120405857 0.19949369405638545 0.3111366497463739
P 0.018653278585411895 2.2001990205729665 10.244935646523686 0.7825075338278781 -1.146646446802896 -0.18747764343211581
Ni 5.2263149238792455 2.5466290171120933 8.262956625758644 -0.2069360092670436 -2.2402332947766515 -0.9350197169284026
Ni 7.078445981026375 6.325977022553937 6.696328780943058 -1.1125065676963937 -0.5487361495355453 0.9400217981286844
Ni 2.465661335780415 5.433257149406971 2.5751138196697796 2.1692885881369737 0.16886465631661887 0.781687351919428
Ni 2.822012199940182 3.0026538889801686 2.495116819851077 0.8563177349408092 -1.363094509325433 1.0910057175101404
Ni 8.644156192120201 7.446821011195398 8.235196809680927 -1.086724059415651 -0.6543781504470924 -1.0567056586766899
Ni 9.12193996501741 2.851020965769014 7.997152757228796 0.007247682701348809 -2.4071590821993447 -0.24784817410037316
Ni 1.6062312782798178 3.924456980996273 6.588231342387244 -1.7577076796299085 1.1164575819243419 -0.08396323038653282
Ni 2.0881471949139536 1.5305962959599841 6.873009568238819 0.8094904901746253 0.7029084939473121 -1.2474558022124904
Ni 3.9699850151427754 6.2464239489880535 4.478212636220695 0.39712873763747736 -0.5943889143776537 -0.12886754709839096
Ni 4.961736738525419 7.833688315250175 6.1032619204376 -4.358200092711198 1.6348225753671974 2.7717703068250907
Ni 7.683414160024586 9.324591834097559 0.5433443282007733 -0.9766990989450599 -1.4608712485562905 -2.2209147969536973
Ni 8.29536231155139 4.007220841925309 5.998270104325508 -2.423228991178014 0.48361704843870906 -0.1626281884886038
Ni 8.838999798598364 5.7591939466021485 11.958168973003831 2.0194359541464832 1.638780531573681 0.7770974185559003
Ni 7.272154178639887 2.5454191552071377 9.556275735581638 -1.458454668694998 -1.1443123993530808 -0.7242339948979657
Ni 0.6872508871542768 6.318885370464886 9.914335297016404 -0.097559995234361 -0.10808352047350418 0.09681566086916875
Ni 6.116763979296911 0.955576852424456 4.703003116835534 0.6901044002041082 -0.9525016757632498 -1.0885199749738093
Ni 2.97437104029431 7.736517791022122 1.0048173012931663 -0.5427570491339749 -0.12534873531185511 1.2797650558681573
Ni 1.0532499346745672 0.34092605553458055 4.076618520793592 -1.5052433469137625 0.7997310967950163 -0.6828613454884498
Ni 7.50356353453784 7.759393487655831 11.059851161888933 -2.095210478074637 -0.5780701226129722 -0.9731610038848142
Ni 2.7909001357227337 6.451635141328687 6.620104688941812 -1.4289929117904552 0.4328734993372545 -0.43725877288914367
Ni 6.421481660005165 7.716918028161833 2.1148125512991864 0.7849814492896674 1.5294076028647918 0.1133285709225274
Ni 2.7054187388225652 0.2388872331335854 2.340393164804262 -1.470865383654525 0.8712471025571317 -0.2746534672186754
Ni 0.866692951582349 3.889575731613384 13.451759315943221 0.48209984046323423 0.232312026137987 -2.1332602337585063
Ni 3.501870830855177 1.9618841451867257 4.670789147621572 -1.0020393774820613 0.23745346112961044 -1.561383127330124
Ni 4.758749830763898 6.158104029926257 7.628481776224559 0.9424193518265834 -1.3595556429342393 1.6280194364024347
P 1.3133144044599037 6.709996497817047 5.018551853582158 0.5214893980044503 -0.31991131061521033 0.9749150104614436
Ni 6.803072104828325 5.83320026866531 0.9288658935520363 -0.865277258126942 0.8175820089335081 -2.700775206563452
P 6.445827804184899 2.8357022527262625 11.822066023337293 0.9118142253462167 -1.1000349175919442 -0.606132170956511
Ni 8.663597742269843 6.985993918227651 0.49847706478697756 0.4107149609623443 0.8174488257897535 0.1532043240715426
P 4.469034437677097 1.1933147167483331 2.664591483508319 1.6768315728091314 1.143040988839825 0.3050968713101971
P 2.5839579101950085 0.4891443761847469 12.349669117491585 -0.8780224736077524 -0.8788380275305122 2.33029878140618
P 6.365455747175659 0.6203278412131311 9.062506894930948 0.3754319693903341 0.2922087024936193 -0.0643156313589344
Ni 4.572728909561875 1.06171896800926 6.3497098598141575 -0.509197982231607 -1.7801580382136244 2.787932004186618
Ni 0.6045465886574841 4.752216576477134 4.44653007558191 0.139990653594746 -0.3134254457805505 -0.6063167761634912
Ni 9.495182362696372 0.050538723759028466 6.843015230288949 -0.4503911965060437 0.24017008872982507 -0.11280098055383153
Ni 4.000613134598241 6.092436448377255 13.367757673219115 0.4818262750868734 0.5858032295911718 -0.6160478874083262
Ni 6.894658651033502 8.593453671672501 6.9126744254613035 1.3077602555295027 2.1989264656080647 0.3035063868946257
Ni 3.2042820287561247 2.9054275249718873 9.093427242569609 -3.0356477664741846 -1.1588548159436298 -0.5725556205526461
Ni 2.5094769499999026 7.703823599698192 9.122440661713462 0.10742480384358273 0.06542454815239701 -0.5531936710862666
Ni 2.675991174642017 5.014384344651086 8.62699662765591 -1.0709326009093492 1.919710061609055 -0.6295749753604835
Ni 3.3902471101779184 0.4046383141125735 10.469916913054307 -2.148519216800106 -0.6000682241506181 -2.8668905822697077
Ni -0.03850990443475322 5.836885694160408 6.790710108148685 2.7358149717764046 0.012579636437223497 -0.05164909163485944
Ni 2.485102885930056 2.406312956027298 11.497091531688058 0.9031719762901865 0.18158853164119051 0.7287984743401964
Ni 8.045646814368448 4.401189104699173 10.327452881756713 1.0407077405865366 0.0776048922686728 0.2649755778092791
Ni 1.4784326345962993 0.9662050239279935 8.885554354038073 -0.6728808372369702 -0.1849458781491976 1.7208159488098813
Ni 7.8777365952206155 4.022576781488214 12.96657304951369 -0.5142658836728176 -0.02400381911376511 -1.1622612705220177
Ni 2.1325770467159577 1.7733225139842956 0.533552822737663 0.6240054516925059 0.252690589794339 -0.6646589635478101
Ni 6.687334853674215 1.1212720936232154 2.3306137579602018 -1.669829173349369 -1.1620864355070502 -0.14024853524182299
Ni 5.531507242719445 3.041471842869184 5.602628509470788 -0.22136118355343815 2.207565629340301 -0.011313882350922452
Ni -0.0737894775832736 8.681131433261667 9.78948406306596 1.7210905426275067 1.3819062427152975 0.9836503334519124
Ni 6.927045723566175 6.022273764519837 9.314186091051933 -0.6742034127031357 0.10009021785538247 -0.4817709963689058
Ni 5.069051489495027 4.202818285436561 12.605938343547374 -0.8009896517924657 -0.5033569500697976 -1.1271873096370202
Ni 1.525105384237491 6.126154369005377 0.5760924979789239 -1.0216399253218085 -0.5622233853887026 -0.5592144233590497
Ni 7.856154520162205 0.7604735909682286 11.058979130654361 -0.5750115382923064 0.5083050381036923 0.6765531438822349
Ni 3.11565499090307 4.028774997093604 0.5406267922296412 -0.6891425505114712 0.678335175483322 -1.5452360852566163
Ni 4.668857091225657 8.54762782536478 3.565197794949592 -1.556114422732017 0.2757055626322736 -0.572347361196582
Ni 4.036397127094828 7.116900976343904 10.90774266988283 1.473157265012495 0.2521282895329658 -0.1646310778512455
P 4.547982580290503 4.780890303624594 9.626846980497728 1.6568643856585852 0.624255362919783 -0.22183915163112117
Ni 3.0561763183294195 4.915668919836706 11.178164488237595 1.6061529753466468 -0.0521370870148715 0.8108210360605907
P 0.8139169139621556 2.320142868504308 3.039460680117945 -0.7341291425244906 -0.6660597005500787 1.0747463182284844
Ni 7.573177127223008 3.9558854706350175 1.553074599491065 1.1070380883826547 -1.9659248696022207 1.003542444390149
P 3.5315403674167163 9.330734209922722 8.072110216881853 -0.6261386959854248 -0.11832293881332524 -0.39311678826460683
P 3.4739695540008815 3.2987629369031595 6.8560919761555175 2.707647251092937 -1.2409732798119402 -0.15200721843964787
P 6.251523982248945 7.568970530445776 13.089313539771487 0.33090020552654625 0.44426374345206715 0.12595448721665403
Ni 2.0440430751632843 6.848181340623112 11.947844197639537 -1.1671803050901899 0.5656573507709162 0.5770216267437998
