# total energy = -340858.21771400934 ev
CRYSTAL
PRIMVEC
9.34936121385175 0.00000000000000 0.00000000000000
0.00000000000000 9.34936121385175 0.00000000000000
0.00000000000000 0.00000000000000 13.68373518438193
PRIMCOORD
 96 1
Ni 3.542024150585284 5.457016386782483 4.278562143181425 0.1852263855040939 -0.6842451132098537 -0.3165912451030419
Ni 6.602902130999707 3.394360341408233 7.669077092370174 -0.09086792792616608 -0.26333521399237875 -0.5962714761123473
Ni 6.949071575003093 1.4359029254678333 10.806633857827373 -1.5040899500356097 1.0570686984430633 -3.04066090341806
Ni 6.834308167528844 3.2687984218661414 2.921450023428336 -0.22693533520710593 -0.7767071250960171 -3.513120906798685
Ni 5.142485180733709 1.1637897707193177 7.796075073776872 -0.2802983242092785 -0.49413337458900064 -0.6888666711422653
Ni 8.084074662902598 0.7017826776515569 3.0852583093488923 -1.5981331903659637 -2.1526142128050862 -1.7885665739922938
Ni 5.071617023613154 4.37331324322605 1.453075831932086 0.29713210793716566 0.9137947461113554 0.6529231631681207
Ni 3.9408585456520053 0.19332795865042976 9.698716803964013 0.08748101373180417 0.2739677540055604 -0.2713084620058424
Ni 0.42496305452645966 3.4606566609520133 8.718550355075713 0.13945072193087596 0.5751038408957967 -0.3867095991866824
Ni 8.594568477559132 3.448165914525488 6.403249329566685 0.859402801624036 0.16069163358752325 -0.26910528370693654
Ni 3.1613742628535855 2.5941859225006065 -0.029167201816490105 1.6311448694052941 1.372173845918882 -2.0116216003083873
Ni 2.583723987432282 7.760820502949671 8.521765002691353 -0.6540192244457769 0.347009452383583 -0.5321995853331027
Ni 5.95161628757293 5.186735706809116 9.61203046280226 -0.7805532383149848 -0.5912812219866075 -0.6520808697724835
Ni 2.1708375026357194 8.543249834493865 10.96978488366276 0.09345831436116163 -1.5167148378884716 1.3450541068839545
Ni 1.1342083922061996 0.015756478257951335 2.6927403426397762 -0.5001690392601191 -0.9898929719275145 0.289236764349489
Ni 0.9480813114732172 6.910374569419719 12.645412907164463 -0.8889470909400561 -0.1735108968393786 -2.364214717427335
Ni 5.226592033168605 5.357324149397724 7.208331228114494 -0.017460104457976383 0.05506994439095032 -0.5549916435269537
Ni 7.197502798091139 7.193884595346329 4.544190581072577 0.016691858833384157 0.079804728133469 -0.09357967043037431
Ni 4.203715832913799 9.458561635319649 0.6983963390619704 1.5967450517691855 -0.40901931842747624 -0.3615559827391902
Ni 1.5652232881711996 7.222689976888339 1.0312363989483675 -1.4613307046912125 -0.23911619354401398 1.507999826612977
Ni 3.1737154195025474 6.087210071572851 2.0561451503058126 -0.693732998095631 -1.8465220674611553 1.2456478024694742
Ni 7.137676236426966 2.0390021617970726 4.68473578670984 -0.5995408908922385 -1.8602558721074802 2.683182176072037
Ni 4.939865827024386 6.918882488018625 1.1377274917233733 0.37646940951591296 1.7702004127802802 -0.2826575684700745
Ni 5.094775391052154 7.8791740650854365 7.73994431455462 0.5914923095561491 -0.37462978520401286 0.8679059539990408
P 4.075713730125209 4.106837753219447 10.53852877418144 -0.046050000280527144 0.006126938833344286 0.3953094250405514
P 5.014903799194515 2.881155212033365 5.811742366062482 0.8391162834608581 0.05664937306292825 0.07332066307102211
P 9.22822142595565 2.1669014216135882 1.5489582046695334 -0.7707025707731501 -1.088571397037035 0.4768393633952433
P 1.4063495950380083 0.2545887123069896 9.43653641044569 0.13590825599525627 1.5277237874044656 -2.2361524398390586
P 7.6791631831223714 3.5182580746749337 9.579326397682511 -0.22780488229625284 -1.0366657093066791 0.5411100004488553
P 7.193099249014123 5.940649487005331 6.328371231471327 0.006327484879924587 0.5261454087192229 0.776320945401192
P 5.913050173044923 6.543169062946512 11.297880142792076 -1.088249494921242 -1.1456869111031045 0.43769431776466555
P 5.740872339069708 5.951438649712075 2.9655528295983995 -0.00392813140981259 0.15156318892369383 0.7627789450506992
Ni 0.8125286646621253 6.060835523916245 8.2320114734237 1.1563737013929891 0.4365846296402545 0.3818113905541166
Ni 7.74798383016253 8.320706992285347 7.249177651814228 0.9203060648673118 -1.7020173280461397 0.3844729965466798
Ni 4.9046561331304535 1.9967617483576705 1.744224285875516 -0.07658159321048101 0.918244811462909 -0.3555380586798844
Ni 1.035170610098279 8.367874519023236 6.79621887041682 0.3333417250885033 -0.22289176126535165 0.6609252075369908
Ni 2.0510628376131033 1.8729388099797513 7.589191476470889 -0.08857990322293777 -1.2891094731975348 0.517639942351373
Ni 8.463219303497565 0.4239654776973352 11.7956261035919 -0.747154351139565 -4.549037396644166 0.8482429283524745
Ni 9.2381784955247 0.986451089418172 6.1987320555545296 -1.2699935783036902 1.07542534657338 1.2716838215219195
Ni 8.478888832697308 4.500950720931831 1.8118089473785592 0.22206669426089498 -0.1390280325711606 0.5085032701574275
Ni 6.924314466816388 1.510277093000025 0.8810725706137922 1.171403342032602 -0.6867231424367012 -0.5516841764202757
Ni 2.031017807419638 0.5003563024183006 5.181496324849966 1.3141944411906206 0.9841822946959826 0.7183973336115306
Ni 8.540501122331142 4.966380615097459 13.21753023068815 3.480662272049347 -1.886656730698512 -0.9599514471730758
Ni 0.9326632800870025 3.5732229685683037 0.34237360339772016 1.0579636994535069 0.7504631037978237 -0.6086978748011581
Ni 5.061641255321909 2.378206331782673 11.67473045017367 -1.121796734749068 -0.18794635553841826 0.30297442565055566
Ni 4.481990216625698 3.2138428773338696 3.6554047875531834 -0.3346429603984301 1.2371029982232566 0.9216566653579353
Ni 6.902371516320089 4.493078558887569 11.781134593890467 -3.4542547285900964 0.6261199269323475 -1.3816339628905172
Ni 4.851430220401255 7.895843975922633 3.8450472280589003 -2.1858500920400807 -2.1588190560642175 -1.458713064562707
Ni 6.827165255650202 6.046278568687128 0.2635968217246221 -3.352705409690684 -0.4335201317823179 1.45867835467003
Ni 2.003483938986916 5.643339804098517 10.619385788698777 -0.9689965880944795 0.44384336808519687 1.0388917704237204
Ni 3.487797856218632 1.1916695655126546 3.4148036543844604 -0.5755244733729831 -1.7859263081559695 -0.021148866163473255
Ni 7.899050806779143 2.6648577430381097 12.515404431484308 1.5560604295656297 -1.2568380147583385 0.16772180096142725
Ni 4.13042619126894 6.979709431320251 9.882010093348283 1.6476675496506659 0.49799285754440675 2.1442257316310744
Ni 3.701075481579331 7.130523975187226 5.707034196448808 -0.07544413717192813 1.3418996204153728 2.4643383596238135
Ni 2.094256885884471 3.5227644667240248 4.7261020348866065 -2.2300537831404887 -0.4191456082282008 -3.0104067325192094
Ni 7.847059009714842 6.962777738372319 12.108559503829078 0.2860573381802428 1.9962983396877554 -0.7202030193617015
P 6.279414237019339 9.062513349860042 13.09480116755866 1.0544109491052422 0.970345131702574 2.580401298758369
P 3.4542710473222855 -0.24033093663299931 7.0296359545180716 -0.6841435546349831 0.8199039721984653 -0.7904231891305291
P 6.087406408155904 0.05187025537003145 3.955036851756665 2.303343850083891 2.642189792820075 -1.6063260105894013
P 0.04260690839443174 7.2639861048568735 10.53390364524641 2.224679663312769 -0.3828570582098116 0.5179505316132563
P 1.2807783261348193 3.7177173443332343 11.573456300891179 -0.8335706710522807 -0.8978379656717828 0.19081210712198748
P 2.71372685349578 5.699342477073731 12.875738157550705 0.6237897361372742 0.396090269070634 0.3269605041525079
P 6.600059925226008 3.643427321050922 0.13498140084802254 -0.38643963335474735 0.13153789484170247 0.5223432613643133
P 9.469874362247864 8.862390275563804 4.6957652279967945 -0.26757264911249407 -1.4031111589276868 -0.7925654322845125
Ni 3.1589060315237933 3.6363966015054525 6.462677608448096 1.3739795316690533 1.3232984603744178 3.0039774319540973
Ni 5.651632687392175 8.644335126682183 11.19032602766026 0.3544319700998993 0.852386775317519 -1.763536884717176
Ni 1.9823730816283125 7.684903690836359 4.079094459098136 0.48197951283528606 -1.2546129820825618 -0.08892854481160813
Ni 3.2502212413650144 5.2394006578724515 8.797218684160077 -0.4898224059184726 -0.5480625205072884 -2.269792753601323
Ni 0.2619849918713789 1.8417399919967312 4.013685393922527 1.9305652591560039 2.691331801762365 0.5322407229836833
Ni 7.518232630547686 7.17344689198676 9.662427258863294 -1.2356662657767299 0.5755501844045958 -0.6336622580559796
Ni 2.0344770710257865 1.532304187746203 1.4427990142134959 -0.39122497055853267 0.7046974675269347 0.5293538883541915
Ni 8.763025265817465 4.988791033648642 10.683152171129521 2.526923381444887 0.6848014999339561 -0.26711422141883673
Ni 0.7430526274090177 5.678914123075259 3.1837398044715 1.3130045346475774 -2.4653927690302573 1.092702388486273
Ni 8.046967048705833 5.34307572308483 8.249937938392428 -0.7075123112679106 -0.4073871821406919 -1.1888508480850881
Ni 0.3461750536200444 1.8351767405061468 10.462761551845693 0.008639420842552864 1.1994851878704826 0.12315095632958792
Ni 6.769274011733253 4.323368956242145 4.784558915149968 -1.9335865624808313 2.7664671494446225 2.373777935635738
Ni 9.374323891829384 6.5092869783284515 5.806802163658459 -0.1787009256807503 -0.6968208929923354 -0.5018186590484003
Ni 2.071014374195592 9.041907358000714 13.342626552047575 -0.9895507580967473 -0.08741313660834622 0.5196240626609374
Ni 8.535330925644114 0.7152513672489014 8.781263064510746 2.4423250885775163 -0.4115174022589816 1.1714830462306018
Ni 4.600839294899642 4.490488785863506 12.72086505603122 -0.26329304790053365 1.2405475051284311 -0.007659573427786809
Ni 4.032388790798474 7.577928301156493 12.603526834510664 -0.18716833972181313 -0.8692727524395802 -0.45115558547589396
Ni 8.860847630982684 9.154361473283831 0.6065014688326915 0.0284831950413574 -0.21260194930356932 -0.07036363732522721
Ni 4.502699051457101 3.2437140860410167 8.584354300559896 -0.9702363740388517 -0.058559188491131405 0.395194496729242
Ni 6.984645893979836 8.047172734649982 2.173483371826368 -2.331239805163211 0.476282976671141 -0.7403208731574992
Ni 0.6122326271855808 1.4704114172794387 12.738750383811118 2.71457585989197 1.661596758137248 2.150973848988186
Ni 8.991850878683636 7.422270788240909 2.7064652047311974 0.6659815390139756 1.0728812399952876 0.1692384947162698
Ni 6.087350311989317 9.114000281425067 5.989329740368826 -0.7972458684793172 0.8549414234185727 -0.32888368931714973
Ni 2.7594732773468187 2.289686580909663 10.395287212803602 -0.19669144872089994 0.06785835440487023 0.19889899789518004
P 2.209085738886404 5.790106074610188 6.51522288768938 -0.22318898079079624 -0.3476329449001948 0.1140559360068552
P 3.5494849407412468 0.8230083635165356 12.418414159456782 0.5506734757675741 0.1454920430289494 -2.067063069106143
P 3.005763496743491 3.829788135811347 1.870278916747456 -0.8471584370390443 -0.6226165417647793 0.7314289699845081
P 7.294979236895744 1.3291612698154092 7.326955921722092 -0.6233955860226489 0.778000389986144 -2.9698964311099885
P 8.771598629944053 3.9628295442315964 4.239166740324053 1.8836565104196072 0.041460581137631826 -1.1889315807243523
P 8.703423088819637 6.8061665906247715 0.5472181050482949 1.2652912877320144 1.672825794083848 1.6989338040248099
P 6.632857483956734 9.19771446069386 9.155622702095911 -1.5774484083231026 -0.4732292774464817 0.4658453262775848
P 3.0326522592604723 8.34640838594292 2.038343031839685 0.2803705722081107 0.5482651234363977 1.500690180325441
