# total energy = -381160.3424762778 ev
CRYSTAL
PRIMVEC
9.36814538989861 0.00000000000000 0.00000000000000
0.00000000000000 9.36814538989861 0.00000000000000
0.00000000000000 0.00000000000000 13.71122772476976
PRIMCOORD
 96 1
Ni 7.095648718367385 5.1917418125416575 11.03815491271394 0.4402862468615579 0.3115277145372054 0.2623155144786128
Ni 1.5803499034175985 7.35379733028349 3.9980293179168993 1.8366037799061787 -0.4693620811815916 -1.3061826266297376
Ni 7.237285707174164 4.185837210839969 8.421093261772107 -1.9763275529927835 2.8932248492888624 1.289358355983547
Ni 6.571379202883971 0.49828696449091464 1.8903942930434743 0.7678075086135422 -0.18727555472363874 -0.7301480463895554
Ni 4.00358931215308 1.852672519174212 4.729221489995673 -0.21624314560058241 0.8800765279233037 1.7143632512060023
Ni 1.5322070047154335 9.390535168332995 5.803619412437027 -0.044477770697400824 -0.2888734674727993 -0.12415600055533454
Ni 4.035525319484406 1.7165814723856634 11.64121615106648 -0.8040988868454086 0.09023543654848976 -0.7791630428356775
Ni 4.947570473414739 2.5222326001318196 2.662240468470743 -2.4069145702887065 0.1632239130910737 -1.4456616306953876
Ni 6.235465616823738 2.0101510416850887 12.239395648902635 0.8091549612120774 0.5729364009308326 0.48239988820215624
Ni 8.752171011227931 6.0258346294218414 0.041314457592219946 -1.2639537998675134 -0.02080922343586739 -0.3209279248051828
Ni 8.617063619695994 8.180049009546684 1.0225555431597986 -0.007189575769903747 0.9477201952142066 0.2638959715918552
Ni 4.215056456033985 6.540333169356248 11.573277424528637 -0.49307587985876367 -0.4977897403946653 -0.16604184215584306
Ni 3.081023731049652 4.004750962170412 6.314075597674022 -0.4269455638885937 -2.639673968376757 -1.4107113398724478
Ni 4.004582335554994 7.521018723907472 8.921963960737054 -0.026015450227155196 -0.7593130979892858 0.7563339607563039
Ni 8.460709274621244 2.7898898795285034 7.664933108836939 2.899322220435852 -3.4556112426179904 -1.5452260579542871
Ni 1.3067813243359436 2.2988210709920582 12.133024106267179 -1.5709607437162298 -0.07186233335794076 -2.3911290253196755
Ni 6.023033553976824 7.363989872371047 10.353786604478945 0.8408831455532938 0.37217746700877835 -0.8850768093513723
Ni 0.8460550016151127 4.318471412012425 0.2595341606061319 1.9775195164183557 -0.5616310032203424 -0.4649876062629798
Ni 0.1684345684404704 1.9706549410958052 0.7384759050503505 0.45446408102383673 0.05698824445958573 0.5817023200489209
Ni 2.7949580461363785 5.414553780382151 13.254849201109698 0.6652433752963705 -0.7467738278716944 0.5647343247360145
Ni 1.8231534933305613 2.0575070161819644 4.400947626428458 -0.9029526611905287 -0.17327564090012093 -0.3546276310504732
Ni 5.053767768547595 4.467106405359098 7.2688975766780715 -0.30964129614777 1.7739351972323645 0.2166385812667882
Ni 5.663990017168267 8.149565064737024 12.68606694322828 -2.085602265560911 0.5193242720323314 0.8658590987723411
Ni 2.734570981525724 0.1945042431842698 12.842566494555196 -0.6258041954641416 -0.7625313478162674 -0.7924024243440869
P 2.8778848683413925 9.199621735242625 4.269196841357892 1.0512202100820862 0.26305804907159214 -2.0741287177036734
Ni 7.201686755030123 8.82597325990971 8.39882611720601 -1.5831002072922413 1.6952638113723901 3.315543970149038
P 4.020807963216435 1.6739283068299216 7.34798439612418 -2.4865791732998854 2.377479295746725 0.1905017749704203
Ni 5.980764482378425 2.860104128559974 6.360090053763786 -0.5937703069570484 -2.6191300827871347 -0.9825943813835724
P 3.2872540817072635 4.304550348095045 10.371857756764694 1.5690797246434331 -0.2188106492174425 -0.24765945512833473
P 4.356955752909194 8.758428932289041 10.957903632806913 -0.31536945688079876 0.3720381132174367 0.009577359275789957
P 4.415094462647594 6.717615951033571 6.714470127841475 1.9774943196073747 0.27768119830140564 1.534722330209486
Ni 2.838126459683679 7.990278490183043 0.7554491107068172 -0.7563208481301813 -0.19408229323282705 0.6857381528156126
Ni 1.4611121500256627 2.1276088474698223 6.8944715452851675 -0.3358210398669313 -1.1161973862844197 -1.7979690982531165
Ni 8.264952510410223 7.0134713477864565 9.369759432498828 -0.1998701035591977 -0.08891003286884688 0.20197840815145215
Ni 8.972078854025094 2.1072518677306116 5.24841066028232 -0.060378758198373426 -0.5742456066605595 -0.29215830887165817
Ni 4.138677967394416 6.2637948882141545 3.5077980215703692 -1.0255770555926855 -0.7589770548061058 -0.8368519129067136
Ni 0.3750911697092797 6.83810903589585 5.960846868653835 -1.651309517278627 -1.0980839645131604 -2.1948091010055815
Ni 2.0801029826481297 3.075318530561305 8.671322980465224 0.8701034758709918 0.6087043025590614 2.7265800834416978
Ni 8.065298597753959 0.7500109023595499 13.350334022090786 -1.0768273691272294 0.12111335707426882 -0.6746227596287414
Ni 0.8039639247774346 4.543438053272163 7.185286879866081 0.3548142931399825 -0.10232939159854636 -0.8428346128527097
Ni 3.926517580761231 4.3182465765252 1.3767173394519727 0.6600703157358633 0.364872705817249 0.6046422166745458
Ni 0.5220932953299771 6.45235691683396 1.976747982799617 0.002273369415208988 0.21274490263933685 0.6019132477791569
Ni 6.380343983904686 5.514568099616304 0.23487158128655222 1.668896891343087 -1.1720731144061167 -0.8017296152822837
Ni 1.7367229847829497 8.226233965880928 10.068565926271825 0.32253537850161873 1.9699159930394845 -0.8746594706727905
Ni 7.675743011699836 3.939342571678387 5.64340445468371 1.490664163548007 2.6317791390097125 -0.6968298918533999
Ni 5.526559325601665 0.5260541471632667 6.68086378020297 2.7205374767920434 -1.7142848325595832 -1.7190182334795103
Ni 8.961979993390548 0.16518194839194117 6.96416586225243 1.2600462372829913 2.1802990803148643 0.9637795626699145
Ni 2.519778146062941 2.320854948740159 0.14245670152062143 1.9482151110272836 0.5212603127127797 2.0606034295237285
Ni 1.5977840218228778 3.2365068386114024 2.394350859070592 0.37287989239244174 0.25233577755808156 -0.6978040828412111
Ni 2.010581976368938 5.989411280491307 10.240751500090843 0.37944006210846265 -0.909857358730162 -0.3527885209592053
Ni 5.287399944210816 5.18665490964318 9.39390489019779 -1.90079342721021 0.3064009348336013 3.0436482681811583
Ni 2.957485998964528 5.321396943508375 8.044528482806971 0.06326764971039427 1.2361162088299549 2.0424501556534693
Ni 6.304293380350653 6.360090053763786 7.866529038014114 1.066275818863628 1.7303529417660395 -0.8915475046773806
Ni 4.652417687559434 8.530455116387662 2.7604954500173564 -0.678217161848219 -0.9109572766625601 -1.6478372424593106
Ni 1.2407827406899516 7.848219934837715 7.579552769377578 1.0909316697390954 0.5857389520121395 2.7423705135067356
Ni 3.4317670911214684 8.905377659481521 7.208650097432404 -0.8534476124818657 -0.10340179872711869 -0.7745522835365435
P 4.687744963489744 2.8747465396655363 13.743860764938027 -0.36994806345762743 -1.1919755097569988 -1.3435268716061506
Ni 3.2970531616921757 0.8716515850212083 2.045688164070143 -1.4819838621651895 0.6496694321175134 1.2512543500229742
P 0.02905904990936873 4.051713474564644 3.719088107505084 -0.13828498375754894 -0.43707262502026667 1.9254071119938323
Ni 2.26633234308797 4.808022581010098 4.303173230735789 -1.3653565658867326 -1.0786248273472845 -1.5274738761771887
P -0.029649243063335728 7.326910753269439 11.132982089894897 1.4628103745605323 -0.5607573423661375 0.6377055748874179
P 1.877460631640826 1.1810701825409728 9.957120596141314 -0.9849821648894583 -0.010968326086045628 1.0793025701405992
P 8.708740289612201 6.017768656317626 7.564058793864148 -1.4928254328653838 -0.7509143324026293 0.32909580532795585
Ni 4.767627138471913 8.156890954362455 5.030526336870187 -1.290725668644719 0.23205620137343907 1.289257825849941
Ni 0.12410637850489833 4.808238048352022 9.513535168877839 -0.550640822757426 -0.24893883606139064 -1.4285416831856494
Ni 8.355149013368862 3.47027953645414 12.842854096615937 -0.9182756647008444 -0.39201738455284096 0.4676137310319172
Ni 7.738593898524671 7.779626374943329 12.495576013490986 1.874595428658604 -0.5915352469789426 -0.27345996113120646
Ni 8.078657572953274 3.086185579110538 10.461639250886497 -0.2453909708091322 -0.8879209636683869 0.07304221259865486
Ni 6.534787227338017 2.827100152664327 1.0088190317048493 1.4363359824190876 0.16539803792425706 -0.3961059527999178
Ni 0.17344277891841892 5.220811167410857 11.737975976623046 0.7307373432341222 -0.027523402231249373 0.3279735187980545
Ni 7.088603873100985 0.16474820326450193 10.969023621279273 -0.43487767425147683 0.4044941768636131 -0.3001384988636573
Ni 7.497692042107825 7.990100495422322 6.56115106184427 -0.7428261560778563 -3.720672952383173 -3.7785916790768277
Ni 1.1451620816019967 -0.09717577120793122 2.0318392348715806 -0.0775850947743309 -0.2590892942318312 0.47232553468528976
Ni 2.031679039586933 7.156907020491039 12.206735483939536 -1.4266447232732526 1.7873915798475863 0.7754125746543097
Ni 5.738504244892924 0.7188037367326474 4.020310514700949 1.5833537180639439 -0.8148265576755579 1.3808649459349769
Ni 8.616698262029253 0.9896789740402466 2.9726352267308784 0.0314258226094491 0.46672104401431885 -0.14253681705536742
Ni 8.252408563852098 6.036898409022397 4.050708272573839 1.188082859570812 -0.7828754586902582 -0.2563947781188036
Ni 4.687922958250465 6.678204163751998 0.9259381134118109 -0.8202991507543549 0.737895037324826 0.5769583776060321
Ni 5.355646882729063 2.904143779620273 9.804048849180058 0.22755497106897588 -0.3421639513658236 0.2528029470024872
Ni 8.621644642748214 4.055638727445789 1.783131839789888 -1.8870989604422532 0.02629904290584503 0.295724943176994
Ni 6.8146699363525896 2.662145850203202 3.646267640450858 3.1963211452292626 1.1778701807038683 0.9046117940605065
Ni 9.092768669938696 8.453477066448825 4.345197793741829 -1.3252278161866466 0.9608140522836872 -0.12501886277626212
Ni 5.112740243217789 4.28010885700457 12.051839759088162 -0.8279571815202451 -0.3357814448782475 -0.18514025354819083
Ni 4.785791972210675 0.5557183792590842 0.41496199611060575 0.20570522218373605 0.4804972718628048 -1.1517878817945195
Ni 6.290184953527251 4.944525826191894 2.732360099234673 -0.23702562956357245 0.04551392527139903 -0.4649408121854444
Ni 4.942118212849521 0.510992979962747 8.959121772259193 0.4431095752429659 -0.02393902731410071 1.689977109052154
Ni 2.6317836912824553 6.361026868293893 5.863441577886027 -0.563205546796314 0.7527938088135293 0.20210619197856808
Ni 6.035568132389646 6.303290988803438 4.768106787511328 0.4432031633980367 -2.3718601497877345 2.155302815380843
P 2.3784877786323015 5.5600879176341715 2.168046446661863 0.5441457019513855 0.1404521666121968 -0.06694766966514276
Ni 6.84930396953062 7.949630107721728 3.56198524762078 0.9828484063759073 0.9067311543963545 -0.6115176036381405
P 6.981066933190078 1.7407700235530092 8.844070643002302 0.1163465318132448 -0.6368149447523485 0.8410726358562807
Ni 0.18402878310862064 0.08054356604042316 11.497124708190823 0.6190722760569468 0.0049426887172560035 2.435628650393947
P 5.056868624642247 4.000525928639632 4.387702942601814 0.1341953870692076 0.16763181235078226 0.4593581758913444
P 6.635935092153599 7.57244047346501 1.4190978919794535 -0.8841756376933418 -0.26545508854885896 -0.4067348932686737
P 7.519388666625088 0.3403540869329364 5.351409670609392 -0.43464293253285147 1.349613701230179 -1.550917966132742
Ni 8.939290345471372 0.7387316554170695 9.555971930277128 0.3976907807885344 1.2025399155364065 -2.417837387848797
