# total energy = -340889.78205914155 ev
CRYSTAL
PRIMVEC
9.07395949067820 0.00000000000000 0.00000000000000
0.00000000000000 9.07395949067820 0.00000000000000
0.00000000000000 0.00000000000000 13.28065692449300
PRIMCOORD
 96 1
Ni 6.649814767234997 2.3894819947370403 11.239446059217734 -0.44571178875250334 -1.4616783178386183 0.4714868408340783
Ni 4.572349936521698 0.5117096008324213 6.0737490175593845 0.14683930108546323 -0.6573973968893905 -1.698622700542294
Ni 2.9226587684493364 1.8921836560433527 4.418992765413328 -0.06454831619503076 -0.15205709784097685 1.6696150004560344
Ni 3.642904286811008 4.694784869173719 4.756254591567891 -1.9126732093669319 0.25536607974397313 0.1436511331654687
Ni 4.069498334744707 2.6474455832914208 2.4964848448306003 -0.7122644812409152 0.9390884876811375 -0.6697019252883563
Ni 4.979162753210944 4.872879468088799 2.5863678559384224 0.8796034449416271 -0.9605787963444297 -0.7438188590084286
Ni 5.319191229551945 3.052262128937648 0.419697838875999 0.8884912343495601 -0.5846896848120189 -0.698791643565461
Ni 5.737845563110002 8.07455341063707 12.32374517592313 0.10490126609078063 1.0145642494219496 -0.2381232335031254
Ni 1.9472444409935088 6.843071952117731 0.263595795083478 1.3803761792240163 0.007885830505979968 0.47113897057635634
Ni 1.035347828542805 0.17012766266158097 0.26876613708489505 0.36606749745629863 0.817387890644831 -0.17217238053361317
Ni 8.132717489663191 0.05112087182798095 6.859538466034844 0.5066412772480242 0.17938046824627818 0.2243223230642911
Ni 9.009643063023931 2.5201560824211526 1.2408167478332368 -1.2688018719884342 -0.5707514774643719 0.5653323633313296
Ni 6.9990351643331685 1.33361794424758 4.647897906748793 1.10214579328736 -1.7902041095957169 -0.4637755882327496
Ni 0.9869836255460465 7.862159245619224 2.5696608821002176 0.6346097095709136 -0.28641626418155836 -0.3541679178052352
Ni 7.888755020287798 4.159294235843379 3.782995329442595 -0.4108388881347183 0.11499978797736324 -1.0809912706969318
Ni 7.902928544693227 3.8797709200244013 12.484135572874427 -0.5383002989142021 0.9728542712776728 0.3251918422878593
Ni 8.368994315522967 7.191049216793658 8.691937433923517 -0.47905102633458135 0.8476006667827855 0.2857169241216886
Ni 6.987883268370126 0.9458150722634396 0.587369180758739 0.5817437148098175 1.5109092869502883 -2.2123303977187967
Ni 2.2804039301546695 6.683152493653401 9.098777472490621 -0.34334511615811836 0.3466155593792741 0.793702374102433
Ni 0.09486189256829516 4.9495634980185566 1.085819912281805 0.12096449020123036 0.7186696134363106 1.0617596761608294
Ni 6.588157213883595 1.904533314632206 6.744833639298949 -0.18270181931002727 1.5290607610483344 1.6832968688185013
Ni 3.566156739166246 4.549891887287744 0.37125378503751966 -0.2019012750566136 0.8867097169691052 -0.7038227782314652
Ni 6.2750421007861945 5.769513681019699 4.5310815696869415 -1.3772941978645827 0.29370688430570063 -0.46040718598114905
Ni 5.81841324761436 3.337102784898483 9.002531801131143 0.14310014575800517 -1.4137295578734812 0.22330648020526705
P 0.44445885897685355 5.864354703481636 12.443935211047682 -0.7656354406628878 -1.1094495260376247 -0.4904623534953166
P 4.213901322829212 6.3275803250547185 12.48939483967685 0.056741675666418405 0.9255747694654188 1.2494594629060805
P 2.863260630960259 8.668199049034245 1.3004662339945485 -0.29966130211692266 0.28713874416987967 -0.22610281200348156
P 6.56892042019633 8.171136633282005 5.7165253883705685 -0.7225974877358071 -0.2805168679779879 0.03023848716956728
P 5.03350669537747 1.209359145778985 12.421490772752657 0.2537077182049437 -0.09673492822990436 0.00516200381691369
P 4.28537690012855 6.291538558768954 8.110909135914147 0.0649820612983397 0.6478789158759938 0.8951190240787229
P 5.026846409261219 1.2807802793226035 3.836144231171096 -0.9981762949822292 -0.3997286371541697 -0.047776753163646754
P 0.41602379276091694 5.933552717000076 3.3519178382254635 -2.2469017079357623 -1.2581189383532911 -0.7273547999151345
Ni 0.6072066705507678 0.36909327533141684 5.014630137873876 0.5694196460268258 -0.2764416694673497 -1.2851661722790706
Ni 1.99810398279404 6.560218493240627 4.520137467391558 0.19719255672703456 1.0102599656196407 1.8789470207590802
Ni 6.301084363938295 5.751066321790355 8.8553558110887 -0.6948020627900937 1.869001479510594 1.7792216424422842
Ni -0.40613045495090455 2.458698156174052 10.094321471227502 1.065617616454339 0.23623193001768347 -0.3245675784402991
Ni 2.5786286760630124 5.424421935396863 7.078748989268671 -1.319118617965115 -1.276729354365627 -1.3233982191770757
Ni 0.9699699518839597 9.12395680211458 8.774118468389004 -0.566030932060251 0.3366869874116524 -0.7441009090252216
Ni 1.5995393950961743 1.318328322849918 11.21305717082089 -0.09995909159415689 -0.0028891486223369595 0.44729173164511354
Ni 4.772321851276401 7.121787685560213 1.6155785255308968 -1.2918926923696266 -0.1506144518571793 -0.9347595212884804
Ni 5.873229035663781 8.31797144245528 7.977079125190207 -0.3982919047076431 -1.5183019798699335 -1.0459918718036114
Ni 5.1487822741524845 3.2539218001196297 5.006170485631122 2.534373667075345 -2.171333386481144 -1.1899862472411118
Ni 0.7465826851905824 7.385476942424342 6.698843184051524 0.8210895078661342 -0.19893165090532836 0.2838261348568789
Ni 5.383707080078578 4.726770575658442 6.949342533696874 -1.9341087535328885 -0.2642297007821901 0.18935480585017067
Ni 0.9976908975040529 7.607380616774385 11.35837481400147 1.4181824514385124 -0.15465699735766913 -0.5385417255010467
Ni 4.75646964440298 0.5076163377983055 10.137709514951572 1.123752315813542 -1.2067788933184185 1.3688622650471458
Ni 8.382169704406886 7.424014047513879 4.735550538664007 -0.2270942293824734 -0.4590401304302933 -1.0397083527877449
Ni 7.114909624421087 6.199510463685816 6.588188065345169 1.464169716801904 1.437936751247304 1.0088833969870883
Ni 2.367913193513157 5.499055250527882 2.3151372315113288 0.21767962093679286 -0.31128371684719935 -0.08213491892854242
Ni 2.7725664078922283 5.406573457480422 11.13310833033987 -0.4828696287497233 -0.7597656121456722 0.7920398987983456
Ni 1.2518797189952722 3.7830878838273163 3.74100195326085 0.7431411162151137 -0.4719473254102646 -1.2580011818285044
Ni 1.708009504406353 1.3589978083717704 2.354314958126489 0.679086966047682 -0.7488723622719361 0.6097633399511951
Ni 1.2697463448302848 3.5270116788045165 8.347078889054341 0.7157452407006641 0.3169743394740735 -0.5044676666354732
Ni 3.9262023696931467 2.79143116924875 6.90659238931064 -1.5133860306255549 1.1995324961686502 -0.25807807935849747
Ni 4.092791188233014 6.83096729042961 5.954275825218462 1.2583567653957102 1.4921867708401202 -0.5571557410578082
Ni 8.327934649751796 7.8718139383000025 13.166070835128721 0.012418942489643129 -0.17581383394094238 -0.01748401571737634
P 0.6096720652888953 5.647015230652675 8.112860944556662 -0.046742141251545306 -0.49274652154380305 -0.7704670577235763
P 8.91727015748791 2.001461347730025 7.837513464801307 -1.1904179354618918 -1.439505895506637 0.15200130490237693
P 2.168966636157823 3.3485813433958374 10.435966927113348 -0.15000767151111585 0.21767345028920576 0.6035700666562895
P 3.983195907971316 6.441676289122493 3.6351279037025237 1.2206983316129882 0.9899942733920692 -0.3562880494720316
P 7.345152267355375 4.3767607441023495 10.30634723349832 -0.47360234451518435 -0.3194539113628176 0.13629212169723623
P 6.6464664762583 7.940286035075526 10.032779157159037 -1.246301376893073 0.7951776730963789 -0.3566364339503858
P 2.5220797617898794 8.489187980231234 5.851390737849091 -0.47661182076546954 0.5968139788793786 -0.19498603599401904
P 6.922904645919885 4.192967698755381 1.2194802399670872 0.9628043432408386 0.4288026717019906 1.1583832756238501
Ni 3.1316774206126254 1.9836945354471633 0.12220445408614368 -0.33779976085985697 -1.112763678012522 -0.30234450537604063
Ni 1.7947021114290604 1.448131310442532 6.785167388327203 0.0807038429089707 0.36333210080300654 0.3135804833011761
Ni 7.039459652954287 0.9260701368561326 8.979211725764976 0.43441281879991633 1.2336885732250689 0.4524035989503821
Ni 3.1111158288695386 1.7691044722819955 9.181316020951995 -2.3968777548779947 0.5059493933873221 -0.1747275428552991
Ni 6.539920046316848 2.432955333678404 2.6574723083029443 0.5010277877159888 0.6126674009718674 -1.631054623684333
Ni 4.5220439062376405 7.012872952244999 10.410680524769807 0.03475797230647562 0.4106126310565251 -1.1652144396130706
Ni 7.6357004437073845 6.55050935680413 11.27271391614963 0.48752846767797325 -1.4534399890892258 -0.9591091537774387
Ni 7.844510394807086 4.241368197589285 8.041676641350419 1.8264957449378993 -1.0475234779567897 -0.635526564958228
Ni 3.3053983711516395 8.617802279157322 12.272495453873281 0.2034305672169464 -0.032561478875789085 0.04518559539770283
Ni 0.43702547152939675 4.947304082156232 10.33981471753452 0.03140011157783624 -0.031057126416120708 0.17742103052706218
Ni 8.910383022389496 2.7413973577432857 5.431203812567552 -0.04784205918394341 -1.5426876078031495 1.738910087307431
Ni 4.333958878148183 2.8829239007339877 11.162710307720044 -1.5623781442535414 0.03830738022063081 -0.2648521648575374
Ni 1.0912615656658868 3.437360961054427 12.695616897588057 1.892752559183605 0.13516700695385755 -1.5380393103978607
Ni 3.4449286430993236 8.553894383902882 7.984809231106332 -0.5299095037473454 -0.18421234241728277 0.05145677311839525
Ni 5.784313308615894 8.23863781641388 3.57855267494746 0.15632667175060821 -0.014053135658956441 0.666888109988645
Ni 3.1570300628589565 8.524857714186254 3.4536478105776696 1.0633295917511105 0.5545409291427805 0.9061027767837363
Ni 3.6861598507294975 4.265096601123342 8.956368940657276 -0.4487199794512079 0.5506266816900388 0.6416313923043854
Ni 5.536830143037358 4.918167598887452 11.514767224491157 -0.013552284763137948 -0.8031429506900427 -0.6009873935307778
Ni 8.111919974978658 8.980506579755152 2.4394577329030716 0.36316009400151655 1.005757192653281 1.2164303003652535
Ni 4.89754248942936 0.6028956324937772 1.5033173160308408 -1.147583613905185 -0.9188199672400886 0.29207860467365826
Ni 6.56723266376905 6.102292063890831 0.0475593428080508 -0.4264472840959365 -0.9057034844627886 0.926770846656049
Ni 8.454634343268445 -0.14312083763733097 10.584404197496609 -0.26950251914535517 1.4047065284392646 1.0047158958729598
Ni 0.1640571838989484 5.002464680658538 5.653229985367963 0.38124960451337564 1.5753102789341775 1.1633246787895257
Ni 7.317376877979563 6.218030414589452 2.3408755170273334 0.7074711736173299 0.13240075706263005 0.955393138378432
P 8.933648653999944 1.8172236783780202 3.407829760556688 -1.1187461208482021 0.17241843510614824 0.43124059171952184
P 2.1338594876785626 3.307902783914699 1.5368111145489711 -0.7697399497495646 1.3001065956389868 -0.16507150782277377
P 4.830367968831798 1.388007256210539 8.08823875603289 2.457211775881362 -1.020909732024003 0.584227914684252
P 8.650686307611403 1.4008015388044284 12.368872697642413 -0.03388508278321906 0.6399583754773365 -0.578343687989333
P 6.69377809997783 8.044799898136814 1.2382379286040288 -1.297955867844571 -0.9829689911141716 0.23124964631174366
P 2.008820328711333 3.564133246245368 5.841403938258428 0.03656494360822735 -0.5702359712805342 0.19192102391545013
P 7.005740820245852 3.998068127241801 5.9043808452900794 1.8122819153313627 -0.12494455789490094 -1.3536963559399848
P 2.56487255378476 8.658190471941294 10.099646977932716 0.7778330111703443 0.30819736461239183 0.6414403593395017
