# total energy = -340888.6644549525 ev
CRYSTAL
PRIMVEC
9.09484356966095 0.00000000000000 0.00000000000000

0.00000000000000 9.09484356966095 0.00000000000000

0.00000000000000 0.00000000000000 13.31122288508074

PRIMCOORD
 96 1
Ni 6.677825003404257 2.4258948285962925 11.36856954245097 0.4696891255037072 -0.490449240869194 -0.28815458702890373
Ni 4.703534617130245 0.6042468347756442 6.2156487152707705 0.25532777030687 0.1922519248923076 -1.2787533267741913
Ni 2.9988153852300607 1.582066175628746 4.6898368736888685 -1.0648524561535402 0.043081147460190324 0.5692278417309938
Ni 3.693133909764701 4.571095509505695 4.822083170636201 -1.5300282671679262 0.5833977054734727 0.6141414144142325
Ni 3.7299680249878455 2.9173073998893644 2.4513149155218947 0.9718397139702295 1.2278678527782336 0.25545632546493424
Ni 5.252335649425302 4.97730758909249 2.403381453578176 -0.3259624019052967 -0.8590487607187269 0.32288556275218583
Ni 5.545480637541942 3.2259863803025794 0.4357839624628586 0.7623613978973064 -0.015561858993999004 -0.671922587088759
Ni 5.767885934743615 7.92797487407778 12.098569865567082 0.8059791345872572 0.1281635790528309 0.39091283863475257
Ni 2.1244644382652615 6.757450356189104 13.612321944979628 -0.10249934151750735 -0.5006313236085185 -0.40922474957006294
Ni 1.1153279141135486 -0.09060646654297633 -0.3055312551592079 -1.020903561376416 -0.19673078659926763 -0.018817389816819203
Ni 8.116883863534554 0.22540113857315502 6.507856934531119 0.6901000293287342 -0.637172070981451 0.6094465800417246
Ni 8.543941323884669 2.4467311145163477 1.2379500479178862 1.1391930758486446 0.16099476665023887 -0.3882885136380281
Ni 6.977581942574534 1.2346522577500068 4.527705831257157 -0.4735388382671006 -0.7959032384084938 0.5249750425602056
Ni 0.5432449925444847 7.862646614905471 2.107273365525808 1.9739580243193424 0.22971726882761728 0.34335848589455703
Ni 8.223111632869449 3.740718129727045 3.4185214837690983 -0.10588291327775959 0.3125618122286746 0.018028318256620563
Ni 7.938770453033303 4.076508837913147 12.723784861490124 -1.2680482816518612 0.3037087327134189 0.32312827489061124
Ni 8.35826100378696 7.207690572021638 9.10610086196732 -0.010456676556949734 -0.19976520255021724 0.5346894416344921
Ni 7.072004605351493 0.7820501111215583 0.12814907005646223 -0.3377141431245861 -0.14887150102414362 -0.15514345007578442
Ni 2.034343636352635 6.585430490675386 9.239439449590776 1.6962341457054593 -0.2980731316941963 -1.679224241411024
Ni 0.24464764589049287 5.273335642524128 1.288268177765681 -0.3920999169643183 -0.6916259790549572 0.3210495379847116
Ni 6.31042971487237 2.3858684233871426 6.827165967752435 1.3245598435853447 -0.810424057732488 -0.16512061589315433
Ni 3.6570910459056094 4.582709624355067 0.3092846969746626 0.010202908674930814 0.6610499060403131 -0.24011275312932842
Ni 6.450617628958678 5.99461128249615 4.579552804257793 -0.8667116765806234 -1.0029366924853502 0.897138625611913
Ni 5.82390107441259 3.530936474977156 9.098513034231352 0.5782285025677074 -1.2336610624212432 0.03125535846985585
P 0.36359273456280145 5.8792886698962805 12.341206641611688 0.5479967002663595 -0.5643789982791249 0.880766869122109
P 4.185110361340201 6.3547488861025885 12.440269493422438 0.3371173900808517 0.7234228118505799 0.2446759470199786
P 2.6621424772472557 8.692869382348619 1.064585964569606 0.29091055250748604 0.2204268446646268 2.2670018211197474
P 6.434319669827845 8.303009830952245 5.621621755871978 -0.9311144683367254 -0.3908868704928236 -0.06867596521015915
P 5.0744950842220025 1.3334040659210935 12.54936759529176 1.7227329633269364 0.4354808550531145 -1.9040677270861075
P 4.139308730657793 6.263727694706729 8.137522791355758 -0.7047347485227734 -0.9642073942359523 -0.6874340524607967
P 4.6964861135998905 1.294168912075996 3.5918337265107683 1.6408919214897288 -1.5269560560005058 -0.9781833968000703
P 0.20141803688341875 6.232850701822142 3.4556329917118247 1.9353793927151959 -1.7275962049565083 0.3987631879171068
Ni 0.9307298803643727 0.07850213964162253 4.648824587469795 -0.7260291391251754 0.25864577893650936 -0.7398871280541902
Ni 1.9585926867986667 6.68037155951845 4.95074973727444 -0.4299031038550209 -0.2749596856051845 -0.7596421991939304
Ni 6.199308919860919 5.892294295765193 8.911916863416861 0.30971020171249247 0.49750229106123356 0.15514730673052635
Ni 9.161326569240893 2.5488934889118 10.099384164823856 -1.3573676341439849 -0.2979273501449514 -0.49496564068230886
Ni 2.2003154310951443 5.352433494399605 6.991507057097534 1.2900705515592235 0.5212040055535475 -0.6092038679032993
Ni 0.7527610778710362 -0.06964921920749689 9.28395234098254 0.03605946472671854 2.3974912200922773 -0.21727981439521288
Ni 1.778451126249328 1.4522463828645078 11.227084703715077 0.7154269381292968 -1.0921390597836353 1.2896306358083274
Ni 4.281652122597899 7.101708363454898 1.5009738246252589 0.059624653641168285 0.7707588779323822 -0.11974604441309698
Ni 6.051690518827127 8.364545540483059 7.861222362450177 -0.39290570069506525 -0.4258513023831505 -0.25977680721715907
Ni 5.284831524411055 3.0871172184896927 4.585782771894301 1.4926302861354421 -0.1328915806561195 0.3768221648696414
Ni 0.9768043563447306 7.687516312995134 7.454631027899231 -0.027350366988494832 0.19227275082791404 -2.3424194759291144
Ni 5.665814508780812 4.640034421454198 6.768743423071221 -0.22203378414043048 1.1341701687127563 -0.5270481230391503
Ni 0.9959126220444409 7.474651506378419 10.97866997374423 -0.7437121582272354 0.3829460183791921 1.925484502198987
Ni 5.048638444819681 0.453616221652493 10.288177649771166 -0.7047558315686959 0.0338071783574321 0.4922562121709458
Ni 8.236471957625696 7.660149929610827 4.5704479566652285 0.048521344639155146 0.8399570341945986 -0.07592981855909503
Ni 7.538806530769545 6.698961419152056 6.766560660687628 -0.2091384162350011 -0.2838140506720209 0.38242716976124463
Ni 2.46341105706431 5.4022186664320735 2.455614047933248 0.2708549194081916 1.2629058182189734 1.027623910819385
Ni 2.435016956391061 5.583769927687483 11.467471415535929 -0.1906645258005297 -0.8760560939100008 -0.3553315990960332
Ni 1.5581194533120697 3.4128490300247343 3.7239745232762274 -0.13444658384806524 0.17871815207193092 -0.050803970025744764
Ni 2.001811381993823 1.3286383680502472 2.242235382672062 -0.14784511664215827 -0.534231271051151 -0.47285235372303724
Ni 1.4590947998430333 3.4580049268353297 8.069263264199149 -1.3029715758916076 -0.8222932983662484 0.9831546247624166
Ni 3.757907383497845 3.1458426214516293 7.316021069119396 0.6600584886613213 -0.15049540978081177 -0.4934317205362857
Ni 4.334456782594338 6.748737496341259 6.088580112594188 0.17541994093663335 0.9991705405746986 -0.5580144895136777
Ni 8.304064832770981 7.346250509163516 13.574518319464438 -0.43237007733827476 0.8197566479873237 -0.6208507081136081
P 0.19531630653694776 5.626997717725904 7.804276820315195 2.559048544114206 2.5728980484027884 -0.47544299726834893
P 8.842916106534158 1.7559868633848426 7.841029081948955 0.640479023867497 0.4287854453108099 1.1358218453835665
P 2.2497459042402776 3.5565475536113222 10.396437207091456 -1.5649808719837113 -0.6881899567902148 -0.006479694187072712
P 4.26907395436244 6.362897865668005 3.7723736411951125 -0.7407142519411759 0.4173157541083135 -0.28605142464297184
P 7.538060753621817 4.353783324532407 10.296989643410598 -1.7503280993363854 -1.1517608852113261 -0.0037653805797031926
P 6.524776980941276 7.916360759228407 9.970199192119514 0.22417679862536233 -0.34050790381963936 1.062918472355621
P 2.4699775339016212 8.548506935203687 5.914894981278653 1.7335156557647369 -0.21836044905390134 0.7125555301187728
P 7.1690374881454995 4.260952259326818 1.5858196174442007 -0.18621960265529866 0.2122790187465118 -0.8074567475740481
Ni 3.265648991781131 2.0989988771233343 0.10423508917553977 -2.595063271645918 0.23450774823772516 0.7715584910155422
Ni 1.909762473309022 1.2654837764182683 7.008451659584507 -0.7512046099495385 -0.23450903378930577 0.209176211451472
Ni 7.188154848688475 0.9415072696333667 9.110732865642172 0.8731407200354189 0.8012575607418717 0.248097828217334
Ni 3.078895480178156 1.8037620750557506 9.367227454369619 0.81702999308478 -0.21888803942259719 -1.5486754499554682
Ni 6.433255573165843 2.106447553757348 2.3868352052262094 -0.6165909043959896 0.9725789061290994 0.2116010188428807
Ni 4.335011568033501 7.0266213374592725 10.099397807088755 0.036122199643853915 1.1809922712726177 1.5167027537036135
Ni 7.448840341192422 6.176626380758074 11.574560466528016 1.1436372276629272 1.2863123700683718 -1.7781266096058927
Ni 7.927010820691692 4.2062103977149405 7.825987120673014 -1.4619901926520822 -2.411027821126132 0.1569776750710458
Ni 3.6461408546145804 8.85264758882768 12.464549087002613 -1.4172694527059397 -0.792966524377673 -1.0424008120182433
Ni 0.42041822476668517 4.937890538382094 9.865732184440716 0.4821993421555761 0.49977000404948774 0.9571535727129645
Ni 8.941795242510954 2.278094530697201 5.524104117931947 0.8974679839268737 0.7633250473621563 0.23444681309280269
Ni 4.133606263930654 3.0588777301519485 11.51986498861679 -0.15012208560179305 -0.40698557582689915 -0.7385023318915217
Ni 1.0194046021978687 3.5387671350282983 12.271442827379055 1.2766738185373432 0.31854348373340624 0.8304796908317826
Ni 3.6164280016679107 8.66080096499632 7.959618562249603 -1.2809518770874069 -0.9132851534647883 1.2578880532894077
Ni 5.6566105273966585 8.134846178982876 3.4453567283067303 -0.025156444660969578 0.8419570953437628 0.8051988047778068
Ni 3.1446966712002427 8.370666370000386 3.5268747179750184 0.14196423238134906 0.2357681030073875 -0.3368409964910134
Ni 3.915757483204733 4.608802729682277 9.74334924501425 -0.3297097847628709 1.0360771837930607 -1.8118029188124154
Ni 5.59139140634353 4.856700872555671 11.426939337041247 -0.24485952378569445 -0.5198752594397951 0.03319525580504606
Ni 7.880317895369316 9.31293760646801 2.450422711397601 -0.21285546007527212 -0.2757955512429186 0.21181801994969326
Ni 4.743370030630832 0.757323051252747 1.242380146072255 0.31421785977485883 -1.9707626573104964 2.0046675375880567
Ni 6.082758503420278 5.953739056863357 0.24995448693560515 0.46929368983750147 -0.2716133948407709 0.7443125108153955
Ni 8.106661259704723 -0.3010311267116988 11.386526400993334 -0.049993815419623576 0.49053948659015517 -0.4706363199083249
Ni -0.04708764152007606 5.129609834407744 5.618054758343455 0.6339101124007276 -0.2786034530053589 -0.9010163633997644
Ni 7.370752016919357 6.501030345176429 2.462256921453985 0.30442298517162414 -1.4553606031507065 -0.03582369456682862
P 9.264916834028947 1.6279314702140095 3.2584140439638443 -0.7140645105641314 0.7686744845995277 0.9085592087440287
P 1.933818333744878 3.7126878227843947 1.2997167664676301 -0.3413705089302508 -1.4198660097885223 -0.4248933093452554
P 5.122097493870876 1.5289613858045632 8.39241941612155 -0.9601926166496044 -0.3031613448503811 -0.5843546700701033
P 8.962022173932256 1.5720891325670696 12.38727747965474 -0.9969807320122314 0.8551162584335402 -0.1669278443052222
P 6.45363711692265 8.045489343904508 1.4046130507485337 -1.0263866959781742 0.503311698654159 -2.2958498556996907
P 1.9778919442069416 3.1849413526477526 5.880631978246518 0.7473263579410548 1.28274547865272 0.27050499226794056
P 7.357491735439024 3.8143863601733337 5.397794025183663 -2.132140518331767 0.4217136260656931 0.7961672907031578
P 2.731936304462666 8.733359624564281 10.205887507909683 0.1994813527612113 0.1811581289719912 0.08610470220956783
