# total energy = -340891.6551274025 ev
CRYSTAL
PRIMVEC
9.07496811060846 0.00000000000000 0.00000000000000
0.00000000000000 9.07496811060846 0.00000000000000
0.00000000000000 0.00000000000000 13.28213314171282
PRIMCOORD
 96 1
Ni 6.130440289178378 2.2398109768918673 11.040068706857097 0.09427155429107636 -0.2327521989991992 1.231575126426492
Ni 4.715761693462937 0.30178170497729134 6.092023227574906 -0.23940081466396834 -1.1567367411593628 -0.6084721319435973
Ni 2.7558590264233165 1.5932921138879195 4.690824589175459 0.38782982883405465 -0.9413304896377788 0.409118820119818
Ni 3.558630686698565 4.284283269774864 4.981224469414821 -1.0522396524855362 1.1388212943315226 -1.90433589314583
Ni 4.960232253672691 4.501202227445667 2.4123007067266364 0.722971326135458 1.6099039577486467 0.5953764751019036
Ni 7.447045706817913 6.5917299824120565 2.959843432348808 0.3006920573742821 -0.7481496251732985 -1.392980755361904
Ni 4.932299502482016 4.683572782328002 11.274140261352299 0.5488693326792998 -0.8084828748457172 0.18290365090818822
Ni 5.583628098472013 7.9907179586315 12.34531770966882 -0.4054303155246373 -0.2814789747809411 0.43994943234742945
Ni 1.7751998454074465 6.6518153448660735 0.5401076044231713 0.2551809603163605 -0.7387776970400954 -0.8725534800733811
Ni 3.0863965821796513 1.7872241778725686 0.5459164913748126 -1.59746598909561 -0.9690539236949762 -1.2748048836494044
Ni 0.5159727272978941 -0.09696058701158561 4.821506849399986 0.5701184718660632 0.5463979883206719 -0.13070177209365233
Ni 8.676631257281558 2.201333113003477 1.456558665068869 -0.10021517346902095 0.5684030318368533 -1.0344373341967925
Ni 6.952795730177954 0.6993560485976692 4.670755297668577 -0.49507645522856025 0.11796349859137747 0.4473488101352941
Ni 0.8988501604071284 7.428187923525443 2.6954623925703904 -0.10795008021943345 -0.34598769598728796 0.20624669650950284
Ni 7.3946468421736755 4.23793740871873 3.6556684109372855 1.1125397349271744 -0.6542151425066668 0.24539405613292578
Ni 7.422606818268046 4.029621520615424 12.614360560456543 0.7578915350514108 -0.8402380557701271 0.1798383817193032
Ni 8.05691077448101 8.766827363221822 6.818768436786149 0.03600470022938315 0.9480151007468062 0.8539078399477359
Ni 6.876665824479909 0.5360420188047753 0.5250123028212965 1.172586820817742 0.861188175659233 -1.3308163660180177
Ni 1.760952145807264 6.396781522022808 9.30309807121763 0.3747305724479353 0.562115913276561 -0.7182870332859114
Ni 0.1734353414897624 4.646546913303324 1.5253196968335714 -1.6169356677844475 1.1219877677139516 0.21814216239550818
Ni 6.408433780804104 1.9470071376562705 6.927721593875212 0.20194164137624576 -0.4384324814822707 0.20731139032859136
Ni 3.2377851966575135 4.286434037166738 0.3527467246936128 -0.32482160343263417 0.5067880872385337 0.016698543701603497
Ni 5.979205949154785 5.781453323684992 4.833979485279279 -0.24515468642861007 -0.579197551349196 0.05648250846776079
Ni 5.205383436474813 3.0800804045225 8.99454099520754 0.21352420400752256 0.324925218890034 -0.19385063683799517
P 0.02389892795992388 5.624864752601458 12.784265739433906 1.4578887688891988 -0.3075494466157478 -0.29011376763780355
P 3.9470302377738573 6.034481578622754 12.562839245208062 -0.1580562528472052 1.8780494486454753 0.9319678174759563
P 2.502658347095488 8.744920390715553 1.2878559193380208 -0.30441861429624995 0.020131737752868552 0.413499722796333
P 6.377297565945361 7.784362263594208 5.861298521240562 -0.7416933280249937 0.07568453531750836 -0.606638164058652
P 4.799804971168217 1.0610815465297665 12.457949858743815 0.31038434496138156 -0.028734134709898898 0.31041828352311057
P 3.9608604888507224 6.206116446481513 8.19086546812963 0.3782005332744067 -0.4548991116787262 -0.6424042659146677
P 4.7782700723457765 1.0519975036636628 3.747062412640112 0.25874759462169633 -0.1311494011540322 0.1425383597172642
P 0.2672750470411552 5.5091589118993385 3.712701861687137 -0.23686827805010177 0.361129693835049 -0.8225774052655704
Ni 1.4202960008444303 1.035217888019881 2.611506234556933 0.6093663616230925 0.8504797881027933 -0.0625359137506923
Ni 1.7392629725305528 6.336532810146622 5.066522815180423 0.3876735057618485 0.657990550388699 -1.243984298724122
Ni 5.877629833470173 5.564942739569608 9.101966835199336 0.40520894354245046 0.8691326273172904 -0.5738193177564183
Ni 8.634750280431339 2.654446260160871 10.828391450644297 -0.10506144581772872 -0.4064574712375709 -1.222319926376811
Ni 2.548940683376336 5.066209728787935 6.965044214350162 -1.3321412554770282 0.0055047318683131 1.1576741653719675
Ni 0.4601045024261723 8.801484665625066 9.082494676580156 0.381882095891052 1.3657478877878801 0.6401607212961298
Ni 1.6957666513944547 1.1105401215749857 11.429700638572966 -0.8323475972784568 -0.031005961463211117 -0.4541961720744307
Ni 4.038451464380379 7.293088876424859 1.5934972081624188 0.535291079774233 -1.5348210605708792 -0.47158685674705236
Ni 5.955837906816907 7.8540943169240185 8.124149026632393 -1.311863993285231 0.46230748832765545 -0.3730668115922672
Ni 5.253644115757468 2.874468856852861 4.857541731930179 1.438026482747633 -0.7346508193559155 -0.5704735412126368
Ni 0.8355522593171459 7.311011938023815 7.172006117243054 0.10905616879941864 -0.29722595320255263 -0.2806443946947877
Ni 4.92070169350811 4.604538886902532 6.856768049866303 1.4578319475093344 0.3991843346149254 0.768090844181916
Ni 8.227002897797075 6.951579684479594 9.163303635726516 -0.811521404561725 0.12991347186440208 -0.005705792135525657
Ni 4.607442876629958 0.34440410670479255 10.277129803177441 -0.4827685843954847 -0.7923666860101451 0.38979415164927705
Ni 8.329767834276351 6.949211117858162 5.03169671837427 0.6614540834572673 0.5918957156421548 0.2032935274184499
Ni 7.344834343380427 6.149279922535053 6.956942083010643 -0.13041149454674314 -1.6103672705383105 0.89944002005158
Ni 2.3648912594328326 5.175481417250226 2.411357817562013 0.054069528150893977 0.4188252487743045 1.2638175313999653
Ni 2.095355637888234 5.274280592757988 11.56979999298546 0.2540504462563431 0.12186103387357078 0.19055705368838796
Ni 1.2427261039802455 3.491548523995031 3.9257603280140434 -0.9661146385609941 -0.3548294626486341 -1.0027654570148086
Ni 3.767663497265828 2.6882414406137882 2.598834856880669 -1.0314651389423461 -0.8274262487174394 0.7201886211839984
Ni 1.21959401080772 3.25671557969317 8.27324167423201 -1.4039647651772338 0.2692243257833041 -0.8218263860321589
Ni 3.8432035300504896 2.418723969004987 6.911729685444995 -1.0339087153868323 0.8624688421438693 -0.4130942598277983
Ni 3.949063030583055 6.807278619930231 5.667977202595462 0.7822067147580076 1.1795313704563752 0.8404573708697847
Ni 0.7346903436061217 7.299341529306723 11.376093895701478 -0.039656180939041386 0.0844964771821835 0.08326954675361788
P 0.20116299840593913 5.338322641215623 8.007625531322645 0.38243951105641877 0.45520712983744827 0.07358265848315715
P 8.381640350782494 1.5989095190169087 8.16982697005122 1.2907932886578608 -0.4770537933988945 0.03527013605620377
P 1.7176282490612313 3.2770525827530483 10.421347378022142 -0.8710812664032288 -0.28011140500945314 1.0872778750365921
P 3.9075904272882562 6.129423892773779 3.5877168663091026 0.6172645334242467 0.28856673486565787 0.5916285780236972
P 6.858180114871264 4.179730564619639 10.315980648246448 1.0540332540508495 -0.9577063598926409 0.6853247194272778
P 6.4662413263156715 7.60559447096746 10.315422537720709 -1.5485322395093846 0.5122218566595953 -1.00636757254377
P 2.365335932859844 8.396096774644334 5.960051414412043 0.5458166618959052 -0.23711381840200454 -0.9780049622406768
P 6.9200623209691265 4.038877987871594 1.4910253931462532 -0.02928460789673021 0.16091249134907773 -0.513210960045742
Ni 5.165326528172134 3.1118881670057106 0.14787297191409746 1.4951995895245151 -0.7571106910213284 0.40423680943716833
Ni 1.5340507234484346 0.845978489935394 7.16529880846949 -0.3558846433860258 1.4552163642633584 -0.23966281007610338
Ni 6.971626288566729 0.5888773894049169 9.4029662779438 -0.17885776297358874 0.25285154085223555 -0.288003149052704
Ni 2.9351440922202623 1.9054528596503881 9.180078713886349 0.15732014601212904 -1.2640152492330683 0.0991039426827132
Ni 6.513812308038065 2.227287521192344 2.493826588336955 -0.6494087222569589 -1.11342265175276 0.8064684155188497
Ni 4.10048794493251 6.827025750076725 10.323590916325884 -0.13983433052253985 0.8709205724556485 0.5937083433708613
Ni 8.082992232220452 7.2231753237370855 0.6647459360274935 0.28178365050555343 0.19724603567278934 -0.4120084829627872
Ni 7.621203415752373 3.723568228248448 8.072615006428855 0.4564032070280785 0.8011182069505299 0.7995374927269714
Ni 3.084881062540651 8.321309964195224 12.359688828832418 0.5424004371255046 -0.22128867844428984 0.12284293817086585
Ni -0.008805441351628685 5.0615996450956455 10.25473641239183 -0.11007586831318462 -1.7346567113477158 0.13666981675162915
Ni 8.713194302943426 2.327765565761274 6.124418140481128 0.42710137274016763 -0.6622428979071497 -1.035745511485255
Ni 3.547586450766449 2.6820976873467033 11.508821653690259 0.462672584976558 0.4246595960678945 -0.03585480491508018
Ni 1.1452972486251125 3.3638455757314842 12.687571048981736 -1.086516314280219 -0.5751341799130998 0.3907981674337592
Ni 3.259655869292189 8.280563358332282 8.165137934138217 0.22014762286131118 0.5032307089045784 -0.13946871965300495
Ni 5.609255807816545 7.8827530655465505 3.6578464032328544 -1.7960137742989584 0.9914849990049827 1.1772171205009017
Ni 2.9631766680578187 8.487282052085503 3.5504468806479634 0.8523674920438093 -0.7066036834107121 0.7897940401869624
Ni 3.1845060601271493 4.525278117279607 9.459415300761009 1.2659857426958776 -0.7484779550469949 -0.528546819071864
Ni 7.393621370801179 6.208938761497855 11.645242923613612 -0.8448732405492934 -0.242341385349531 -0.32104850954344705
Ni 0.7448642901167998 -0.25989982063028366 0.06566737520820398 -0.6926006842634008 0.7122498259528959 0.4005349351055489
Ni 4.840460827352177 0.6045262640485822 1.5075881170572678 -0.9013238673378541 -0.7471412385134423 0.8701713529944497
Ni 5.958769121448027 5.777787036654117 0.47494207493973806 -0.5446951466969522 0.5453433218039124 -0.20638862140400585
Ni 7.908716548703317 8.640803284019443 11.511239225138342 0.4990871190498501 1.2069113051312246 0.5446282980147588
Ni 0.24664401502137506 4.629449673783106 5.887358199057048 -1.0476636030790796 0.3115691092981021 0.36118908631807467
Ni 8.209007236454932 9.04409485741569 2.61414977270568 -0.813113174528877 -0.6667526128520452 -0.5520893822784944
P 8.705271855968293 1.7505522325959204 3.7284541909648414 -0.7564424613097102 0.010964469431303697 0.7563136490413298
P 1.6757563471789116 3.144095228076441 1.6980544508015922 1.4237668875048253 -0.8096005333899282 -0.8617422483904901
P 4.834843422223188 1.0553461668181006 8.221733063938586 0.3909172095101268 -0.8951115678795553 0.4847879288183586
P 8.5727500997508 1.403933833723966 12.567168912392296 0.31001976253311125 0.407037512110757 0.22620205658550718
P 6.197114078326494 7.885756879920856 1.6381651076541757 1.0877301320826622 -0.76028908874931 -1.3155177879877344
P 1.9347468560257952 3.1146469572467645 5.932185817983814 -0.3663811720419755 -0.280069238917608 1.8754006981687186
P 6.956480167144625 3.9315301926037223 5.919554370166301 -0.43789229270808455 0.5624203318908572 -0.1346108773400714
P 2.3078369362568147 8.365142059143556 10.218795002030987 0.283686266844905 0.8023590213361665 0.3291145743810332
