# total energy = -381174.6886638445 ev
CRYSTAL
PRIMVEC
9.18086803196644 0.00000000000000 0.00000000000000
0.00000000000000 9.18086803196644 0.00000000000000
0.00000000000000 0.00000000000000 13.43712838114334
PRIMCOORD
 96 1
Ni 6.65350349891499 2.3091810749490107 4.216906666909622 -1.3716835365460247 0.8705287363338685 0.18103368757898497
Ni 8.294253124705431 5.714612862305183 6.781571097592213 -0.8168474447603288 -0.5803656035153683 0.8356046707631738
Ni 4.830403474904769 3.600800656257436 7.976467481319084 1.257386688172957 1.1883926775017468 -1.695211875088532
Ni 7.877111210823953 3.882561492092954 2.7264469305471324 0.10156885928343796 -0.9203613435852794 -0.16439196525724592
Ni 0.9410573214340889 2.129539032759582 6.103882579330582 -0.677805014011465 -1.0390529785919331 0.5375922171035838
Ni 6.037292826368752 1.3511666905045534 8.996681327695832 1.4819890043715123 -0.7640282440767681 2.5150513125976492
Ni 9.092575492906064 6.160738776145368 4.760008252198598 0.2386053153458665 1.2613202188994084 -0.32568292299166485
Ni 9.230444586152789 9.04858077393168 1.9162959321447897 -1.6560696576714318 -2.9509402017224597 1.3949828733935976
Ni 2.1009222675168546 0.6255549598943457 2.9866703683772227 -0.5804154829166972 -1.022713360891645 -0.9954864068548919
Ni 1.2236352545126614 8.322328218742088 8.56270262017347 -1.4871312106940842 -1.0420298018320697 0.6317467862008217
Ni 7.431471882982441 5.851885199138439 12.721184998031072 2.0641173562142576 0.04508532237441268 -0.303677108144535
Ni 5.907649790759975 0.4655820090927963 0.0570664386896842 -0.5369682103663397 -0.413395850228617 0.8678213647050343
Ni 3.132796734212753 8.821271665608071 9.896390774370964 0.6982725378371974 0.9998495689195941 -0.5093476204355938
Ni 1.0360793041938674 3.346472253705612 10.32757482570472 -1.1705173398832227 0.19619522581077178 1.039322944423868
Ni 5.147106693965767 7.150417973975185 13.329725055447284 0.8135705737812698 0.6088930215310997 0.36768703533759256
Ni 5.94923912234469 5.992756436188299 7.237479226179311 -1.064303782738922 -0.17827797921071878 -0.9206588202210403
Ni 6.134481493952811 7.198231933995758 2.851197481652267 -0.3344259592916176 -1.0559168442268072 -0.41174597333001994
Ni 1.2227906146659078 0.7877487626407833 10.96724996042849 0.5946568233270598 -1.3942673353838118 -0.30006522242356065
Ni 3.3130997988909456 1.7125899171039933 1.118271024064101 0.7022034974604875 0.22130950437989627 -1.2181714514260762
Ni 1.3219623497162583 6.332668889299221 7.264594919520471 0.8752125149627829 -1.073399831502919 1.3281827850499124
Ni 7.040495442614525 7.465982765416645 5.483423001120457 0.044016000569633874 -1.5414735328903904 0.6042344397131659
Ni 6.729998490253587 1.426679328977904 11.471787310105636 -1.1671594791545834 0.7614720533138176 0.3262665634092768
Ni 2.5277591779001995 6.227410238831504 0.2815854812586369 -1.321157245661699 1.2910388290097636 -1.2605231769194098
Ni 7.548628938247903 7.761514903101405 8.046568916252472 -0.17911744439287863 -0.702230751153997 0.6613967478567706
P 2.0141997893382197 7.955616812232539 11.700903213231864 -0.5705239348345981 -0.06158949067702296 1.0913857265573785
Ni 2.03476493343309 6.407777569584994 10.058214588141052 0.6165171137352609 -0.14761937378459739 -1.2171661500900133
P 3.2363661049869616 5.095813185011285 6.747830489974778 1.3546301806081638 0.09732525351573561 0.9417796613600554
Ni 4.925379553325051 6.304786593488452 4.83166859850132 0.5034721354914232 -2.118419054980616 0.6151531435081987
P 6.440241118477609 4.639909646858137 5.4060659262860975 -0.47377589397857117 -0.22421048007677516 0.3224284206101092
P 8.495488568194475 0.4395377230355074 7.8319238971094265 1.0731293514503517 1.6690437013335966 -0.005171516898610448
P 5.381668687929978 7.7811435986705275 8.56508046495944 0.20024265640726804 0.1784985798619571 1.3985816464884495
Ni 9.173192693931535 7.511180178085861 10.55178722728583 -0.6736112876450915 0.708366945958722 1.5169210403620068
Ni 5.32812586634012 3.227166875351667 10.203200690183465 0.014683570154103742 0.4612451085014121 0.6921219448547694
Ni 1.9808732388630512 7.211764533279614 2.28644832794307 -0.2720432832893379 -0.00859262676501746 1.2508936242494455
Ni 4.415942374449944 3.3419736284348587 4.967357235621915 0.28733080557602775 0.15436594847981155 0.24740851545979328
Ni 3.1908565428091626 2.1804653069980833 10.996341376541622 -0.023150469974534325 0.8369326455459779 -1.4604801837654589
Ni 6.58727271788803 5.244616691926308 1.2696690442475218 0.32148842529434307 0.4516644067915125 0.034679039439424145
Ni 8.300505295744989 0.7774799618951975 13.280518357766356 0.335476512043319 -0.698871604873777 0.2325416256502898
Ni 5.882136158867278 2.9939820115723808 1.1928609853135523 0.5918332378353357 -1.3136308553776666 0.3918759738789703
Ni 7.722909353584027 0.6317474552925556 5.8344681746463065 0.5442230921565402 0.5919988168789224 1.3309495491617722
Ni 4.045356641686808 7.150188452277698 11.360674938265202 -0.9491792962582362 -1.2307791128877579 0.28006435382160155
Ni 3.2855112908529613 4.879466032959674 11.270001932629413 -0.01645248912906844 -1.3879812452647837 0.9194380604400616
Ni 3.707482341249574 0.4495962819061947 12.37617257280198 -0.29725989176428164 -1.4369538185087447 0.4661026937040295
Ni 7.7110476722578785 4.086376759461754 11.060947143950372 0.5248431449680316 -0.34523487698166355 -0.8846145250029732
Ni 1.3536547057053168 1.9515862702636606 12.985116588405768 0.8136183963000698 1.8137695556204827 -0.7334305737955692
Ni 4.302962614078752 8.28464075601466 3.7737498457481324 -1.5768321148953424 0.7313816616863404 1.6904185674649468
Ni 2.5749396580357073 0.07713489783119144 6.9328460941457815 0.28424033957616207 0.06457042768221782 1.0977648906108448
Ni 1.4925795987604829 4.693204585014709 5.693082808994076 -0.9658169048149173 -1.675708772058598 -0.16562455211276636
Ni 5.113422089642518 1.2474596067118522 7.119057965404088 -0.507104590037688 -1.0972519555301683 -4.372804472887933
Ni 2.2969246163031842 3.9039804569024765 1.8529800766759188 0.14280832554919923 0.33954553990637004 0.23110180787996973
Ni 8.809345718206627 1.6362785431233866 3.935452472061947 1.5683060797022021 -0.42290301838810396 -0.41325803909917214
Ni 4.987240241231851 8.077759078767428 6.348680322915941 -1.1028279069560492 1.2046047684852352 0.40734038806315653
Ni 7.285202295607679 8.050345007219533 12.083660022569365 0.42894639636870646 0.642190607241965 -0.4463766760300119
Ni 4.399325003551858 5.084401366212212 0.5497118101766134 -0.0035902884544196235 -1.6021664798950728 -0.40951399867570765
Ni 9.340523192267739 7.925375033371601 6.275663044337673 -0.15633798460451784 2.3469572158984677 -0.6983964650095714
Ni 7.145900986968633 4.555858801238256 8.529163073563033 -0.1262715042364406 0.4175813490648743 1.0252834356116665
P 7.576961096585746 1.623003008140716 1.9244926110054592 -0.7429691094136237 0.16893664720513488 -0.19664002665767424
Ni 1.7559878796649084 8.929670172897415 0.46440593991487095 1.3429661140066742 0.36491461479877796 -1.0218867512252916
P 3.6214392472955024 2.143475590231016 3.1288755855328785 0.917423344002878 1.6141424213100266 0.5336681994588293
Ni 0.1844482265348146 4.792587480026747 0.8418295830895515 0.6126334624101385 0.8933945851884484 0.477724594213674
P 2.474868197931206 4.0952638395884655 13.139885823281885 -0.8184752101717389 -0.582600406383158 -0.5530000670182218
P 0.6867537072255929 8.79090135459654 4.243888319579448 -0.4192080860350199 -0.6551515382780072 0.394334719832108
P 0.560837185897222 4.810279012469076 3.344555288488197 1.6864768092083793 -0.9504807886784792 -1.2205751757715624
Ni 3.1431343914675853 1.0312685294145318 4.990441609868406 1.0198738345603209 0.2532027535440672 0.052503983435986994
Ni 4.792826182592134 4.38306568650185 2.7070165417246397 0.7296263695581304 -1.3110515246862646 1.2094145311690527
Ni 0.12739096871302988 7.405728729392256 -0.14854368835346754 0.5437397247622184 -0.21215303469160882 -0.13986981174616556
Ni 8.15432751704922 0.4760078026794634 10.016143260991614 0.13009499174758887 -1.8579079407005938 -1.086222437188884
Ni 7.070498518910076 2.580585891793897 7.089952777989107 -0.8351282453473875 0.5127957268851943 -1.1196460069546523
Ni 1.6384544088155673 2.982735448395499 4.008536770975882 0.25374988429678874 -0.08343718267973371 -0.15903687159291965
Ni 5.595858336025207 8.59473375018802 10.784087973486395 -0.1105972880342934 0.9359615120163817 -1.7795263181668968
Ni 3.9114812259763645 8.600976740359677 1.5389411454793551 0.2517786195030309 -0.6877896360280025 -1.2735776961105227
Ni 3.3621807186816484 7.214059750254488 8.031653678262952 0.41710595209035256 -0.6401851467761619 -0.6111975012945602
Ni 5.715283065661845 0.5622804183310227 2.7164636547932206 -0.1458216584542263 1.3794603522779663 -1.7238033135729796
Ni 4.9729823533839355 2.4539725425919543 12.55597528017965 -0.47772716531683534 1.0727529419475397 0.003770522786025764
Ni 7.5177353177661015 8.755151054995904 3.7926964028323216 1.9903071551013272 -0.05538927540358203 -1.7280111810067398
Ni 0.7016423206982049 5.53121584514486 11.957579163705592 0.3582076350922476 -1.1049161569436454 -0.13898380959678647
Ni 8.328001995103977 3.5570446398484403 5.404399598762338 0.8314752219758325 1.259835921044398 -0.5611795175052207
Ni 5.682186036884165 4.832588521464849 11.939022793507132 -1.4926788799851904 -0.033227137484245994 -0.3334365987951548
Ni 8.1619659991416 2.657585830866966 8.954408021452606 1.2744747540034953 -1.51322430823671 2.167882966038699
Ni 0.4968465366377383 1.9603356373718797 1.6528738799385145 0.6475780968061234 2.8216322246525407 0.02517727059657599
Ni 6.91757280230818 6.324314299510679 10.208065632083407 0.32938505443360044 0.5231824694361571 0.05252352382001277
Ni 0.532084543809582 4.002968574594838 7.832314083995155 0.1572602393084711 0.03131937893857187 0.5255149742240756
Ni 2.527777539635999 7.440450771788147 5.425146524041619 -0.027910610367339026 -0.012252077894475674 -0.7307378574547544
Ni 8.31450611929172 6.319016938732671 2.5830996134247792 0.5627352920281147 0.7362613583761448 -0.9029665451475997
Ni 7.280226265206152 7.6144741228230854 0.9138966418402215 -0.19726789004966025 1.0494325220540441 0.5072531998004104
Ni 2.7508175443863427 3.9218372449669956 9.04748733256485 0.8508294581327284 0.1988666019953478 -0.8108272067081778
Ni 2.9825793736412076 5.191542094599326 4.006051510035488 -1.182420519078712 0.15203112969904783 -0.2713326303755585
Ni 3.11993433828556 2.455836258775552 6.866493207575757 -1.6509868438318855 1.3126607781549136 0.1835813937015032
P 4.135962626986929 6.371191811005504 2.6031074788381496 -1.0386017499871274 1.0691397706749846 -0.9725639937307637
Ni 4.7451958399295515 5.641046567826525 9.310989258321852 -0.22177615960366967 -0.21897545693008094 1.03106507529045
P 5.75905744380664 0.47703330562383706 4.955411090311091 -1.2313408989284989 -0.5690499213922329 0.1834564380878647
Ni 1.1806504310072232 1.3713095146760466 8.579740474821353 0.4160314880792512 1.979761518374997 -0.32384612689324227
P 9.2593643200362 6.001156930316337 9.122211334485636 -0.980580179167021 -1.3908642232395336 -1.1766486495919415
P 3.87043356559772 1.6865254331373256 8.754127388225111 -1.6705313416227163 0.4715369773457234 2.0343442387168835
P 8.742554904237798 2.049536949883378 11.37068575662281 0.19096303087755498 1.6358985820401954 0.843945072308069
Ni 8.07753873793784 3.20873169260948 13.272832135160899 -0.6697047535018338 -0.26222706852986455 0.04599832110698529
