# total energy = -340868.00719085487 ev
CRYSTAL
PRIMVEC
9.30365051281678 0.00000000000000 0.00000000000000
0.00000000000000 9.30365051281678 0.00000000000000
0.00000000000000 0.00000000000000 13.61683295291463
PRIMCOORD
 96 1
Ni 8.113536606051525 7.755094873206358 9.268964372434263 0.565567105049955 0.6903070031332177 0.9348474530165964
Ni 2.988648781602117 8.067678914012337 12.123474985587888 0.4775849833120162 0.11716748505264336 -1.18093699255465
Ni 1.9846453658161403 4.018367486654947 -0.046542440696946 -0.3649812063706553 0.17822192916180274 0.9067776913635738
Ni 8.12925977495926 0.6149629076623162 7.814522869487454 0.15672467851997526 0.1439000159514812 -0.037753307489373694
Ni 0.04280981622015099 0.5812232200623733 1.56661654427075 0.010614285180736559 -0.34733675381601475 -1.1684938816952908
Ni 5.873273449856665 4.320726815845777 3.774694652820984 -0.4290705806513965 -0.7448478144935753 -0.7320820301874746
Ni 7.0218183757909145 1.5211654217471045 1.1621636091574121 -0.38249838931881225 -0.1492725931173042 -1.276705443106227
Ni 3.6690898492974235 6.829167690245066 6.869024527878641 2.1311822681835557 3.038194187045123 -0.012658826414591103
Ni 1.2648126429993234 7.455591764639595 2.2808056728512165 -0.26446572805239615 0.9407561051915475 0.49005329098235606
Ni 8.128794592447198 5.667532528421358 7.43622063447226 1.186207754035286 -4.184639059360174 0.2814571204040701
Ni 3.433158582829216 6.832665862735782 3.4111666143889168 0.2701221550072251 -0.2150074734212684 0.7144041532917373
Ni 0.07771432083030017 5.166521659279064 10.152846499225234 -0.556831267838854 0.21789173694759895 -0.30343619577832254
Ni 4.074328942856148 9.106682662005948 7.109307111564687 -0.6211440709843109 0.8665777221059205 -0.07628000280966217
Ni 5.51625517549841 3.4768764353129145 1.2944773317935927 -0.7258815578037175 -0.7459065947753928 0.2958686678437098
Ni 3.2044376452979884 7.838604437771941 9.626623668294142 -0.43760072960959473 0.41794156061777055 -0.5537667699809172
Ni 1.9987869141828611 6.442861524927314 13.618466448111244 0.07262749365873944 0.47674011881321765 -0.26908857153638815
Ni 7.380827631300799 6.5457878075464135 4.8330220823657 1.7163370871029213 0.8625732289322176 -0.777454544785003
Ni 5.7805439679019885 8.73786735914177 9.007780208116193 -0.12813298292521158 0.172222002824626 -0.20092811251006684
Ni 1.8757554433923893 1.6815045300050437 12.986277832027229 0.33217958645960216 -0.34444863363494227 -0.4197390188378255
Ni 4.871930878039689 2.107500067252028 7.919563871806394 -1.2382381402689644 -1.5612296324713952 0.831412229948381
Ni 7.290814815216573 4.58887662309948 0.07531118797298174 1.0254688121495952 0.5475112759895087 0.1272670353804905
Ni 2.5512748801100673 3.13693966279762 8.627611660862602 3.8792922768227 0.3856076243717553 -0.38085031219242793
Ni 6.145954134777863 4.91868172050204 5.911706829003325 0.18588638768559598 -1.0308503881764828 1.089317274064124
Ni 8.70870971928565 7.797156675947111 0.3603145576387346 -0.8412567268426286 0.18270747573698212 0.3088918195762551
P 3.7126774506777442 2.7448466270298004 0.3695363357578752 -2.2722586986433124 0.3381427460215725 3.7466727188810443
P 2.369555983597704 5.471430188636001 2.093206869386375 -1.107936174716892 -0.412813752472902 0.20151252425862715
P 8.239805747125958 2.101685285851238 2.834615687477706 0.6858471675896511 -0.2801558850941433 0.7244525386666749
P 6.028942125693489 3.6223017922341083 8.71991968746135 3.286287901497398 -0.05536562125449819 1.4890837064347644
P 0.0725470734863023 5.094585835613613 12.826756514625496 -0.11414206796275828 -2.3103025407899116 -0.13505233575286416
P 6.297743188464081 5.390255840280975 1.859024689163525 -0.33569634136360893 1.547065425155871 0.18575860385848006
P 3.807035071424641 5.963481642595958 11.929639015001303 -2.5955093580444006 0.3817000617872329 0.5879228470373359
P 8.1735730610584 0.8373601541245571 9.948784886658478 0.09992952390780209 -0.5121637497281502 1.1800556183909612
Ni 2.1182085686797225 4.5815174357586415 11.112696651696224 -0.011357848214980438 -1.326700029856799 1.302858190242195
Ni 4.077454969337213 5.6312203815297055 0.7599658788625564 0.43743823588980146 -0.7297258712504723 0.6321216530417372
Ni 5.89179701748702 6.750505327455182 13.270352697398904 0.38567318750236806 1.3198081878329722 1.2323906803492517
Ni 0.03317588639532238 2.97549342016097 11.82335969683525 0.15070161225434692 0.8441494750093913 -0.4419672341084066
Ni 3.6956982889874377 3.156765741461753 6.108198061368766 0.05725615340899171 0.7695856835598875 -0.6543246715013377
Ni 7.0735373674821 5.72666652935483 9.573926862962598 -1.55568916226914 -1.1986110127956455 -0.90690213275658
Ni 7.895161327588583 7.089651289699968 2.487645355380016 -0.1823385224333376 -0.2974768928710942 -0.1700188245257201
Ni 8.397781728222617 0.7385479456421431 12.652434020054937 1.1013837183103548 -0.18313402175143945 -0.08195031372156208
Ni 7.136132326305321 8.247285881919934 11.85243174310915 -0.8523968026198482 1.500425356699829 -0.42046792658405
Ni 5.226930260295589 9.108878323462886 4.520298486806102 -0.5339047409496677 -0.2382556453159316 0.367963943148063
Ni 6.866968421175321 3.7476777828853782 11.068673639484611 0.28311033973677696 -0.18996929950571798 0.2363921097446316
Ni 0.2627722974142531 5.717204717059465 3.6688786564369464 -0.30836037255281734 1.7259183030334535 0.9141886391156644
Ni 8.07124221205474 4.323834235026359 2.7132765506661203 -2.239575606587995 -0.328886260420311 -0.804323344151389
Ni 1.5855559850668908 8.242280518090134 7.609330863416382 1.1139661829610557 0.04895997483847052 1.3767432104571191
Ni 4.632585171932938 4.698352675488431 7.662858484714469 -0.2343480827314093 0.36970663687078265 0.08101803171527983
Ni 3.09630131854378 0.8493907042515353 9.355621361876466 0.5902543233839899 -0.7191630081329615 -0.832508034115721
Ni 4.7952967110024 0.43481074585058166 2.0028451664181004 -0.5066885855461919 0.7371920977205304 0.4918942008458367
Ni 7.534328556631411 6.046712097654303 11.754676429294145 -0.6941963108852948 -1.7137186756434681 0.03524082548016511
Ni 4.471846006714624 3.3864356513175893 10.092564427851991 -0.5951090803731299 0.3836643846024554 1.2070712277478568
Ni 7.172304918443355 9.320303775195605 2.948384444087976 0.32240965155703183 -0.2556704983582694 -0.07881691029890298
Ni 1.0526801138482687 4.447609997836132 7.999793899661932 -2.2516641623214126 1.3765318657772616 -1.264108580277823
Ni 9.07879962223288 3.051560064533543 0.7609762552787577 0.4386247999987349 -0.8707444518891003 0.16279531019408736
Ni 2.0766863776529623 1.7957998732189688 2.114272194262644 1.5993925166943617 0.31040491378667184 -1.6079254938660374
Ni 0.9205012941405863 6.313289588017233 6.135227026049686 0.12038470643836041 0.3018989331981898 -0.6395130604098018
P 2.525410732439354 2.3370397260044866 10.694129148801863 -1.0942687045321282 0.7432593869605328 1.725395340650448
P 1.0988913445966257 7.107291010557404 9.799380358529096 0.6726162707216738 -0.7770871341432553 -0.7010583281124506
P 6.201031744206144 0.2553554274419177 7.009251005045016 -0.888254949969038 -0.04348301088429931 -1.2226292300871135
P 0.10972539021541633 8.154072610152712 4.49472554338794 -1.376002475636353 -1.731009858623748 -0.1615555242497153
P 4.861594522621645 2.1446588463156355 3.6972147839767637 0.7030648170195183 -0.8071019353377906 0.915809719658855
P 4.761040670814067 0.040716494915866645 11.81815802598536 0.8037882975835254 -0.252444535221804 -1.1529163389720078
P 5.255511073836752 6.595106457475353 4.857300888035302 -0.8512763158621598 0.6606868662739396 -0.30055913134084367
P 6.413545723017092 8.720553266042778 0.652397074773065 0.5556678436583721 -0.3306847470816305 0.4071997487202342
Ni 2.8484055578653074 1.4860255347858513 4.841995453023399 1.1884037332453403 -1.5214765209431733 -1.6322273038361954
Ni 4.486880705504507 2.3051189020267113 12.28659030307782 1.4510774023943203 -1.5641192953143643 -3.2381216262048165
Ni 5.284845483047456 4.69281700359488 12.497773859904266 -0.05890551608695662 -1.8007327770411827 -0.5239525148329621
Ni 7.688880794439283 0.361775230726613 5.2228589829500125 -1.0776431801603052 -0.34587045368313335 -0.0010222706169272717
Ni 8.13387438547893 2.9204809362843775 9.188066342491402 -1.409827394605598 1.4192761987233236 -0.632811222909594
Ni 5.261121174932234 7.021529962633435 10.807897905412132 0.34290725728975135 0.5748364461670229 0.479618211691961
Ni 6.560710862533401 7.070029891341144 7.0243247791659105 -2.3236329393502304 2.7629043717940287 0.008911957777649169
Ni 0.2970971846143716 6.883184683545843 11.947858353268769 1.5418537990479446 2.7620091136732694 -2.0403822173808472
Ni 0.6693706542732266 9.080576619428962 10.487344357809487 0.5761811331203754 0.5577802620156845 1.0543163325089069
Ni 8.084695290303609 3.3689354852137727 4.857913998586201 -0.5931082478930173 -0.13793377106571728 0.6113193715844052
Ni 2.595997526819822 8.914152923913235 0.6840806556696887 0.020616133588454814 0.3032099387001294 1.1569185181528654
Ni 0.7144868453881869 3.3138764830859735 3.418233667112181 0.5405083623091144 -0.3420330822149142 -3.362363501605738
Ni 6.159286265573594 2.1953730437807644 6.068831526102907 0.5759127099503372 0.6524485375245473 -1.95481873238673
Ni 3.5496495875000798 3.659776895405918 3.1205698901981163 -1.1548904319792432 0.5750961275863128 -0.5004395193126865
Ni 2.0188362804527844 4.81362490197769 4.608902730243801 2.151472128780843 0.10778758649964017 0.4365049254422547
Ni 0.4537548384718429 0.38114729125897234 6.124905556472028 1.9448245972884957 0.6449864248195473 0.5903175725217575
Ni 3.419742719181314 5.522721212416088 9.56942017478573 0.07139747790638026 0.3041373356104053 -0.315855652488598
Ni 1.1236204469379047 2.8414743384355656 5.403294906094105 -0.5465311714644264 -0.5570940345819373 4.214816611384819
Ni 0.7940163083805577 1.974764889259918 8.998479348970003 -0.4534438672894384 -2.2781591232881477 0.22800902788725894
Ni 0.13089956779950848 5.506263055139292 1.319636262776018 0.921800132914335 0.08200996331490391 -0.5457737244731117
Ni 2.2946150809043244 8.27641561082533 4.96584099320998 0.0854297876297303 -0.08465100048217679 1.035023802827882
Ni 5.410770389062961 7.382130142334577 2.3331898755346523 1.051531056454286 0.0035640632021745073 -0.342566586120881
Ni 0.8102660638919488 0.7496611558553327 3.755331895938866 -0.9786009439534631 0.01297970008911958 0.5138167119505409
Ni 6.144009671877439 1.5428987487106967 10.23604532187276 -0.4476419158956807 -0.5602315517696544 0.6471908886700338
P 8.616808262202447 3.123077223938137 6.972008493129236 0.4905353728250972 0.1471671167385272 0.03907151208016497
P 5.176253277431425 6.5807044069018765 8.658249511472107 -0.2836716115568857 0.7491538980680968 0.3631672930903681
P 2.77642321594865 5.153952427803117 6.637456673373586 -3.123198199991344 -3.8932777924685142 -0.511495520016532
P 7.315125253296995 2.544799539542148 12.894745729858604 -0.36967166986778915 0.792860337817112 -0.5439035040335923
P 2.756429671580174 9.062201910202466 2.996479664010189 0.8285518776814503 0.4949928943758185 -1.0323549977464674
P 0.9816560479064612 8.822195644928584 12.879058845186808 0.19592963085421095 0.4546039490358106 -0.014707481413503701
P 8.877310468957832 7.513562809292909 7.325052248104424 0.2557743709259853 2.400795344764846 -0.8762705239136521
P 2.469523705440083 1.4297291471759643 7.039970727776645 -0.24045728095294072 -0.42623079720975626 0.4719964334806452
