# total energy = -340870.5886772901 ev
CRYSTAL
PRIMVEC
9.20124578685453 0.00000000000000 0.00000000000000

0.00000000000000 9.20124578685453 0.00000000000000

0.00000000000000 0.00000000000000 13.46695328523736

PRIMCOORD
 96 1
Ni 5.071432346846625 5.4324800380368155 4.334150307968643 0.369599421868957 1.3587909968540728 -0.7435604631407193
Ni 6.336934914586221 3.314794872186395 7.635021854731123 0.5909696042834597 -1.5419540720712346 0.34096761706487727
Ni 3.6452760242157045 7.963604789713807 2.423365279452806 -0.12046878151173446 -0.601809375211441 -0.26691007582783066
Ni 6.728392723755554 8.183183323890589 7.258822471778073 0.39509448081626797 -0.3945676617785205 0.3363226620936982
Ni 8.692665515304538 7.771455169817155 10.187009511553624 -0.27448146041718535 -0.12957562890900912 0.6421576971215005
Ni 3.5382655334146667 7.051292049093544 5.656039951351137 -1.7781764890072214 0.6440654556671745 -1.4114140223664273
Ni 0.4280373625811578 7.591580012063975 13.267858103958266 0.22004297896264682 -0.13339423132415093 -0.10605954806493992
Ni 5.978417566041799 0.6019556336838999 9.161811284571147 -0.5767074379374907 0.14326932434601777 -0.537100622179146
Ni 1.314867252447039 2.7821347421372065 4.878336838862755 -0.4215727296124546 -0.8485738293293322 1.3686234095634622
Ni 8.462431938277577 0.201382150117612 2.7200824593415818 0.6401270398447169 -1.0955282879708421 -1.0626153392929052
Ni 8.484404513688832 0.07906446649657396 8.31476666221813 0.7747176054698143 0.10791588454738835 1.0991574000829973
Ni 4.273592307520919 8.121682195729441 10.502473310011448 2.9917960593965574 -0.3713554853281153 1.9398621110768979
Ni 8.59159902940956 2.623588072576357 8.256696678684646 0.9216744059697481 -0.5029561150869531 0.15913148818925496
Ni 2.2569092188435844 5.464619990261065 6.962442057492334 -0.6433167504266082 0.2790958192607451 2.4903023877877435
Ni 4.788052373012545 9.127994865328501 6.768665657305602 -1.6620693268982922 1.9400819403971878 0.3282691956616024
Ni 7.336595083338406 5.280751491750564 5.644862277729032 -1.1093037444883798 1.3149668005802708 0.45408510041786315
Ni 2.53435438901759 6.4498802090473335 0.9850090247708881 -0.5654884292932196 1.1527826416076212 0.6459063655306554
Ni 5.048843287954403 4.8130705608447055 6.629915468480646 -0.9390658619733181 1.407448609960776 -0.34480678830530936
Ni 6.619643197463424 1.5903525572263222 2.9658274968494016 -1.2193934967586355 0.7953949313135075 -0.12451724054949523
Ni 2.2175922947513373 2.1815142092456736 7.384724960834716 0.13076682100363288 0.2982757346233057 -0.8266883421101504
Ni 0.8842443397442054 6.218827721127742 2.875033281971645 0.954761161221388 2.3450646268614452 -0.5285643025733606
Ni 8.989276880864491 8.041732569369147 4.702767864230374 1.3782092534796846 0.8127737889115874 -0.6457978649772491
Ni 1.5840128987429245 3.982501689551734 8.740403419721902 -0.26246746667544474 -0.28746244605788557 0.2920302679342261
Ni 6.082916116689038 0.40462755254710797 0.5017697070296491 -1.3989531708952552 -0.4374606044873046 0.17731073020144303
P 1.2552339772207688 6.577989156891086 5.363187294775899 -0.32167200206005886 0.6548406919058077 -0.46424404322873597
P 9.000483998473747 1.1254320001158473 4.513301327662834 -0.4780554951905315 0.1549040803714687 -0.23771905608617125
P 3.2784775542851317 5.7555633882944965 3.1257745960491095 0.06785244086759927 0.6275556309376096 -1.8329942081780495
P 8.880554958310315 4.773551209340797 1.678978958550105 -0.1324948594383331 -0.3691839315980932 -0.4756797958695033
P 3.8962216059540276 4.9141646504776375 8.39962147281282 -0.9300088939773726 -1.4508313478217851 1.470621643074835
P 3.9339375132449517 1.4351827449418255 8.495089000526162 0.7246458856244036 1.2049397832271507 -0.11179439366618811
P 4.996644619483699 4.538450173187975 11.837856580630374 -1.1896915988188286 -0.5766354470489746 1.2405639601886636
P 5.505133076331312 6.992164842396426 6.0812046849359 2.198570624930543 -0.9506695076505176 -1.1107803290339064
Ni 1.535908784735373 1.1777594860303358 2.3878116649682655 0.46388871677184623 1.7709588882128595 0.8034321997956874
Ni 5.857264760162414 1.2984522296104912 11.32215250668163 -0.2852574679867668 0.9342023632334299 1.346110830283243
Ni 1.7374712792742835 8.661500895154656 6.608772845457204 0.6893708644721934 -0.9309866845096095 -0.12729274641210336
Ni 7.846362513377881 3.061788211347519 5.617955074096231 0.40992537518151334 -1.643187916612757 0.07130826062668363
Ni 8.606551054134554 2.4993252455541723 1.991628095861236 0.6436749050969753 -0.1386606219294128 -1.436620860649358
Ni 4.607422713088627 2.5670280135089474 13.424586607312557 0.5801581154902525 -1.3183218330954327 -0.7657863644184554
Ni 0.31611248629973904 1.241018052174543 6.547242273308907 -1.3463064912338167 -0.029754862664929396 -0.4723011092052576
Ni 6.9340037665276935 9.137214513805082 4.5723678061364526 -0.7679761729809226 -0.6257867119626448 1.162119859848147
Ni 2.0995219062767965 8.408429825593888 11.283421701958602 -1.4282892008552113 0.7020669718826231 0.3387011896282038
Ni 3.1281107924046023 8.667178063927164 8.831277685439726 -0.5946899905578403 -0.992159142253872 -2.2230878933456166
Ni 4.374980837025358 6.945128072923089 7.929867501186628 0.5340129843927578 -0.2812547745852769 0.7987124257225148
Ni 2.4436393048553007 6.230964164581445 9.739664254398354 -0.6713955109406953 1.1992085371703283 -1.1718442862247624
Ni 6.703945013174439 8.443201334169737 11.806182211452947 0.908565636501932 -1.761719629002779 -0.048559911186574434
Ni 8.303112364054021 0.5739120761719995 0.180170517749286 1.8138945112341212 -0.9366176575431416 0.0446592905805876
Ni 3.396759571417319 1.2588408656467365 10.690848578805213 -0.3069174694587037 1.2659996266529485 0.21292770807410427
Ni 4.955404634980668 3.79489748517148 2.4209674347492163 -0.025029946385434314 -0.045792118633450174 0.03152455297084248
Ni 5.362624178521641 6.298611725060312 1.812598532614042 0.14298907410143763 -0.8586181009392116 1.4408348987307056
Ni 7.502622365884746 7.527806176144629 1.450848786355226 0.32332702116497863 0.5521947975081071 -0.6457868092336556
Ni 8.396670633225554 5.335287276701359 12.569057516037129 -0.28991116470869427 0.4827567573209428 3.599888953623865
Ni 7.34541907823765 3.8801470292189104 3.215126975681078 -2.2603786593762747 0.9968447206549995 -0.429297351950222
Ni 7.610046912755091 6.542058291321176 3.557646117832055 -0.938463709612945 -0.3098904360440986 -0.09508093756624916
Ni 1.546931877424938 0.9340092786519792 9.187047541933142 -2.694399127833779 1.4576118610787283 1.1561199335109702
Ni 7.3349848652911 5.746021696208454 10.686539635310618 -0.7420975054419477 1.4573560363141804 -0.7451146950017167
Ni 8.585719433225394 7.067458638288506 6.708064411001751 1.856568138843248 -0.6498861761140097 0.489799265990021
P 0.4999828250594375 4.005753238154848 6.78762758503069 -0.008114144466702155 -0.43246572237587455 -0.576921867941142
P 7.552373502923542 4.187652670024643 9.227072041841607 -0.6933979833537155 0.028771158595421422 0.2624517829461609
P 6.519947697220153 6.469754900374095 13.31386157350753 1.7704927472097187 -0.521278824655541 -0.7153942851191486
P 0.11704352942265844 -0.014615259121957696 11.74893389918589 -0.20373370027966206 -0.011542196311644637 0.9512207521682972
P 3.0368620359752048 2.615288548698237 1.605368990673209 -0.37201625884056577 1.3242340848148098 -0.12112518414881074
P 1.504247297302323 2.7237252326268893 10.636428729553824 0.4464934041135342 -2.1483338402621777 0.3072023476889742
P 6.353414346144661 7.7102852865114535 9.586746907130893 0.47875843479482705 -0.8573441193227945 0.7981272426430062
P 5.740942608424948 8.515881976202188 2.543827071758748 1.1033030468202547 0.06801056371201836 0.6847745033507626
Ni 6.841089584575082 3.5003103937281423 11.40220058637396 0.68345372765681 -0.32915956868635565 1.1434122561363147
Ni 1.2937319904203854 3.7260629639605973 2.8491492568923324 2.751143888823991 -0.34682638983849945 -2.9568876775551463
Ni 7.012784834647941 6.063381871463706 8.280722052075065 -1.0621255441406803 -0.44807257567519604 -0.4890927268412997
Ni 8.251695801492009 1.3830300827010447 10.587624400726842 -0.011563536467883311 0.2520293020612563 -0.17537314685909797
Ni 9.10798215531197 4.7198343352826315 4.171442834973552 0.41155056948976215 0.67677528719537 3.2448167788368054
Ni 0.15635309251811783 5.900575025011982 8.734396846343147 0.17358520172073977 -0.02152167612185971 0.18322298192081993
Ni 3.07789039182059 4.114438355725085 10.524384237074605 0.6556842708530256 0.4566842286036071 1.582155841101101
Ni 4.991703550389962 5.805323726579279 10.144911970924827 -0.4179441317209318 0.2897514992023784 -0.5817861380119788
Ni 3.819151969586917 2.655111541319638 4.046658297304039 -1.4521891474012603 -0.7894222586698405 -1.1859131056130028
Ni 4.736856640354164 7.473868472182833 13.453055262388947 -1.5323839118842966 1.8575297314255688 -1.0493972979407347
Ni 2.4980094673783726 0.06049911247342235 0.3945236643314055 0.7987828739491339 0.20829432306715095 -0.9206845312526531
Ni -0.07044473925818945 2.670026761060694 12.87129636364127 -1.4913807299990574 0.5309304888126921 -0.6478184949517037
Ni 3.83390156690025 4.70790031924059 0.4319202883866641 -0.21617963935249868 -0.16427909382846545 -0.8052515123926132
Ni 3.163057124654159 6.484265265291828 11.975811781802262 0.346367705034526 -1.6788110651330055 0.9961834329219167
Ni 4.388736699772354 1.0824253763837708 2.1043461195465283 -0.4957246303355204 -0.1350533641941287 0.3605990181425596
Ni 1.5352831000084195 4.633351824273264 13.213141974586174 -1.123250179366143 1.7283801343103846 0.6948110616511581
Ni 6.184286243701508 4.338083840627065 0.5067080157495903 1.786939579911832 0.004217637625773382 -0.8831870485278274
Ni 2.1200590873144503 2.5832958164097413 13.001037612522692 2.171993902883279 -2.100126170208699 -0.3970017251413098
Ni 2.279121026650438 8.676213687484053 4.116134145360049 -2.010481830276989 -0.22832295958325194 0.6048088241593971
Ni 4.504847222852172 9.075391342034475 4.447973401296688 0.6794021832952557 0.39130056099147453 -0.6587032601850075
Ni 9.06947494086637 3.9874427586454706 10.854081442946026 0.9142400611788899 0.20920963579256874 -1.7419054224903292
Ni 5.055017324010078 3.101914845086412 9.966663593461726 -0.04240083356371407 -0.18645974369056276 -1.7382086903650322
Ni 2.656979394254514 4.791291211599129 4.942465842877106 0.14972922103874858 -0.6674866628045925 -1.9313232203679513
Ni 4.240440218238362 2.5892674250537544 6.235495778228866 1.5458683195239762 -0.10042189016318835 1.806025907119322
P 1.089298707134276 8.443817817650707 1.8471676137782294 -0.31538539772039875 -2.468217897183878 -0.3826451993093216
P 4.2785609803526095 0.2706095645320373 12.393408490564681 -0.24347241363018066 -0.8700258285555209 1.0277383249100622
P 2.851594948075043 1.1723031471614607 5.496482984981179 -0.20165136382933654 -0.9722775728385966 -0.7398539608234097
P 5.757210411325742 3.4783102145789346 4.749175268478362 0.3396352714066989 -1.0103363273835309 0.4916805421731339
P 1.0464761083218916 7.971251025127019 8.592414259803796 0.041741859823476495 -0.8428868062468837 -0.0482745187356717
P 6.950308374412426 1.0977086459642114 7.244009385867446 -0.05184218148227201 2.1753203961533503 -1.3510483767941763
P 6.974792889977478 2.2724685258035633 13.328944255925506 -0.18427327756220524 0.5169316034304388 0.08066681902344816
P 1.029463004496344 5.949856898505564 11.580785729440096 0.52964288034952 0.7655292541023269 -0.611533030257108
