# total energy = -340894.8309074681 ev
CRYSTAL
PRIMVEC
9.05484293407377 0.00000000000000 0.00000000000000

0.00000000000000 9.05484293407377 0.00000000000000

0.00000000000000 0.00000000000000 13.25267791157272

PRIMCOORD
 96 1
Ni 6.321710911492602 2.071911010610656 11.326401281963028 -0.19396273693582725 -0.30227842802479554 0.02001372411776553
Ni 4.674607848957705 0.353453976160026 5.897467985605055 -0.9011194646365319 -0.8701415281977787 0.7508078887317521
Ni 2.807662259057757 1.6861294348296114 4.8721609753852455 0.28571743834232083 -0.5558614477264169 0.293451830872101
Ni 3.5957233341281913 4.243126481767978 5.078571549000417 0.12726754960112274 -0.23930748361921367 -0.6762055307348289
Ni 5.154116102145382 4.47303799428192 2.7427743503567936 -0.1471419199275466 -1.0614598855322237 -1.2269761942018997
Ni 7.364321726226379 6.341396139652395 2.568567325016832 1.319474201532321 -0.595936975591064 0.5340903745979124
Ni 5.20841799417587 4.784723791759566 11.676854483232457 -0.16362191986044078 -0.37910119071180515 -0.28342272877087316
Ni 5.438266122790493 7.743511376478294 12.440964593718961 0.1774169167620041 0.6952023835523059 -0.2907172055497574
Ni 1.6812398197393226 6.510703589575033 0.6361977797245408 0.29772628987773886 -1.0143248797176339 -1.2301612767981007
Ni 2.72513642214499 1.5315994882909587 0.4652858116648679 -0.09124896541466865 -0.36503031444103584 -1.0516220735061954
Ni 0.6852523903757275 0.0789038998088492 4.77448910298817 0.24426765583796642 -0.18598331827477646 -0.1094202370070567
Ni 8.617982816005446 2.1202004870486397 1.26031096630186 0.18661118166676247 1.255350888689851 0.4795919864397159
Ni 6.83512955081571 0.7772369160353758 4.928923068193569 0.5199781035662464 -1.1447356029334286 -1.6818683639020904
Ni 0.8723281582459096 7.5169229912571955 2.7486183458739655 0.37837819650285154 -0.006130538377770087 0.37753847421037556
Ni 7.729947222024121 3.815909945518114 3.554169755219218 0.08981249007845822 0.005396745535539093 -0.14399823209224233
Ni 7.6374157838617815 3.860106633028671 12.311936706328993 0.9711393454690952 0.1238577525886254 1.8151021583889773
Ni 8.050416216978768 9.024862175416812 6.865509453759096 -0.5296019998092556 -0.91420817949969 0.06077059432015341
Ni 6.897481198059655 0.5949982451674759 0.0959777113167177 -1.3778534128021624 -0.04788448238610463 0.26055405170281576
Ni 1.8856891144127224 6.354081974358868 9.285514879100255 -0.054863999027731314 0.7227895491419553 -0.8873329523754009
Ni 9.17029200498187 4.70655333421426 1.3703273058333632 -0.9419316135568874 0.12681400700347192 0.28499984345000595
Ni 6.458964218045566 1.9382072024195303 6.920243261789226 -0.752471392477104 0.6010681261700422 0.7231947550001738
Ni 3.1831665883064346 4.279889143372744 0.5874646159913269 0.36982722160904696 0.48600483194459526 -0.3336885669049608
Ni 6.175266939538446 5.62831821747582 4.530202122108778 0.8341507119254666 -0.12228835121897648 1.8696766512007479
Ni 5.164592555218464 3.0022689396512603 9.13503063630668 1.286330624900817 -1.1234386412278652 0.3721085614440559
P 0.19234387538783057 5.592415765933235 12.375959877546395 -0.07932778849705048 -0.890288178348983 1.8101579270098243
P 3.9738807323054886 6.100129854317672 12.9034959222163 -1.0432932419255259 0.6002980807732371 -0.6389559023547512
P 2.40436861737927 8.36804199130684 1.3367709640498406 -0.06497023422379779 1.5920571593752129 1.114976883613757
P 6.474936960673845 7.685641876400447 5.677208935473054 0.5452484480972609 -0.011821932335592544 0.9284292081950785
P 4.5965913237393154 1.1440069439579557 12.534568125264059 0.9685610432189576 -0.4926099959659387 0.780375832196856
P 3.9322556201387138 6.352587925303501 8.291842773030341 0.18034386060081198 -0.8655418246422384 -0.8158339158941498
P 4.780947922328732 0.974844371519475 3.680507448825251 -0.453808963938341 0.792708642730596 0.6054390015442283
P 0.3184180730695532 5.654568206636464 3.6052055654662483 -0.37055792912748436 -1.4403404755927904 0.18266968052051122
Ni 1.4971639212754602 1.0258774653136766 2.5423272961832235 -0.7761602514536117 -0.491188947248696 0.2599781245946878
Ni 2.1091173595106514 6.403648183625983 4.969290462701009 -0.23567322930073603 -0.11004167264113952 -0.3868342976900047
Ni 5.922229358615988 5.651915137707844 9.13859552790121 -0.25368714937965336 0.505457284242252 0.8375733644537705
Ni 8.427994105219438 2.367732723573142 9.969061337100039 0.490791197589645 0.680774381052434 2.7264142472877952
Ni 2.39207214091147 5.081278946985595 7.108802212903463 0.3288818895449368 1.1137597233772045 0.15316318642096202
Ni 0.46110519076267076 0.24489003340719395 9.331978899237864 -0.011089425044942192 -0.9760622366920093 -0.736349804324893
Ni 1.4645212131264012 1.1966336900778811 11.472564553791631 -0.06848287536274658 1.091242773221611 -0.3660338160048857
Ni 4.029640454020303 6.8639058411063365 1.8751873077799128 -0.22297506500777728 0.0874974687920364 -0.51091187959892
Ni 5.738425105434921 7.801679686367213 7.825997372082917 -0.6797202287563068 1.028223234966281 0.4072370297160728
Ni 5.563711914384687 2.8057969614492397 4.743809484749435 -0.8246967656014185 0.6173496369388852 -0.5844392593641096
Ni 0.857507191616678 7.637144138578987 7.258147356477857 0.033874798370573916 -1.3399473817850085 0.20861982472736973
Ni 5.106614397027501 4.5648450450234765 7.086882249550552 0.7477819574212348 -0.33945992217109927 0.009865837050486234
Ni 7.942745081722052 7.217841534901184 9.066408510451575 1.0256909554627305 0.3932288883624389 -0.2605622792329319
Ni 4.4716888227107106 0.3603157360033982 10.538078521936836 -0.07588225315061126 -0.075433852759283 -1.0997479824791447
Ni 8.560701880706986 7.063574178802565 5.131715326641927 -0.5956274147704452 0.4608620141303804 -0.4800529852365346
Ni 7.199143284602208 6.045320891092635 7.061172834502668 0.8096193024430056 -0.7920458123356166 -1.0321259124547966
Ni 2.329548451655089 5.014934114084581 2.7741167830855464 0.3313699460741132 0.9000488572801725 -0.21463569190414647
Ni 2.3685023852077243 5.146120675988484 11.439274424385246 0.0489697450304834 0.9954619813748598 1.3004976604298184
Ni 1.218627903141422 3.2391798456185237 3.8288312061363405 -1.2896913138429338 -0.20458010744035732 0.36000020821629614
Ni 3.4507734112294015 2.5053482238364984 2.6485080043216773 1.4202771291840122 0.6252789190882909 0.507082735660817
Ni 1.0658093218843705 3.462110074364664 8.310595352385874 -0.2796390933587249 -0.37669592370442223 -0.3806096569365316
Ni 3.6442391816351702 2.746868044768497 7.131650297639252 -0.19018578639189826 -0.11547132829714309 -0.39408557993577936
Ni 4.398426089941213 6.5828254121567955 6.073569284050366 -0.4528756534907942 1.1390166981717802 -0.3260873575189352
Ni 0.7901029421127679 7.206414323338323 11.242737251315354 -0.21210572639344116 1.5035659592113397 0.03908642447850043
P 9.377647904181165 5.554992100807004 7.978588676786698 -1.1713601474994924 0.6671997276917929 -0.027649386286152385
P 8.56935831038535 1.7318201713955348 8.020361382890458 -0.21825451960365636 -0.13810860608068473 -1.4238864438018253
P 1.7627877336340316 3.3174680161197068 10.489547281197165 0.21568110244952532 -0.6531949287722686 -0.5158555967574406
P 4.129116956579406 5.9835215892570375 3.8729364397350237 -0.9419699229939905 0.6945431527017523 0.2644053071281059
P 6.921241105461355 4.135726991794055 10.358690315569719 -0.8274573590656911 -0.4354194056875598 -0.7669323050974404
P 6.108061896575252 7.764428063253418 10.213653466180434 0.25071521123552304 0.3613109566079196 -0.038108891056579525
P 2.4497333796058407 8.317434475122347 5.906718412968461 0.7070315149767501 0.8154359091247828 0.106423616272578
P 6.863244837584872 4.042661317908888 1.294071947531754 0.4569086859095873 -0.7819048672468727 0.9131874515446596
Ni 5.024975934705194 2.852402237133902 0.6821565396361537 0.9444096427837347 -0.1850003855362169 -0.47238878382305743
Ni 1.4217823553001712 0.9423103214835333 7.03090340064095 0.5434142231019996 1.2718774255899643 0.038051298345766725
Ni 6.772959000426961 0.8100733978194946 9.014286119073372 -1.0334230339996655 -0.7929099601081248 0.796585352077183
Ni 2.6345879945470454 1.7712992858282384 9.171329689962143 0.3042671763200502 -0.7602435802233551 0.8243478669024319
Ni 6.443453272398039 1.735894850637442 2.401385046689918 0.46523057551172137 0.5405993793610238 0.6596931349021026
Ni 3.8950221067104387 6.95891830618486 10.427339605953101 0.8863520765193703 0.19211822752792077 0.7979968877127289
Ni 7.946502841467366 7.293992762511055 0.23734372745118124 0.3830555473738629 -0.6528830539588046 -0.6600507753518374
Ni 7.510847191765373 3.816444181240942 8.242674976844656 0.3803373771117515 0.34307412188491887 -0.578567631074681
Ni 2.9469257407033966 8.355338046914847 12.423497802035316 0.5535729088025563 -0.35815158504333156 0.028279820781299682
Ni 0.05060751618449141 4.916109560204184 10.21015467493805 -0.0154502731167992 -0.6932120925951545 -0.20128909539391138
Ni 8.733187580438312 2.1619523670140524 5.74287556065136 0.21200416781857037 1.3397321804504088 -0.1649635214899998
Ni 3.748940328466674 2.8248574054586073 11.49757221852563 -0.5728119595378264 0.23213462001985827 -0.24522410621396476
Ni 1.1601336189131495 3.4060334331532567 12.68647035643382 -1.0570167621592053 -0.18125634511275235 -0.08598051792687772
Ni 3.1504514414152975 8.467464164809384 8.175802246610745 0.1278974698756378 -0.1534904878533937 -0.04802692150123986
Ni 5.519442788132051 7.944257240462937 3.7623161421914424 -0.41942123048709057 -0.26659177325646344 -0.4327176904856806
Ni 3.0516178326921404 8.473585238515003 3.7001211437272423 0.2204399572907494 -0.032112564263828566 -0.05580913654982002
Ni 3.585527581180663 4.510153794754317 9.488678386101764 -0.7097352870611583 0.21318944637592316 -0.43613520080766177
Ni 7.344292414041714 6.244355389795678 11.315255676009997 -0.543452789649419 -0.06889836563361038 0.26935210961042
Ni 0.6012424647346303 -0.11873072020352929 0.10004695765296934 0.19519223846755418 0.06399604323598657 -0.01777763569839519
Ni 4.611468430393658 0.3107993283714621 1.4823520094889886 -0.4769203531448238 -0.5569109720368538 -0.09278237134005955
Ni 5.9512139102900905 5.933747118606448 0.6687617107415897 -0.17679882356203097 -0.9545894115302139 -0.6250390351633429
Ni 7.926392035697863 8.810054140626207 11.020038826543866 -0.28482629398661913 0.570115900762902 1.2287849652758644
Ni 0.15912799569207645 4.84090003624133 5.764450534495122 -0.4306055292386843 -1.119099390422563 0.3123610090717782
Ni 8.194062242520147 -0.20772895872099736 2.0498977823773195 -0.125190612467436 0.507752508034332 1.0601139130272903
P 8.474219077508188 1.3856263681603118 3.550180191499253 -0.02002195164788165 1.1612215164035937 -0.14349995229958512
P 1.6458897136050847 3.0581735388502316 1.6250300723393463 -0.2624913779348447 0.45541641763477697 -0.04813207962053646
P 4.555708708678844 1.1019653090242298 8.169944668829434 1.545035539210036 -0.3789968039234569 -0.07369141614687955
P 8.520335391683822 1.6423583249287652 12.422953605985454 -0.03481453657602391 -0.09687145380776865 -1.6735071364215888
P 6.2798141540430334 7.974328373268214 1.6566242296968212 -0.032481003346840835 -0.34861304942527704 -1.273080701869446
P 1.8263708394933085 3.283575739669796 6.036860046017883 -0.726228399620175 -0.9501969388894733 -0.31766956576888516
P 7.006918027654531 3.878614731629691 5.985969113255011 0.27846384210370106 0.9028647294624127 -0.5673131412067842
P 2.249512696501265 8.605722558908685 10.270666378133205 0.7254825225930861 -0.46760164684705924 -0.2442936239798954
