# total energy = -340867.9530117651 ev
CRYSTAL
PRIMVEC
9.31869633936250 0.00000000000000 0.00000000000000
0.00000000000000 9.31869633936250 0.00000000000000
0.00000000000000 0.00000000000000 13.63885404091653
PRIMCOORD
 96 1
Ni 6.002852575384057 4.10151236829918 12.364998670470154 0.933666802444934 2.9980492393951206 0.18003018601513512
Ni 7.204684841944875 1.8425951453775071 0.9992493994159606 -1.8624747341356698 1.2323048055036647 0.9126403207919379
Ni 8.597960406049504 0.9367526305633842 12.412011493489457 -0.4581381874413142 -1.6643856337362948 -0.034136279562076696
Ni 4.786921121265617 2.5041759918106723 13.598019681800706 -0.5285766438685349 -0.581828818324456 0.09544834820799691
Ni 1.025522531868016 0.7671188099262864 3.392637274217342 -0.013510118671292861 -1.2289050357934965 -0.6077409102045275
Ni 4.618196805390993 1.618219574979342 5.696853611901974 -0.29867348428235657 0.4141880071126093 0.421753478164693
Ni 4.190897303562043 5.226297653547097 13.60489315221875 0.9602831194808815 1.1142837142014745 -0.6413732535469922
Ni 1.3863238166373557 7.747433672690797 1.7791068672346921 -0.1310100473626905 0.994126807503204 -0.9596244028509603
Ni 2.8507569459700113 9.390636672549178 7.576792500979689 0.10094330988429713 0.21609376450691167 -0.8436992748458502
Ni 7.589696099797296 4.159045999482761 8.530762354894998 0.26366200120417815 0.020317114290797265 -0.2714308465163196
Ni 1.3142437004719845 1.0761882838513546 9.092342407198386 -0.460265261086646 0.5224401919534938 1.1747198080003445
Ni 8.103883126270839 1.2028573231578692 9.104289907771832 2.9487624773448506 0.33329955899665825 -1.7376160510863559
Ni 5.298815748440299 8.782573099178421 6.724391777787646 -1.5965951564548826 -1.3797328892130625 -0.08267356504083181
Ni 3.0222116398713252 3.484726495157152 10.353881424928534 -0.9122569693105902 -0.3215825276700462 0.7015751198478691
Ni 7.783059048786495 7.576277177072263 12.024436662274772 -1.7600216724750655 -0.5697248359720705 -0.7054544002976173
Ni 4.736805172366151 5.032468769741056 4.676244828612368 -1.064166228719793 -0.652891795709553 2.5987918854504146
Ni 6.204388021060654 6.5428989841923 0.25226549666466036 0.7224018267852332 0.34200788540393356 0.15890394555948117
Ni 3.142012799977597 9.176539624210534 2.842787596862755 1.1204204232268318 0.6991284580795895 -1.4310150844268064
Ni 3.400494798968556 8.95142787680176 5.160710804989229 -0.4052786204381213 -0.6092565755181056 0.25655958583144206
Ni 8.541591611908027 7.630511989752606 6.064134186234311 -0.4266776549391878 -0.4074491457268789 0.0015604025085844094
Ni 6.681076613474798 6.323024344124822 5.101995563110138 0.21657250391554314 0.4680281928615166 0.6928487957184648
Ni 2.1956246374019317 5.6146729607771135 9.734186254790146 -0.21293002206694941 0.8302845441018409 0.02071229284668691
Ni 1.8392310959999119 5.931890702779104 5.844808417381072 0.21818432848735328 -0.3162060938494813 0.05875793476549881
Ni 8.772210708851867 6.4629352509259705 9.966633679955272 0.1383862852221036 -0.23131932320741452 -1.373449370197196
P 6.613385603284073 1.9573735281582283 12.405861153907148 -0.35269133325970875 -1.555102950748367 1.0484493322051687
P 7.9221405916136645 5.383420192482369 11.757005919191558 0.6608850983276747 -0.9201039761588348 1.3624332215923505
P 5.376272752392021 8.049648313590493 11.098658660387272 2.01884511464002 -0.8117702873477374 1.0603684522402574
P 0.4110085568929063 3.769626998263021 0.9124587892132714 -0.2891290351270311 1.0189711202403935 -0.3740191482032075
P 4.904168958575597 7.451667569656187 4.271511481832682 -0.2643963082670414 0.10618244679604939 -0.6390438340828672
P 6.959398116966865 0.6067067711841144 6.592681323762907 1.8643493254505634 0.8712129068850866 0.026881397771876286
P 4.19704764314435 0.4733142924705777 0.8113108635644299 -0.26008508248619727 -0.23979290789606444 2.376997985234932
P 7.8152365072375645 6.583006653226011 2.2586218202477957 0.5563589561881257 0.6844325466303116 -0.1764794925493993
Ni 2.208521713132103 9.501063224140601 11.183519368578603 0.02696830105872775 -0.22693764919995107 0.4744883466645636
Ni 0.7596657165960907 2.838819695962533 4.445829811118304 -1.0726143594871462 1.694522048110359 0.16113489177252893
Ni 2.6102879869981424 6.8903558958073 3.778289658377737 2.692335817546847 -0.40148367217206343 -0.594413339857686
Ni 7.955846316263976 2.748148780605188 6.312334867556847 0.6578887347035122 -0.9965073919202387 1.1524437702109636
Ni 7.051476155471072 9.023405487307425 0.07447315738466888 -1.1498150743388649 -0.3854003934569556 1.0158827111230568
Ni 0.6958969456935371 7.113725047001088 11.809733898674235 2.6391744030325195 0.5854247632058304 0.3002534271749668
Ni 2.7989636317299165 3.4498559334647383 5.764011592662232 0.9104476840159934 -0.4049536329985349 -0.7639793931167036
Ni 0.42582714780773157 7.342126294216764 3.970147637908538 -2.7281517988041917 -0.3304250656623406 -0.5724144669890916
Ni 2.065945659178621 2.5509931222069 1.4344259952584326 -0.26247415154366405 -0.3871315172154494 0.7913307885464629
Ni 8.097630281028827 9.035566386026987 2.519151136823956 -0.23555084479025884 -1.9155402465020814 0.49432697865704545
Ni 3.322087287990478 4.822807420858745 7.668281597875407 0.8603217138938797 2.1484060882610096 -0.8222249070221581
Ni 4.235198385947327 7.115318544074686 1.530579099670734 -0.8576174275888391 0.12001215359029009 0.4457776089934323
Ni 8.737675620227579 5.087980243819546 5.486801809643148 0.8963032741948112 0.07371738428880853 1.9451238736964696
Ni 3.2322364179107743 4.376507097199 3.0476833644384134 -0.7079134033610711 -0.15149968267561006 0.6901033717628438
Ni 6.047740735638561 1.4891369933215886 3.8462658206763685 1.0987403671502367 1.4235182618291289 -0.25953383796841756
Ni 6.919588646215932 0.36818448787700925 10.743911732627971 -2.016043897745799 -0.9314571963881249 1.2360532168025036
Ni 5.731920798087094 8.991973524563303 2.29104063293399 -1.116026407924194 -0.26311898421651464 -0.5887759390662505
Ni 4.498544744426111 0.21983084219469384 12.390790026321596 0.22650004744190025 0.5174000584264251 -0.7083795443642122
Ni 5.1521487867949505 2.6015377311378596 10.904045142349672 -1.0491437871690317 -2.3527992765015413 -0.2739083615225347
Ni 1.1736618475345844 1.5766022771390642 6.617708546514728 -0.38384976114038416 -0.10433330940245256 -0.33231739758904705
Ni 4.399673376292356 6.899311162986993 9.591428486258097 -0.1403323532048809 -0.3404364271517556 -1.135546994455625
Ni 2.0041254276800986 8.133386118873238 9.46042718502459 -0.751889294721389 -2.090289643734252 -0.8668669712115651
Ni 8.692433349512276 0.7325790619538303 5.050767893737688 -0.6135248638761563 -0.011504658205489864 0.6451432621123857
Ni 2.0212531915471903 3.140596358134399 8.336585883715594 -0.720275781581166 -0.4359788777354556 0.26199284103187137
P 0.07340150730593356 3.1177935081981785 9.700007140365926 1.2197148846537962 -0.5085392656016855 -0.7165409971290821
P 1.0804376093809485 5.184214420889979 3.6966886301650272 0.6990065877897446 -0.08931883827149134 0.08678167367193441
P 1.2268063727435192 8.683878786275066 5.358828152849477 -0.07524693355945751 0.9574901301167767 0.9822678512820889
P 0.9053458282993699 3.8979454468211543 6.718158501807941 -0.6495897279195135 0.45094964011267497 -0.9246599709606332
P 3.8930810873333295 1.668848052177333 8.580666769387618 -1.5573593508827117 3.0873793905205216 -0.8179435060379848
P 6.814986279835028 3.947110888694263 5.074035746621116 -1.5144368404875725 1.4294420835127317 -0.802012179519709
P 7.809365728545362 6.231505427400827 7.726451696018795 -1.2175674992934904 0.08239640012004519 -0.2384376794197507
P 3.351748698430604 7.317031044981683 7.684443944802004 0.12890122854980382 -1.6212381518145433 -0.20818402274153178
Ni 7.47804879898575 4.655061568099488 1.1726414502857014 -0.23908765429892373 -0.8566350090709118 -0.8174501113413342
Ni 4.416186106201217 0.03810787679982794 9.70152142852066 -0.352086095575542 -1.0981564696223087 0.52182878362174
Ni 7.513264152442625 2.859805400113072 10.66958021942762 0.04233398488152064 0.8772467717839924 -0.3772695368197051
Ni 6.858523229120693 8.730425674477527 4.41463827073967 -1.1669795019332936 -1.4592961907596866 1.600267205989831
Ni -0.046750967652236707 0.9751829342564665 1.189863332985795 2.2719049148483195 1.0190191998695095 -1.5077272896778808
Ni 5.525157563765536 5.979257636259206 7.64448257930078 0.6301768706105405 1.1037481047774733 -0.5672378078841587
Ni 6.510619020081524 5.709043398580179 10.204658344877993 -0.8360618129052504 0.33258273543529177 -0.21353551686143227
Ni 2.0160999524729237 0.6587898968802846 13.495168298461492 0.28038548460644613 -0.4375246249560207 0.5158232008576084
Ni 8.22985326335209 4.484538743831857 3.3653465401253047 0.27920277715225467 -0.6262361407952376 -0.35475541487758905
Ni 2.619019605465751 3.822445369100166 13.05392429943411 -1.7431776043345333 -1.4896974287593634 -1.1308153933079106
Ni 2.1417252977897134 5.294184356360896 1.2526620275996847 -1.1427761652142125 -0.32912794411747187 0.8809000522658637
Ni 9.318379501153407 6.12776038108291 0.4115714061516508 -0.7660640435598741 0.016863351414241924 -0.6543899775216343
Ni 5.952382516023792 5.588189225787846 2.9526485035865315 0.6506526219663891 0.966364549788271 -1.5348948512316083
Ni 8.286231376189907 3.250957678851463 12.966636070847033 1.3696737052048475 1.79331334464866 -0.06914519153709382
Ni 6.8999914278195815 8.122110496305675 8.420342326391012 0.5832802060590019 0.22571406120549511 0.5114482117183643
Ni 0.8332303010879188 2.166186875673889 11.618052974373835 2.02591539122324 1.544284262866308 -0.9556541053493024
Ni 5.952848450840633 1.5197955042697555 8.60439869334862 0.46677555140133803 0.5882581188895676 -1.2042003339579648
Ni 3.3812889658183516 7.146797100300494 11.730710421868295 -0.20642487395857997 -0.04596489676588859 0.0626446714144147
Ni 5.118992865228512 4.0509118471902 9.082876475459434 -0.05716050837139188 -0.47374786895411314 0.3252805453469237
Ni 5.59411591665807 3.6810993830631467 6.942913343147016 -0.10319816735674485 -0.7818035657823181 -1.877739116493908
Ni 0.696620076529275 4.565639358051278 11.309924688778787 -0.7355144529077914 0.12094803514099814 0.17697905789363713
Ni 4.296739056555745 2.41252661333796 2.3690278707072765 0.5290258155908114 -1.535008236881021 -2.802502445801625e-05
Ni 0.576020304146937 6.277167039451288 7.864136366265074 1.1291650021886812 -0.25089595978776147 -0.1746619797246863
Ni 0.10842675935753851 8.924124096534852 7.719168202961929 0.31711909258205384 -0.0025253375250150058 0.33361991845055444
P 2.7089450251161495 2.0253254618463843 3.8776083239356587 1.4803697236005342 0.4337667005754852 0.3437456940306467
P 3.143857901852289 1.9918433859081581 11.890380692382054 -0.5020734553716838 -0.09740187238994193 0.8593770905924233
P 5.232699597930499 4.181755662455614 1.5125902882621196 -0.0020825935606415746 -0.3728156148134095 -0.31179202394218564
P 8.312715111179173 1.9720784309777442 3.0787397837201627 0.046490687362371545 -0.28213563452833346 0.31574612349392717
P -0.4288864758151124 8.618470856686864 10.231540920070476 0.6719285006260298 0.7916079534672497 -0.754762502504126
P 2.4643012901853814 6.945047324608149 13.624615241146014 -0.20340125664090775 0.2275223180588275 0.19313921259326738
P 4.361196479117591 5.094661749093053 10.824558526335787 0.054168258512287355 -0.02910257379291117 1.6160193266177652
P -0.12314284461265865 8.42344917974971 13.56064891388112 0.5637945865305645 0.12977360385242812 0.9205986564070662
