# total energy = -340896.5752397604 ev
CRYSTAL
PRIMVEC
9.03430077270759 0.00000000000000 0.00000000000000

0.00000000000000 9.03430077270759 0.00000000000000

0.00000000000000 0.00000000000000 13.22261238198104

PRIMCOORD
 96 1
Ni 6.503025107798756 1.9452746458969818 11.352670209327288 -0.8045503725605305 -0.3410406363946578 0.02359784192459807
Ni 4.629329225791231 0.24225838510682157 5.862390202122769 -0.26430272011197065 0.3346074791748044 0.2706114359388178
Ni 2.869348085810287 1.7483720636717242 4.677736815425522 0.5657565953529418 -0.8812738906655144 0.8007937337315757
Ni 3.4130684349107647 4.240357412177628 5.026232251927685 0.29170759448748473 0.3525635494325928 -0.3690219520989322
Ni 5.358858035943642 4.610926355408443 2.8134149237514197 -1.322677024740335 -0.9877874955487373 -0.5579903211439615
Ni 7.2541187935543645 6.0047924623690365 2.7142978046823782 0.9114023346197787 0.33665561995308474 -0.7608524174519476
Ni 5.176139305707081 4.588322535232827 11.494694835807232 -0.5382478484097117 0.5143075355440304 0.4353510143434696
Ni 5.683948309804329 8.216316982125186 12.555359673801753 -0.6732199657439438 -0.6819735435668578 -0.12909380417658411
Ni 1.7908423109321479 6.568063038032279 0.3512743873758724 0.8829867595915631 -0.11591098693772298 -0.7162419778314245
Ni 2.7050773974596622 1.5796022936074874 0.29519215935661414 -0.24939289287967373 0.29656158014567635 0.7088017195032954
Ni 0.8501078137974698 -0.23032136368474157 4.587095677207307 -0.4613453815247022 0.7343975656945287 -0.38724618841644276
Ni 8.705479189722643 2.2952273150907225 1.372546964334524 0.05714482464210804 0.4339947574258913 0.3205029214526222
Ni 6.894490388386168 0.7018910776658995 4.658828927637533 -0.11043093765975819 -0.6042714635986883 0.5024791754505347
Ni 0.6845072763941472 7.20320147520513 2.3411161417094415 0.1773510965210752 0.4827786116978137 1.269826970818839
Ni 7.637146037353596 3.7999442907782672 3.875071727955087 0.5725414794852591 -0.3930892774607811 -0.20852443680008606
Ni 7.451400816406071 3.8942352864508987 12.474966142787856 1.1782599599431194 0.18506723421841031 0.35015031200540986
Ni 8.000514642982505 8.814911673250727 6.793897064594227 0.5687989817236915 0.027812394226577906 0.6149497692481409
Ni 6.922026936705627 0.8243130786394264 0.42110411066341114 -0.26993832113119315 0.0003977496590509279 0.38182938827624563
Ni 1.8973747839580823 6.511743207906458 9.0581764794477 -0.8760375819672398 -0.17200834415192312 1.432511723576991
Ni 9.166291761943967 4.950227584159718 1.5146366377790024 -0.30450088959741106 -1.455569890948035 -0.7024338683037387
Ni 6.383962059799368 1.7331763700124956 6.985863304955393 -1.0865631083577545 0.6057681027488728 -0.2346383602783185
Ni 3.4392769410376505 4.313336492664695 0.4244802288087462 -0.38664814982112766 0.2583061362089035 -0.23174355522902668
Ni 6.118127763769167 5.620346833370935 4.945534264982566 0.05068287106684819 -0.5076545490038871 0.4652215766506569
Ni 5.190801975629155 2.8188192423881318 9.194700120274193 -0.2980458780006867 -0.42975038032724056 0.09370154072021926
P 0.15482984419254264 5.544404502277312 12.502892069464457 -0.5458230896538083 -0.7212065209255515 -0.3931599827977164
P 3.929351612998712 6.247300194173239 12.578763933013168 0.2817862216087147 -0.8201435990130972 -0.07411230573438204
P 2.432115038232595 8.34856107474337 1.5543839468296217 -0.19939316392277917 1.041452074951729 -0.5638907457887966
P 6.426531684366719 7.732656663611243 5.753951491663959 -1.486211784203608 0.05259551470852877 0.9613683821252603
P 4.632400888005344 1.3129729791218698 12.561931224079828 0.758467719269855 -0.928766279819523 0.0872861241121787
P 4.006369025867275 6.282877270053169 8.08891979179486 -0.290994370470544 -0.9406938844950445 0.47411553670617707
P 4.848907902597145 1.0228183457964006 3.806671231027174 -0.7386080042314506 -0.4129559344777211 -0.4595584648276086
P 0.15912565414198565 5.489837326473662 3.676679389555985 0.5627761725683791 0.3681189806686886 0.6157241855203203
Ni 1.6204734696564467 1.2365970015980192 2.63445988315721 -0.05228981054265188 -0.957562635225925 -0.3950039779849907
Ni 1.9720703815648009 6.381296941113593 4.701749083069317 -0.0075945245178062745 -0.7938548405198973 -0.45245990610961434
Ni 5.856223388512906 5.5977249445940584 9.25288011289968 0.11809539618355144 0.43062661228460675 -0.17002216695982977
Ni 8.820702659954392 2.356805108183054 10.27488175791915 -1.3247308219455702 0.21874740007967491 -0.48085439809190733
Ni 2.285163104189188 5.2108219858246665 7.03182440597915 0.6098219611032724 -1.0315957509829394 0.0652689964111392
Ni 0.36629029845256894 0.043096324294065014 9.035737986973608 0.6502780122357898 -0.23949620259125204 0.3409879287798514
Ni 1.6152968153956038 1.2373920200534365 11.345927007337247 -0.46867328264468316 -0.24796953016958584 1.021359675077228
Ni 4.127970712343621 6.78101957247659 1.4342169072932784 0.43570274125593345 0.952978101179036 0.953051891839765
Ni 5.553610454619021 7.900875341337065 7.909607896325775 -0.16229265952605595 0.0935264485949357 0.1414070743262984
Ni 5.374785507953879 2.885691135649493 4.861187324013093 -0.31927084881773404 0.0056548842929321965 -0.02802116780327432
Ni 0.7704198616627551 7.019687726513152 6.652851756302547 -1.0357028311727776 1.407920407390872 0.9552458141672904
Ni 5.057058189106433 4.3437278799831525 7.206640833454873 1.2014765072688987 1.3691237462386487 -0.6096756653333951
Ni 7.937735287906419 7.15636766074054 9.252324503410948 0.3539701999721323 -0.09367068748228384 -0.18051586740230202
Ni 4.608839431962973 0.47863905422393205 10.408629158162125 -1.0055790152042037 -0.34387527762997555 0.2465374257087496
Ni 8.177324940607214 7.297953220209879 4.765376758974537 0.46012153641993014 -1.134269413294782 -0.9644663043242938
Ni 7.195052536037101 6.0645272581329 7.165333300685497 0.3295516619184518 -0.015895588184333915 -0.40394190390456886
Ni 2.4404717663151074 5.2438875261295275 2.4036985490318 0.049962705071372016 -0.34542513861559865 1.5018057819871233
Ni 2.2826877058166386 5.164656709606677 11.467918975600798 -0.16867593734458047 0.42554328422442844 -0.16002391809653732
Ni 1.2169654663295866 3.381574862915479 3.9207030770058586 -0.842257400193001 0.7120716485038188 -0.8298888513253192
Ni 3.817931583332086 2.6374917944485516 2.5204677881012962 -0.18416092035405704 0.6616908820584216 0.12420099486065705
Ni 0.8428776630034863 3.3273780934376482 8.193656245855601 1.1910128887334133 -0.23067629030677692 -0.4360285000264684
Ni 3.567166500752298 2.7124764896754225 7.139972211957682 -0.8555332913663007 -1.1034619409956221 -0.08315667532483743
Ni 4.170874606034272 6.934069659445074 5.985942394105077 0.06803576052299896 -0.9004041837370622 -0.207436603052546
Ni 0.634164539564965 7.229157020914383 11.263206240481129 0.8704935122205589 0.22871428148439965 -0.4696132779604493
P 0.19020274487824002 5.48249244006168 8.12384097744907 -0.4280503669169982 0.6004595460517659 -0.3351798067385066
P 8.208619757988645 1.642607506199318 8.07319830183898 1.9912193825029514 -0.44608819825531554 -0.17509315372483394
P 1.7480829660515722 3.3066353391917573 10.339778753062848 0.4061993324801778 0.4752571065097879 0.13709636276608647
P 4.148008791140391 5.996733866207305 3.9313996889514744 -1.3173594691821635 0.4120763600862451 -0.8941101231982344
P 6.775644163601893 3.863518664309771 10.280686296073762 0.9141012216081806 0.3066855559535557 0.29094937616522154
P 6.196617767640379 7.9140834888577505 10.388781703108641 -0.40565811526472717 -1.183532006975336 -0.295199152580511
P 2.4050211706439946 8.279069234299385 5.865075196269929 0.46226223691201684 0.91048907877689 0.481521599362261
P 7.048687831534628 3.8724174504300684 1.6371580160594568 0.4795354221701677 0.48615626992079497 -0.6100001385523494
Ni 5.36874156083258 3.01959753958355 0.5104831570836517 0.17334840311958533 -0.3767046654551706 -0.34933861473739186
Ni 1.3274730316326082 1.0753799068602479 6.8674019413779455 0.31035143484091715 -0.19732085477478278 0.14457853007574456
Ni 6.707959183283856 0.5856395040224872 9.213238505166428 0.1962386774541975 0.6133878240776598 -0.29570514568265205
Ni 2.5308599441156905 1.5928736812325803 9.245144944700492 0.8219130322086942 -0.25296312672943533 -1.3032772800574846
Ni 6.384973901469899 1.9680591520851949 2.606440903184124 0.8267996708770342 0.26061164441362855 -0.3297396095595418
Ni 4.023958809193385 6.817111603492415 10.444832311075695 0.1721286717798713 0.9459805868152804 -0.09400775910672841
Ni 8.25737787848737 7.2311897385560755 0.2888139431120153 -0.6486975551225473 -0.03975542552106701 0.2659495116867742
Ni 7.572993468581788 3.765035753144938 8.201788019852433 -0.831221968314446 0.4792474586161037 0.04837119221453605
Ni 3.2105555519944367 8.37251100571282 12.443033503781967 -0.46735096428883377 0.33405469199512794 0.006033607788589608
Ni -0.0467371474478516 4.953362486478238 10.259411421520777 -0.325501145998162 -0.6224949285852505 0.22016433503185953
Ni 8.59470059540073 2.3508063325649045 5.745687816877933 0.16716567134764115 -0.396068414693763 0.5978534758874865
Ni 3.607875059389922 2.96185028995823 11.501093830943281 -0.5610710169518145 -1.0125958128416692 -0.37841933415343215
Ni 0.9892378503556444 3.4538763708553155 12.663348476089203 -0.130703057645233 -0.5027699672180761 0.038625682791997996
Ni 2.7936948523368157 8.347251101152057 8.078883587225278 1.2538146545509825 0.8600854295133575 -0.6950198352278546
Ni 5.685655792623351 7.607314776674183 3.547415712715553 -0.651876209960845 1.2658998678502908 0.13440261798400724
Ni 3.1505858644141993 8.27325114469383 3.6864111381943445 1.011729865296948 0.4536474986598123 -0.38335071001677845
Ni 3.4211450996737556 4.525217945334068 9.32442725673693 0.14711466623403696 -0.6665713500791746 -0.07945685787574704
Ni 6.963928023026376 6.21944744533174 11.511804897769904 1.2430710428812335 0.07544645116477329 -0.6929004748920067
Ni 0.6472480137369593 0.08084795633557382 0.04347486149045126 0.5386931634772464 -0.44255987338708297 0.902463380258936
Ni 4.557867907809961 0.49288524288697444 1.6331775032019917 0.035094529710287946 -1.2885204334632843 -0.28482963642072884
Ni 6.065891437527991 5.609812838836654 0.3990098250433106 -0.3307413113511788 0.33538549499140946 0.7552494694428734
Ni 8.023796035705354 8.826123240332237 11.225759967800906 -0.21800049461132132 0.5525863765195709 0.5875050427736269
Ni 0.022537869781020896 4.799761307171341 5.885212652373626 -0.06652035231973705 -0.2750620155110037 -0.19580570368183697
Ni 8.036859634415963 8.870219661706015 2.4600671643810212 -0.054168258512287355 0.0339177357933674 -0.0298582210120131
P 8.727513848958587 1.4628158893667942 3.726740256205519 -0.17139282205511128 0.9840653095021439 -0.6568962888832558
P 1.8366642837262066 3.1887377159736063 1.6445227779328235 0.04673699904522274 0.7208820477065971 -0.5278837315665683
P 4.452771888584156 0.9415999831350074 8.1091367497441 0.627084604838462 0.3573530004014362 0.1837220330444255
P 8.452527806390458 1.645417173695168 12.368828468699443 0.8166618111120839 0.6872371059586423 0.2866466350248096
P 6.436207420341174 7.695923197250706 1.4265747923905785 -0.6579450418627443 0.17678571093590845 -0.20432299712422874
P 1.736790090264393 3.146556566333334 6.041253092850555 -0.15570883566095117 0.1214000350767522 0.35093372713865373
P 6.951397448052922 3.796384776330148 6.034628240198764 -0.7913950661254952 1.0438151758672667 0.24602963283439563
P 2.3299642010120865 8.520628364537464 10.321293670544332 -0.2923945932521803 -0.48963445827738256 -0.36677300816375547
