# total energy = -340871.7645006431 ev
CRYSTAL
PRIMVEC
9.26131678151218 0.00000000000000 0.00000000000000

0.00000000000000 9.26131678151218 0.00000000000000

0.00000000000000 0.00000000000000 13.55487325798838

PRIMCOORD
 96 1
Ni 1.44337619113947 2.6434946406269075 11.22565758755006 -0.11618146699029024 -0.6644044243348428 -0.7637747333050652
Ni 7.942069828939532 5.793342504701743 12.162868559968457 -1.7189089615951558 -0.26728622822032677 -1.5222995310651009
Ni 8.833934616919839 7.600855141675166 3.2228742715483913 0.16570734163455977 -0.6745973057074446 1.0993381486352358
Ni 7.14576330557377 7.248980679011367 5.153115097627513 1.4597996127586665 -2.046600687486733 0.7845001387778747
Ni 2.1859392943115687 8.133519765566001 2.911911674937583 0.3386027163771265 1.0682419414510635 -0.2559579476917011
Ni 1.7817106089431733 6.679826467741068 9.714235725001164 -0.6746862658768251 -1.192333921537682 0.8128223827613356
Ni 7.744850092075143 0.34752442225970365 4.6631877452903 0.044453602327684735 -0.1139669758374747 -0.8844139789563931
Ni 3.3526706974784557 1.2049991633323556 10.685983999261058 -0.7450108224340009 1.9322297913426207 -1.390231217641225
Ni 7.892030935383378 8.707712133063312 7.047286800100526 -0.6159033914106619 0.23258147774928978 -0.9856462808360186
Ni 3.2615763874621075 5.768688879929119 1.1361005246646432 0.18076989239463706 -0.5583726441840448 -0.3536033035510168
Ni 0.6493451732607987 4.957925441360478 11.293215187574994 1.3727330608564616 -0.7470643625289198 -0.49474838246518016
Ni 5.656460245445782 4.590593841301673 12.89647226546774 -1.4099510646676554 1.98037164115517 2.3914031049166686
Ni 1.6376508293270395 8.5030926042405 7.3531121443967695 -1.9919500900213887 0.06049857160568935 0.7046874402246057
Ni 8.193236734962648 6.543046082967639 0.7184438563669365 -0.31619863765031353 0.3854880680747555 0.8224565634169899
Ni 2.406201186861264 3.4352445962285327 1.7781422236595925 -1.0054085510646105 0.384213572237706 -0.5872780143644855
Ni 7.742099481046792 4.067801780899799 0.4334018326387795 0.7385465548658958 1.8798096258696917 -1.1380139679388788
Ni 4.842316426320415 6.767244035069688 11.486508126203622 -0.6359412838981435 -0.33807666867032743 -0.268508273552886
Ni 3.7142880651989034 7.481810178178812 7.067510737146348 0.8258820441587712 -0.4138789605126227 -0.33404697868564404
Ni 7.948200820524609 3.8081422475601956 9.913356810162254 1.3372266404197357 0.45122886191599065 -0.7191959182534259
Ni 6.363209837349761 3.724040231572146 4.544840158933458 -0.2358429221093809 1.0522067423650716 2.1824328388284155
Ni 2.2457673995073404 3.4345777814337812 9.000625349764517 0.5843130181988905 -0.6094740908455503 0.11950641759846514
Ni 8.83739834932591 7.256389732286385 8.442164254633388 1.654866124281634 -2.091094399023734 0.7090930254914691
Ni 8.209675571916593 2.7220769119250683 3.7104705504989504 0.46033468087200075 -0.5867555662021121 0.7603248270832518
Ni 5.495711573327669 8.392438393578104 9.73103019651231 0.3624905787383177 -0.22280280109597114 1.5486682508666167
P 7.1616372022154975 1.1392530768331632 2.008181288137334 -0.1689541307066316 0.2913846639304272 1.450790724391837
P 0.903962845846753 6.802742661573618 1.6019966127043335 0.03358374949271636 0.9362692730647876 1.455543408585474
P 0.9972030029178782 3.2980474522083845 3.371720299580187 0.42197073638182164 0.5842986200211872 0.910821008195012
P 1.167796454575171 1.487663807090891 8.814056126982965 -0.27122541537373285 0.353971485523713 -0.050397478615945464
P 4.422491683808105 4.06134664323394 9.054817943812978 0.2609667137602022 -0.9065254661434518 1.0808483173611643
P 2.567820422739191 6.336222360795508 12.539680969824307 0.7395279449425586 0.3873171508636942 -1.3812773508820468
P 8.112376179782418 3.2307917711044074 6.0583504483742505 0.5030468750285465 0.28725187270897623 -0.6302894849290048
P 7.742905215590451 7.218205323970261 10.240855487551244 -0.6235308260489326 -0.969381482237724 0.03250157217213112
Ni 3.954785934505992 3.577702168073944 7.066751309185659 -0.44794299207586724 -0.6052819071410737 -1.2476635473479223
Ni 5.451312821577123 1.5034913971496486 3.953915370746177 0.3089033895404809 -0.20610477161499988 -0.5559925739876425
Ni 2.907655173831085 3.6634063918327167 12.975252728941008 0.5129101409758714 -1.0039103692525293 1.6541744975312478
Ni 1.3022522488835622 8.963204073935719 10.007346207745815 0.28017079749247875 0.8689133122176326 -0.22864871835378686
Ni 0.3736052159194269 1.4135454903909284 5.8354268534355045 -0.3312812430150488 -0.5994907543805934 0.010665707243962276
Ni 5.3265258417926304 9.259964441549977 7.656903703569019 0.0067355189516206575 0.070635145819059 0.026641256736612183
Ni 5.266734781863234 8.65173673557055 5.379156051731722 0.5613695220288397 -0.16003240273696953 -1.4499679713802254
Ni 0.5121785915854098 7.36105187111261 11.777584823824283 0.6339314525569664 -0.41675731050168224 -0.27926268385591263
Ni 7.589528551480981 8.671713395463318 11.706815399204629 -0.009189894029384173 0.33645790211998183 1.3439331059056339
Ni 6.427724168741982 3.7708006190541044 8.037036295423738 -1.4675481463558337 -2.00810484540438 -0.801384059017407
Ni 8.381936060560765 0.025607540381781427 9.423184959066967 -1.4035248494263377 1.7043945700290646 -0.2108260883500692
Ni 6.439124849468916 3.4521372376955743 2.392557415255318 -0.7009094612394122 -0.7380307915717419 -2.3063805800276858
Ni 1.8206637065365812 5.585305550055827 7.474617839712088 0.7135212364661518 0.9089865260894345 -1.5598849455180426
Ni 5.491525458227284 0.18473362983266464 12.627516222531305 -1.049339962340238 -0.9065900008328 -1.5813091768300895
Ni 0.09146198428512073 8.999045369153619 1.4404218311460568 -1.1102452824660427 -0.9137790623820714 -0.8148188443660742
Ni 2.143698429327372 7.0428052490008 5.313360880254583 -1.28162576322598 0.26212011063835505 0.21505246772659092
Ni 9.101947857827028 5.316495835921574 4.782579082027262 -0.292181963020742 -0.03636028379658899 0.9209190158609623
Ni 5.062004117241296 1.8785839805140354 9.333844742413481 1.3151676037371671 0.7373080544731044 -0.822394856941119
Ni 3.0994940857544924 0.11349187806672778 5.694348291630906 -1.312199522247779 0.9784281658210247 -1.379451867637534
Ni 3.428270824833422 4.647976958916689 11.12556868685784 -0.844252576246159 1.9072121862523606 -2.0387912187446435
Ni 1.2087963031358022 5.230819396112584 0.28689984383686784 -1.7078167083367362 -1.1145899325879836 -1.0696737888015835
Ni 6.988376491379198 8.652134972184083 0.7456850929958594 0.09884657525626848 -0.10895615288644463 0.1038496848978147
Ni 0.5927733469793978 1.1350113938332154 3.112646081449309 0.9392520098421954 0.38952341448639366 0.7635875569949235
Ni 4.0810547249454885 6.177001805915369 8.957399080694742 0.9584576362363687 -1.662026646585815 0.40972302936272015
P 5.885038800296685 7.126916526305443 6.9558461168435715 0.5582039798166644 0.6624362448648785 0.7223984843511235
P 4.766447720784228 1.4931835517807797 6.026307219091455 -0.9716430245783912 1.3195490206343146 0.43412099859111036
P 0.2702943031842334 -0.10721363154780929 12.874472934030893 -0.9811298810229039 1.2146503256466952 -0.6547216498294403
P 0.6290239923907426 4.841010580680692 8.996409598451033 -1.562819345556018 0.01625939928165587 1.035217664006243
P 4.541379204922365 3.4868856975554094 1.1170462919046154 0.29328702315946265 0.26297603088074706 -0.05227798346810997
P 3.3043358861755565 8.069246228405218 9.163568953915354 -0.24191689621760273 2.752463893186995 -0.23060635630078996
P 7.305687720515037 1.9280857177077504 8.832531527455883 -0.21089422258384324 -0.813417078922541 1.1872467368227617
P 3.354421086314679 5.192866520711304 5.173963247411754 -0.18340398758337445 -1.2235681969616155 1.3181130595187365
Ni 2.702026161499551 2.877000215905698 4.928144751721542 -0.24727687497793543 0.3320237776080282 -0.06648229999295002
Ni 2.1687595520301204 5.81052224698319 3.2765519363942386 -1.9201934290033769 -1.8329561558512624 -0.7312433363362631
Ni 4.296556300765984 6.584888711338304 3.796489659021911 1.1468647334612894 1.5483219232707914 -0.2613678058533628
Ni 8.04799150682251 5.118701897428372 7.245960563670137 2.43789713471315 0.27771128020839264 -0.9942399360423008
Ni 8.327720313220821 1.7714861154236483 11.377187545130731 0.10719623277254442 -0.48566030412098293 0.40046114444482
Ni 4.996730357888386 0.8835157110710218 1.2442393617401704 -0.6554204756686777 0.7731438332247912 1.1646400551668394
Ni 3.1238420870795207 1.1027079215541364 7.979225304982088 0.26010847952496496 -0.0656952853152804 -0.004611016409450123
Ni 8.864246906131259 4.928761555406688 2.418148285267231 0.9537450612520477 -0.5357543925638967 -0.11237931963538064
Ni 6.305095075723838 7.90273701736578 3.168709461449712 -0.27256238901760155 0.44052510234524134 -1.6590027721578267
Ni 1.7045823643502345 1.288165786344434 0.6536155663421872 0.987046503617655 0.66398687718145 -0.668765529517016
Ni 2.066079334954963 8.240700982505732 0.23646178753552252 1.183960609872322 -1.1985698751450649 -0.5325505409146183
Ni 1.0765817474431036 3.404024697990925 6.695551257185634 -0.16639511173020377 0.6909734330726229 0.809898010025689
Ni 4.072386132613717 4.287276461539024 3.2379609562796468 1.1320263828968764 -1.0620394121847774 0.14241340410362568
Ni 6.484736833693247 5.8926423412201725 8.770084321927394 0.13901620549661867 2.8583989998589288 0.13920775268213445
Ni 8.84446473388696 2.3041692619476706 1.3058789804616837 0.8448626990263322 -0.12262696550531785 0.6055233337279184
Ni 6.69546883146795 2.0646253082497408 13.53836300500221 -0.34146821085037965 -0.4476403732337839 -0.5428989740284779
Ni 5.84614127060284 4.732995845247522 10.632387834001236 -0.28351040338867306 0.8928988764989525 -1.475266598046014
Ni 4.848234407623835 2.9181482455318295 11.631707973892452 -0.24644332333304655 -3.214387772922987 -0.11625500054070301
Ni 5.4595646546621746 5.206962244567026 6.058838519758742 -0.5007169413437893 0.8613136454935036 0.31447239898782614
Ni 3.1238143031297394 8.450840256018433 11.342053814500595 0.18216497296995077 -2.7018213884397793 1.991728718039202
Ni 5.639623171878304 5.558216199019041 1.528948904202611 0.7743699923224083 0.8040163544339315 0.5764256450310137
Ni 6.833619891097257 1.5246442442498254 6.739224847846888 0.7959297207710551 1.390100862710948 -0.837440695530648
Ni 4.465158569355616 7.672667390543279 1.1969427440274327 0.835411066695129 1.2714753050555392 0.14257538360278674
Ni 3.086639378322336 1.495008031149753 2.9205191425798356 -0.07769642354121459 -0.6433020951385888 0.23192816043600703
P 6.10881073183542 6.957397387373028 13.11012435636446 0.47676711539641115 0.22055539982269115 1.7018273235225208
P 0.7877203567516748 3.1095796595251106 13.216936046772098 -0.7606858099670963 0.4184336697628407 -0.06401661206127685
P 7.072737824231873 3.4937575944679886 11.838297384754759 1.2607028970303835 -0.9295741204327992 0.8887635141743402
P 4.273486361130897 8.937263126156562 3.169725427880049 0.5975601130167838 -0.6508122874727049 -0.17232510406139354
P 1.1296398302088273 9.067310533766317 4.62766040870493 -0.19935973958168246 -1.1135221534451016 0.6707653335558641
P 3.5561233004104538 1.091112753178733 12.801235368538997 -0.24356805866778053 0.09192773664924814 0.5719408697867827
P 7.079730118260172 5.715288128449426 3.3302694249014384 -0.558063083363426 0.2743714172018823 0.568646258195911
P -0.024856447606026462 7.026968397625448 6.315079701143585 0.3317098459120352 -0.5458768257098792 -0.6500131886101773
