# total energy = -340894.26045645226 ev
CRYSTAL
PRIMVEC
9.03346745877150 0.00000000000000 0.00000000000000
0.00000000000000 9.03346745877150 0.00000000000000
0.00000000000000 0.00000000000000 13.22139274279951
PRIMCOORD
 96 1
Ni 6.405306369428184 1.7478855638146333 11.44513823094796 0.18579125686862843 1.6726758987695451 -0.049175690393702405
Ni 4.46928078474649 0.17988523856195957 5.828664025738363 0.8478873447852687 0.4645669737857935 0.08296872768374743
Ni 2.617672950821156 1.440169537943624 4.6109607805825155 0.3484454134991612 1.3278729671189775 1.1519935700474224
Ni 3.4012449271033676 4.421602144993461 4.905692100735259 0.21242300052354388 -0.25340844179697003 0.1512078624668041
Ni 5.049292611692824 4.6077909369505825 2.5400935347167573 0.7807450426108167 0.6289550823882974 -0.040922449245974685
Ni 7.398590286192884 6.046930659636184 2.3194818127401406 0.1834762355822066 1.3951271122809457 1.2816936403494377
Ni 5.167432295415848 4.713970310133059 11.623216776074793 -0.17109277431618922 -1.2217419423861537 -1.2280236616298077
Ni 5.466060653308164 8.133571242537327 12.218814043939258 0.9236189312906287 -0.8840668800296195 2.496174016077172
Ni 1.934245991648092 6.5025877774426535 0.5638437273953731 0.24677962362654274 -0.13806206911346547 -0.8754436571369826
Ni 2.6782965490368777 1.8199003641388376 0.4933718432647683 1.6154112607201212 -2.2353445992257823 0.6080124186983593
Ni 0.46877913222580525 -0.10150455391908175 4.706048862766739 0.617207454934066 1.231789556430143 -0.10410165300762073
Ni 8.645389425774752 2.358376309011578 1.2499870501481518 0.2760937992096278 0.24041177242698591 0.5043447679043637
Ni 6.988606378426451 0.7758411350732987 4.952178322821104 -0.37441072721467133 -0.029982662405019327 -0.478606225487679
Ni 0.9627146638423335 7.535049841348106 2.6319557657725605 -0.7822427102022658 0.6134775555779887 -0.4128536045719019
Ni 7.667435302807114 3.8936682563146934 3.7662719787767918 0.9218590111767285 0.01926990397320552 0.5720614545250471
Ni 7.7674538513758025 4.059775650740367 12.773954025710903 -0.026806578669882866 -0.49495587049029593 -1.0445978196695622
Ni 7.7796219316613895 8.445894336667912 7.450875994205489 -0.2579402682290525 0.753348909986051 -1.0868706122958443
Ni 6.8788136183737185 0.9088300321396394 0.35062318826186584 0.27027487853500554 -0.9537000669467253 0.339139562717203
Ni 1.8044079679326146 6.554123707679682 9.203979288660774 0.05460148939496402 -0.9586743802328652 0.4583582738719203
Ni 0.3235769875379989 4.750411316719591 1.4286247668931555 -0.016669747346197097 0.2885266256563418 0.2675507947356231
Ni 6.23468224141469 1.9467302432848268 7.14107233407019 0.04246793935622364 -0.20212084726658738 -0.03042617770034115
Ni 3.690632048075003 4.313390241696467 0.32675857467725944 -1.407106396130009 0.5755537839490216 0.8453427239865441
Ni 6.124663644682568 5.684526023483848 4.576704066359052 -0.006784884132317348 0.14376194771172016 0.8779831357293847
Ni 5.172012263273897 2.8382069849800615 9.506590502230829 0.665612585710331 -0.2808853070610001 -0.29935662639231025
P 0.41510046357471575 5.414316953326096 12.305189347032577 0.4562011183196014 0.8613918070296068 0.20140196682269185
P 3.9507597688647396 6.254899140953773 12.621445612771437 -0.7897063655691625 0.15813210039046313 0.6244469101052986
P 2.414013433346346 8.608424478092033 1.4425859904131073 1.0131421722634424 -0.1051537484212189 0.051067765210092694
P 6.316064747200033 7.858709936784121 5.7611424719873225 0.08805976905340963 -0.8629144143217203 0.9588900957880968
P 4.698396612722254 1.1653082321904176 12.767118401099093 -0.2071095587304304 0.5183868478197265 -0.18922933601589992
P 3.9269204489882252 5.975972774971529 8.17961301803813 -1.1240456786842448 0.025352105611543437 1.2129112314684014
P 4.98411614602058 0.920519338664918 3.6376417296226973 -0.9383590657142806 1.0877154767946429 1.7322609574220293
P 0.3865655474603033 5.735754815836903 3.5065245669551492 -1.1480096456990099 -1.756229295312169 0.2851456249992509
Ni 1.3323009063993034 1.1093188026357992 2.57170615309791 0.383691638295965 0.2676184147487649 -0.17072716344665434
Ni 1.9364953249748265 6.541350385093326 4.703920577900158 0.2662498165360125 0.3226166253615153 1.288450242346981
Ni 5.864779827506574 5.478752674689939 9.255013861469552 -0.01121026689352263 -0.5287221683074635 0.7248873122112484
Ni 8.48472921205599 2.1800014661613853 10.181529615645662 0.7586520673665192 0.425108510679855 0.3324798913088403
Ni 2.1038583713379135 5.356764733950093 6.975249493860549 0.21026173120616692 -1.4660345379247848 0.05355273641547551
Ni 0.6210318980441989 8.830982008898282 9.194803996050474 -0.9138844776116841 0.11133236642810503 0.03363080068056788
Ni 1.766557740466682 1.1319295709764268 11.484352511957415 -0.8094210703892704 0.07206930716242427 -0.9987959308440992
Ni 4.275720683574047 6.900764943610525 1.5531962792452347 -0.49524100583088265 0.6143589297416774 0.4757954955117612
Ni 5.403124487495478 7.566919913543765 8.049328741044176 -0.30291734716037505 2.1437210240805147 0.524083898204504
Ni 5.293756300400001 2.8305737052166453 4.871065014357595 0.19416636830620107 -0.07997519227306227 0.057368510617139906
Ni 0.7341941413534444 7.288011614495872 6.743610618502629 -0.5090120914730459 0.7366462525193894 0.11929070204323328
Ni 4.968650850215885 4.4388289668974075 7.069994304292099 0.28554003222419205 -0.5989377100906008 -0.46308961790931863
Ni 7.980580442450683 6.837313870168828 9.222780643893433 0.24127694864075866 0.9903467716354816 0.3040082662317087
Ni 4.519542996111753 0.47983609604878896 10.635949148449068 -1.350033819486733 0.189773381444828 -1.6469540685234088
Ni 8.044510289652688 7.267641146014803 4.501870824276048 -0.16424309838420745 -0.5326243315753472 0.04000867918245368
Ni 6.748478753963581 5.995674766881601 7.054565142356106 1.7038389546359107 0.6438798220189298 -0.9392746355500144
Ni 2.5855138076758766 5.378155984222008 2.713915510110427 -0.4858950458396084 -0.4431170314421337 -0.8809581591973086
Ni 2.348782766871048 4.9864829144205975 11.258650431227325 0.21665220811354302 1.0514541804697632 -0.09876301440352668
Ni 1.164016446384301 3.361578972735131 3.6995706638452988 -0.2231514426846415 0.5819447750770299 0.6748271623300636
Ni 3.7430080907593655 2.7404377697381066 2.768863380899694 0.09063575731070198 -0.8804750489133031 0.4044404408075422
Ni 0.9168607844587836 3.2061491365110646 8.161578604168682 0.19648447491641644 0.3046798383774366 -0.17534332206242706
Ni 3.678825306476441 2.566191221387182 6.958630624297523 -0.7594169705570019 -0.6177324741996006 -0.40633560094772603
Ni 3.980010135579463 6.729607841033669 6.163165185131864 0.6131818787144406 0.560806450436518 -1.2689538241852663
Ni 0.8811117414579048 7.5660888345636055 11.517895582274003 0.13307001521551276 -1.6138817114494723 -0.5244330540138065
P 0.09405284684589611 5.5287619489742825 7.9754611766022485 0.26826581852477666 -0.32251378123506397 -0.06664916458811747
P 8.412696344797435 1.4590856182094145 8.091664084962813 -0.41060877440178317 -0.002841326103537042 -0.7137487790959255
P 1.6909747206080998 3.0346939295174122 10.344919743144901 0.35359816134469424 0.5794307504059246 -0.32615189220828344
P 4.238719602022624 6.30494454910682 3.8635416432839333 -1.008629371994753 -0.09138909053695873 -0.706789317058957
P 6.915082989083914 3.955005498437291 10.582601104696607 -0.2053840913988914 -0.7171578047774746 -0.8484421888474742
P 6.103552431893097 7.739820475285518 10.228888470660673 1.307237036036181 -0.24617695704553733 -0.6722740568909066
P 2.3767323143124783 8.567810009670353 5.785417204981703 -0.0954941138442678 -0.9422951675438933 -0.35378842297862945
P 7.073304166665254 4.128258365398896 1.648390052995414 -0.472259971554677 -0.5936240111871712 -1.0345633182516958
Ni 5.595094698445009 3.0275574904486566 0.4147562884753238 -0.15097363496881094 -0.17960286866972938 -0.4655455356489789
Ni 1.238117977626078 1.049056543107103 6.795306441108666 0.46435202956150995 -0.05756031491297184 1.2518824705252762
Ni 6.69921022398764 0.6477158567343226 9.367211330484439 -0.4217776465344091 -0.33569402737076376 -0.9102175702830583
Ni 2.4870761158629247 1.4156436745617604 9.065088827488585 0.605490423607454 0.20977964936342583 0.3363853970108336
Ni 6.390626985267769 2.2543920683527827 2.5631523630292965 0.21957760929045408 -1.0672343261221555 0.39143451546617747
Ni 4.152169953012815 6.744413693734543 10.547392263032833 -0.7311813727500763 0.5913809807892654 -1.181427044817191
Ni 8.37545135963227 6.96701639187667 0.23595416262772353 0.37938606894207566 0.3893359810659359 0.5053400419380975
Ni 7.56021708089944 3.816441145430145 8.106828566310561 -0.08760931177955235 -0.004047173486180127 0.512381265055595
Ni 3.010520371355399 8.384484826807912 12.530521958955184 1.2340996926205585 -0.16208928526599825 0.5540938143030328
Ni -0.07341860112329864 4.740058963336308 10.141455348561086 0.4113983601826141 -0.33431514474536617 0.350670446174938
Ni 8.602724360304203 2.458042552360417 5.985456108812516 -0.45343563975932233 0.8607333475100015 -0.6787401242312247
Ni 3.6935950253086127 2.776896843258991 11.558114384833388 0.12423596186365056 -0.2918564613605232 -0.2944602175319574
Ni 1.3766190963629945 3.2702506195894077 12.587334337369503 -2.0210354374231194 1.1162092133589616 0.31663161142267404
Ni 2.833518615515904 8.297573839111076 7.949825100104498 0.9854099964554965 0.047275388047196 -0.3064523568968271
Ni 5.98910743624491 8.001357416954656 3.3495996919135145 -0.7006042712941676 -0.6167186882231056 0.4786918432229497
Ni 3.127187599928793 8.401440644696587 3.6386598013733917 1.5214631512067345 -0.6941271482102562 -0.9307920520003002
Ni 3.2153361726286906 4.029938108659227 8.997025265707007 -0.1748625257712666 0.49238451021869395 0.09937313718369983
Ni 7.237062859625261 6.178774113064653 11.448350531875617 0.11159333339897556 -0.15368871990712885 -0.4921415409699524
Ni 0.6953845596734587 9.04123595741131 0.15902515615997112 -0.6935278240633603 0.07941006379821162 0.9983282471790614
Ni 4.8067711184284105 0.29141874773943716 1.6122561842928531 -1.0127027707331784 0.22389629127046598 -1.0000465154217486
Ni 5.966008860676798 5.810362221240516 0.2738775611777789 0.7186233335794074 0.1132781773005662 0.9176814827602713
Ni 7.888791382479003 8.715760135072989 11.476644254416442 -0.2183347380222885 0.34056626786140054 -0.38446785434035724
Ni -0.20198380931372836 5.1174410880658545 5.714867633033388 0.854941937639205 0.007029653153271765 -0.23562360700972326
Ni 8.019921192000597 9.014912434061493 2.3055856301838533 0.5742741459056497 0.06583335355504147 0.6299225885078893
P 8.556066502342022 1.7671539493002741 3.611674124879602 -0.5072274887687974 -0.4677885660468847 0.6772095465193111
P 2.0359266981770987 3.437956937705169 1.6951942531258413 -0.11459663900167362 0.043398421590293 -0.6968219214335999
P 4.437230043207319 0.9622178231476733 8.200714294013707 1.4463851391249736 -0.22529085762514747 0.018410384186387647
P 8.692661559504879 1.652203079490252 12.403781511134232 -0.5085495500143307 -0.16390499831849836 -0.4253298826620417
P 6.552344114646081 7.846415387958074 1.1701592040637365 -0.5568227831984216 -0.4685573258921092 -0.35643537368317324
P 1.8288615635770726 3.1910271124590426 5.985588900779998 -0.6043434544872044 -0.018857756136451395 -0.38237214815359305
P 6.94866038657577 4.0853764967161315 5.958683622144071 -1.4003086564818852 -1.2684169778451897 -0.08103911476120236
P 2.5319182469228023 8.37644504102159 10.323832017370087 -0.7991518272527786 0.3818733541403036 -0.8166594971192387
