# total energy = -340865.23839431454 ev
CRYSTAL
PRIMVEC
9.23418202964547 0.00000000000000 0.00000000000000
0.00000000000000 9.23418202964547 0.00000000000000
0.00000000000000 0.00000000000000 13.51515880581328
PRIMCOORD
 96 1
Ni 3.2760661440290826 2.987119355878774 6.205795982357271 -1.2467487488431368 0.14116667618071818 -0.7159054204276122
Ni 8.462444449759838 7.642892331198072 4.306578690297433 -0.19799165558956225 0.5720326581696406 -0.5114942344649513
Ni 2.991348611222893 0.7482605400492339 7.585910041072543 0.9922223913916396 0.5116143049825834 0.18739074014526438
Ni 1.268120976315675 8.099993573096013 7.879283696061216 0.18033177641595396 0.7003579596113165 0.708867025523592
Ni 1.4615032152164378 1.8685736591789215 12.410781203537221 -0.24481427237005582 0.7519833970970919 -0.5965596967767275
Ni 6.380302629884858 7.689247924707853 12.964618812377216 1.2407565358154438 0.6212952518501945 1.3087696706306233
Ni 1.6061659100220607 4.2954828972374015 4.459893813612749 1.1019107944584183 0.4204391302286436 -0.485834367805002
Ni 6.187031201167785 8.343434312478154 4.851117477889549 0.4119071814982325 1.5369777019025659 -2.144690072862003
Ni 2.4204083739487423 3.7377290718222085 0.31286239604492677 -0.23697909259635314 0.40454765580936775 1.2851893122075222
Ni 3.820947519772437 2.03601708091455 12.963443301011917 -0.03601164220791862 -0.1851842194122488 -1.4224016317261825
Ni 8.843391392917706 6.456964808633504 8.313809209868975 -0.34988111750442324 0.9025394849125102 -1.3757754472272112
Ni 1.5372050390397811 7.11409690045353 4.009001635674167 -1.8487843811327707 -0.5976246477061321 0.8644136245750661
Ni 5.477458189917073 3.7899668392494656 3.957468436331531 -0.037640950281225494 -1.1107553893332418 -2.2397625257878198
Ni 8.451021766657925 0.9546851375701592 5.0408023503278985 0.12389323381225113 -1.318202019688117 1.1016233451249868
Ni 5.384516148348159 7.173084854903825 6.45527218307766 -1.323081202157289 -0.8665270713736433 1.8024842125146505
Ni 1.33977822843438 8.846512546424938 11.431769536974599 2.978222948697813 1.6780281642203938 -4.32488399505757
Ni 4.529301619002574 5.8272859398223575 9.902029410642646 -1.2233324268017256 0.6306059877281591 -0.5972592939469133
Ni 2.841099236322964 6.8654573166199935 5.932613789673078 0.0934994520117422 -0.05909577772089177 1.1173867786068303
Ni 1.2475656872414176 1.2457465533925278 1.3123111541525387 -1.3522668225823098 -0.9028693574481031 -1.5162996047279242
Ni 1.8607338386829444 7.898983899884676 1.8355614586216573 0.15008583304721893 0.4729515983050629 -1.8775231438283602
Ni 0.16382085214720488 2.1590348531729764 10.17992842347919 0.05056588587300969 0.22681423624820937 -0.8928281711620172
Ni 7.400181092191882 6.175839372615224 6.058966948460535 1.5925986337009799 -1.1200064756178647 -0.46108107211972205
Ni 2.0187860973509544 3.321803047346602 8.581733459337139 0.03372567438721934 -0.420020040413354 -0.7431925382783394
Ni 2.5569542227991664 5.72280117078587 2.373167222387649 1.1054697154542705 -1.5274530502415822 -0.05142206322571789
P 0.3291782721748933 5.462369536571458 10.831480299132293 -0.7745579399634983 -0.9276319091047638 -1.1431762288661085
P 2.2273308630531234 1.93396090173724 10.394589911320978 2.553096954516461 0.1983914621311422 0.08277075274032841
P 7.371647469892036 2.4544548028871014 9.425227964921246 0.9391903033663245 0.19177729924873424 0.4330879293409057
P 2.519971323993057 0.3510734410535868 13.427769366886363 0.4546954803083524 -2.2441503704428705 0.007287791910664868
P 0.12675484570332832 3.3248133906701454 1.0695260416905552 -0.2880026348320717 -0.9450467621471014 1.9610659988480224
P 6.941279184808999 2.4790177269381006 5.171900031813627 -0.18460469275969496 0.6388761981567512 -0.173171768332405
P 4.74552922410716 9.140593539752825 2.9374117543124094 1.4567626257045558 2.136296449481669 0.3236970029098877
P 3.971778648136732 3.2243731933382955 2.3531779886684014 0.4502564707003923 2.214956522487734 0.48614907083194336
Ni 0.32287963665038705 2.8382089373650836 6.698275222234231 1.7773591353122489 -1.1104923654798422 0.3422477693288815
Ni 1.058218785863319 5.173625900424579 6.647214813008666 1.031672369857146 -1.3219067222332137 0.902903038899516
Ni 1.8392735997752292 2.6181768492871837 2.8436838838575036 0.23827261459679608 1.5250241290851154 0.7896294895846402
Ni 1.9715809590995599 6.105992020163435 9.469733951781626 -0.6808921375772209 -1.480927138765901 -1.9147442329633477
Ni 5.903828074205341 2.20118889388456 0.2832132845626152 0.9187184086652177 -1.589215833271676 -0.14863110287856338
Ni 3.6448978404369843 7.352191048472692 8.178563533840498 0.67954667929292 0.8598494022431513 -0.6451427478917534
Ni 5.83320505046773 7.127255609766566 2.771486432093316 2.8573026814709563 0.4904988631602069 0.811635561542086
Ni 0.5271517463531588 8.33989762078209 13.25747904684813 0.39231074742354366 -0.5330562769064433 4.648817539458297
Ni 6.829277791645627 3.8607930149905054 1.729575211596187 0.8002769419961572 -1.022526955912452 0.889252795105933
Ni 8.431602281966477 0.0035800923513430315 9.248544820702374 0.597858618093809 -0.10746799837669233 0.5544815366597547
Ni 7.446287362788362 5.405468507247301 3.468165755053649 -1.3717868948931085 0.557103290553318 -0.32827973718456366
Ni 3.578162407310453 7.696847656472504 3.5152794749035 0.22264544958250043 -1.7535273229999737 1.524823068817903
Ni 5.941078764288699 2.467502702016448 11.1411809112693 1.510666831922179 0.2468135621882717 0.8314045166388973
Ni 7.450941390503289 4.339825439076838 10.676691400373915 2.3788239827000774 -0.8477140524321981 -0.10724611217387336
Ni 3.9166228792056716 1.8478244522832088 4.147140380915117 -0.2980440782284738 -0.8503154946107871 0.15265822176008548
Ni 8.572562069800503 6.414053565000048 12.505319835169448 -0.6627949137558778 -0.4367098423642092 0.2402791035038636
Ni 8.351486519159534 7.440793024513796 1.315337195585438 -1.2328928167966509 -0.12553873983547414 1.3673874802738322
Ni 8.354607672666766 1.8417668289082254 12.133747433551648 -1.9206112332670862 -0.48226233418302744 0.7377307438328198
Ni 5.691995939720406 1.4680779527819687 8.665351747366845 -1.0721173652460698 -0.2149730206389072 -0.30256562024791117
Ni 6.2249929232631445 6.117294658899684 11.436622099601966 -0.26120505502325336 0.33419841666184374 0.2649820055671824
Ni 0.4308844758553867 3.956089772962804 12.683314233228637 -1.6971283753849546 1.3595854677309103 -2.5060205698539484
Ni 6.855742957183281 4.2175648697402845 12.928600885587395 0.55803891499371 0.4545039331228366 -0.03888305021844271
Ni 6.111495592619975 9.138044905527984 1.336332031721661 -0.15773512206236062 -0.09728437297547117 -1.682503169272612
Ni 7.819967004732645 7.125731969740847 10.206958720953658 1.366179318898344 -0.33480519700790723 1.7790529780749038
P 3.2554739182269294 7.692756913857996 10.197092920932574 -0.3126672274582873 1.3731572928780738 1.0768196558177456
P 3.331997584245964 5.182176752932558 7.677312744506381 -1.2256281648144374 0.9612832786106218 -0.14828631794463493
P 5.31760526576412 0.3051167642050853 12.460773217908386 0.6333215868871094 0.9869763125013518 0.3199799590696167
P 4.513391123461268 3.158496539135352 7.8183168564138805 1.7289568327494609 -0.28526286730340544 -0.24514131669217135
P 0.9074273644815126 1.056704380019573 8.055467271035292 -1.3684316052676304 0.46206914706460417 0.17195177988237484
P 0.5371569825220527 7.07845295803366 6.163547752989553 -1.4168840443420632 1.2221576897673339 -1.1556329665722227
P 3.8051847711427165 8.857667438249603 5.888825298752086 0.5787383523245904 -0.4118719573849229 0.05356404926938517
P 6.580333479806945 5.844082916833173 1.0642200807282605 -0.018548709536464827 1.0189999165958 -0.6135384907229111
Ni 4.182179484415687 7.596481332596447 12.171454292224523 -0.673030475440957 0.17205179579534885 0.0493896061767214
Ni 7.8275297997694 8.344893313230056 6.701112886354859 0.27732021541756113 -0.5223951976481713 0.8465915087919808
Ni 6.165654069897836 1.727817023348326 2.902475150231751 -0.48872711597176477 -0.3505652880556414 0.45352485703901885
Ni 7.628265386951161 1.2231597442839772 7.4312827404987125 0.5986096373272206 -0.1937321089822599 -1.2224353689087528
Ni 0.723487076649226 5.578027665796559 1.0315809411227483 -0.5490984179709704 0.23373693150997166 -0.16624238820242337
Ni 3.5595555306327222 4.978535337858615 4.688652203656136 2.3623424401052864 0.887491332330136 0.15200773266028014
Ni 1.9564553690260498 6.576298142284281 11.700762181297161 -0.03472480507569504 0.7818799275462083 2.2474604086527097
Ni 4.462667761877757 0.9886853955986477 10.5955330984221 -3.56470983461957 -1.3896964281836777 0.007627177527954606
Ni 7.597700244617022 3.4411917860892225 7.501683220450748 -2.111585319888234 0.6054881096146087 -1.9857406187765672
Ni 9.145053649646295 4.305880586140193 8.666797820263982 0.8349698653926524 0.1436984414636364 2.33472390705707
Ni 4.696828148375968 4.250669412117289 0.5119421252236847 0.12581667608720912 1.0029906856517372 -0.2396514972221937
Ni 8.140365416686603 1.4218516378198247 1.0178229333995965 -0.3215534742043237 -0.19113323790683212 -0.6291921380997679
Ni 5.4578355532221945 1.1098101605523918 6.049601641102443 -0.37844324541283214 0.4747418574362663 0.7526040614002264
Ni 5.790783218478899 8.365568646669976 10.254153701604881 -0.5272808078752467 0.025532339943149577 0.2451958240791906
Ni 5.965863308707076 4.367537219180991 6.007987800036342 -0.8074374643003385 -0.4064117056013 2.30266585018026
Ni 6.427406192134539 4.906730338828325 8.716088036805118 -0.8469594336543608 1.5157164785309445 -0.7276425063588823
Ni 3.5924846235522203 1.2875589293710712 1.7669182434992854 0.17950645230118115 -1.627987554723235 -0.9909718068139901
Ni 3.9990010165962597 3.4693006360182608 9.831007470243756 0.7071708687680918 -1.3446576427764843 0.4914673977210633
Ni 1.6159726112785122 9.139679355737393 5.549458953605212 0.2087974879558146 0.016896261534706383 0.989126011854503
Ni 4.421511012819372 7.128825420702157 1.211463729395633 -1.6558238602092128 -0.16692758719490608 -2.6127861428469776
Ni 8.796989628498055 3.9262541310046157 4.7160878817192655 -3.634637412848643 -0.5167611392908456 1.6170020022460088
Ni 8.51096084185155 2.222778411339912 3.1843744106994576 0.4910164262265737 0.6194962509682428 -1.4607871734829163
Ni 2.437454673872857 4.32786717342043 11.345097504966073 -0.1076834568216081 -1.0123453873937598 0.27935344379750604
Ni 1.059917875346546 0.19005423971731167 3.3689915640704426 -0.923547711733061 0.7419627796362963 0.1106998750504287
P 6.492193212864543 7.26257331241444 8.582315212801504 -0.078587053676284 -0.6494004947268429 -2.371563444482922
P 1.2463467752208417 2.1145168618760333 4.897218207976845 0.2749982521526038 -0.8418938462059954 -0.781589649999299
P 5.50056211321617 5.937791395505934 4.414591840266209 -0.14358299893169466 0.3358182116534539 2.004354634333329
P 7.7117793287245595 0.004501663712354212 2.7403469236403915 1.7757115724064965 -0.1089137296842834 1.17824196222099
P 8.459997391536712 8.756784000182998 11.775001310695814 -2.4457567399668845 0.570171950811818 -1.7615409373330695
P 5.065345882596752 4.39678187349284 11.46973402932455 -0.39527162982408054 -0.5729261165181875 1.294818864877486
P 0.23178997198547033 5.555847160694867 3.31361971528119 1.448205223052848 0.5748457021384036 -1.1821901482354609
P 3.1667149610922656 5.86941227798802 13.434243451868376 -0.7338396363085297 -0.3802196205869645 0.7555716286689825
