# total energy = -340894.29923335457 ev
CRYSTAL
PRIMVEC
9.04982631160390 0.00000000000000 0.00000000000000

0.00000000000000 9.04982631160390 0.00000000000000

0.00000000000000 0.00000000000000 13.24533557749946

PRIMCOORD
 96 1
Ni 5.9896093442505585 2.099831163872153 11.258111345413823 0.8330063139083782 0.11563407912725247 0.9376288724164755
Ni 4.2387123276241 0.344819191290807 6.179597774720181 1.6729484357046414 0.3233288209371915 -0.2209104691692647
Ni 2.600929088169723 1.5073933441431242 4.750359634276217 0.06607118059746041 0.6118760154188236 0.5297902045606617
Ni 3.5215679034122096 4.492487552798874 4.920761525988056 -0.6447503975493412 -0.1410951995128344 -0.0815718473362208
Ni 5.131369080380302 4.5376642849888915 2.2734032096877907 -1.1181180003459001 1.130144849603447 1.423027952456272
Ni 7.191136663842758 6.216696632079908 2.6801802258168426 0.6955152868070344 -0.4125964942557733 -0.22024172523701427
Ni 4.931947111121643 4.4083603688168225 11.52770657169865 1.2629595542750442 1.2997206730544777 -0.19633355116084897
Ni 5.560294641052993 7.980797345073601 12.456072128516423 -0.608093665558256 -0.3880550574709833 -0.31409393260248486
Ni 1.8715311993373829 6.505558033276457 0.47550230096963925 0.036545917444833834 -0.033871455936464255 -0.5809952666795671
Ni 2.74902949327582 1.4505785355115277 0.5500963980748955 0.11569835670628462 0.6972371545941476 -0.5463280543146848
Ni 0.5081558837196436 0.03670066500869341 4.914337054397172 -0.39237708188510484 -0.07078915489842003 -0.4575985128877603
Ni 8.79456676319431 2.1327634812678813 1.4557550360749671 -0.0265353272863672 1.0305102312282446 -0.375669796432753
Ni 6.942646537145341 0.7439925434803449 4.987491324160395 -0.6757687003077265 0.6350650519407772 -1.451089229468862
Ni 0.8583416219232473 7.419255631854331 2.6092386385497055 0.3257873097800131 -0.1211688929025526 0.0846106341625446
Ni 7.79623519036943 3.610011854472514 3.7039255204638386 0.07529552740920581 1.1010882985571229 0.03608466153769914
Ni 7.727139767638905 3.6284915994909475 12.69995860864632 -0.5852036483339599 -0.5196929682256598 -0.27067674195911445
Ni 7.97250770431117 8.936820980601137 6.938926153611023 -0.7060539815548292 -0.19040150194713015 0.1807791483660177
Ni 6.760419237590414 0.8556511086059211 0.11980702859991334 0.6043498822451077 0.024265557415584015 0.45440828808523676
Ni 1.8043995888835467 6.428598311613013 9.247019156934787 0.00540085930059715 0.03589388568313173 0.23815845761643498
Ni 0.032085253667165164 4.852525836742717 1.3470774836864485 -0.1737790628991007 -0.7490986193501292 1.0152900718443805
Ni 6.198280235844594 2.0803559379761363 6.883401850189823 0.78216737687964 -0.30048148402537284 0.5162978265011818
Ni 3.36458056901713 4.045353741892546 0.3434173732186448 0.4756908516130969 1.4924533942379457 -0.7360965506635065
Ni 5.954912310753658 5.579697468339732 4.620979699564405 0.03759518464495461 0.36587337916762147 0.35875322318307246
Ni 5.449072277548321 3.0346601065332997 9.074724041590306 0.2179760691312891 0.23806075569630614 0.20148861299922718
P 0.1491194155316976 5.2839310497832095 12.41589904521019 0.9451022979753853 1.8031503853437398 0.4196122634519741
P 3.9280770446869293 6.044840433304179 12.585982383041204 -0.32586649975738075 0.2816576664506504 -0.07103572369158734
P 2.78184416293147 8.573189915671831 1.5120739142330033 -1.9955964285247245 -2.0677310417074453 -0.020935207490770394
P 6.3476385667869115 7.8007058044924005 5.621466035997946 -1.1384651965436845 -0.4817985071727315 1.5929498463928113
P 4.511953728868732 1.0512640060338958 12.578684603225891 1.0867045190316251 -0.7161144511146248 0.02383309786385573
P 4.0063037420127525 6.134831904637821 8.114092234582168 -0.3676366417156314 0.6707884734843157 0.18763139540116075
P 4.624759811951377 1.2450026844641637 4.014118266901791 1.1336006693625316 -1.8883081502590058 -0.7007315409006513
P 0.11885498688789614 5.586548186742745 3.597274224152512 -0.4778685759907061 -0.7772637689304356 -0.5225939439225387
Ni 1.5790227181984107 0.8607877899342572 2.754765273095939 -0.7352033494252757 1.0787240719293099 -0.35238100110814147
Ni 1.5154657890777188 6.379783549306732 4.948139060086862 1.5553544046375407 1.1184131629888159 -0.11169000687783992
Ni 5.9279347789711165 5.614684096273748 9.13072527085013 0.36032699542809554 0.1961720858823202 0.9549380531188845
Ni 8.42205781880218 2.43195978393899 10.3565540886294 1.1678878726801758 -1.4786931072290599 -0.16432923034011054
Ni 2.2376781159391306 5.27557806023766 6.996040511488511 0.23495460596715667 -0.2810418872435224 0.5191913459988929
Ni 0.5851418498789507 9.28647911393962 9.207812595062428 -1.5559624705351847 -0.13458799452193596 0.3484276728873483
Ni 1.6757472601949868 1.2140884783020842 11.514527309862045 -0.9972823224130504 -0.7006253543400901 -0.6618965703113247
Ni 4.257635514124366 6.702509399993475 1.4301784173819727 0.08510814262425342 1.1610299692180779 0.18838395729646912
Ni 5.7435445709639845 7.972444355528051 7.9643936301762395 -0.8827301634960669 -0.3525015858464058 -0.38025921557564835
Ni 5.3562934597574445 3.069900129599792 4.7304391569331345 0.22846282759522588 0.13424552358085268 -0.2808724515451937
Ni 0.7794814367662333 7.63609851647072 7.324179968184081 0.21772950033812177 -0.6763880790592802 -1.5106678603634436
Ni 5.175414584300337 4.647683021614301 6.998437810438258 -0.49735522396040793 -0.3553038311818913 -0.4826130326542269
Ni 8.042978700617994 7.314150950833725 8.994602310666608 -0.10704839434077049 0.38982809021100606 1.072689692809772
Ni 4.623492836288998 0.3712727381386917 10.380263728185616 -0.2755461542362739 -1.0719875245364248 0.4328421318786868
Ni 8.151830009668782 7.204856200301104 4.737697117513342 0.3737352984142015 -0.20714915371911422 -0.1509335257594949
Ni 7.150539143689629 6.115999216399153 6.9202636021041615 0.18711100412131648 0.35345726489145585 -0.2728644936390527
Ni 2.4058962845985947 5.1487718960857105 2.385326029737235 0.20260241488869624 0.9247700141759363 1.2590797596046637
Ni 2.200193735984993 5.225342475224281 11.290694339519781 0.10277882043113913 -0.2739667255642959 1.3018140652483967
Ni 1.2577267400449257 3.643469061785514 3.9998530259260057 0.03149704216701672 -0.38343041421477836 -0.3181999843510584
Ni 3.7170169989866904 2.7092555073032387 2.6683656777651468 0.343202419932667 -0.506247127133399 0.682118039564522
Ni 1.1830747240522466 3.1703622498003896 8.10672839103589 -0.205129295075608 0.5898483461948227 0.6233642185640813
Ni 3.785623731104584 2.7099523439175477 7.224376675327921 -0.4952356065142439 -0.04258158211595248 -0.21446805597803065
Ni 4.061598179849494 6.818491972058231 5.79985439929586 0.2527618093519066 0.6043596524371204 0.5144309484957721
Ni 0.7340304948435719 7.377237288994104 11.526832358491607 -0.3222157903786709 -0.2587283113479867 -0.24438052726674686
P 0.07209996501559905 5.731092010168018 8.030673651988433 0.46880158069243133 -1.4443413692220672 -0.12462574110290148
P 8.504085443115144 1.7003989866544436 7.9538768271958675 -0.47229545277830276 0.39982222530924044 0.6942127659455269
P 1.7767342703128568 3.236272133722645 10.347017381822141 -0.6403689806521939 -0.12440591178261157 -0.5653958695794135
P 4.027607032793062 6.1888412671598605 3.631314240270207 0.13667701584048073 -0.27940152342662206 -0.03055010487271513
P 6.939895389992745 3.9485658511128507 10.533988600250066 -1.44631032002298 1.165199270104419 -0.6550129558176139
P 6.271629076870254 7.694035503546139 10.25187655940354 -0.4002901660845945 1.0090016677325073 -0.5736347125494379
P 2.3869730980983292 8.430926648438842 5.73232912140407 -1.2736630567354774 -0.7303442215607615 1.4766753054680828
P 6.930755065571286 3.873940984598651 1.5757448711633095 1.8199281190227108 -0.17236752726355475 -0.4089516984143344
Ni 5.300275035827916 2.794242424770477 0.5525624757034572 -0.04417515185531747 -0.20911733318907855 -1.0953025451132814
Ni 1.4190670408228974 0.9959605183709955 6.998384416463915 0.6561162161841216 0.4494406596673163 -0.038372172020295206
Ni 6.809387846941413 0.7694343197635575 9.22542898666521 0.5562993065947839 0.052343032378090494 -0.37348307319407936
Ni 2.7724775928560157 1.3937184777491316 9.242568452429367 0.1411353087221505 0.814244717030159 -0.6109244501388317
Ni 6.33235341040291 2.0079935280019012 2.568998586529891 0.44583545881456116 -1.054552616889429 0.7369619839875953
Ni 4.1736440775347114 6.9821128290284875 10.522014775257956 -0.7068556515205181 -0.9361607725113813 -0.6459863268389713
Ni 8.307152176050446 7.00569667600108 0.45620535664897127 1.2654357837296786 1.067100628757769 -0.6909634057702939
Ni 7.739266534693116 3.8940225488473788 8.016156825845403 0.03272397259558235 -0.2827357300061776 0.7241103248359078
Ni 2.893591416353413 8.254464088147746 12.35588421804847 1.044656955042272 0.19495466853545132 0.14395683733134562
Ni -0.08619235431173194 4.7905888265046395 10.286367256863995 0.5554058482462371 0.32793752335379656 -1.0696725032500027
Ni 8.666457424075341 2.2841580230961678 5.740025093570415 0.2615984338069301 0.514336846120069 0.27420121017260524
Ni 3.495106211720781 2.665707743821996 11.535203447689474 0.060309852633650976 0.12668262363193022 -0.2951788408655368
Ni 1.132739590951109 3.2418920757679177 12.883830261614492 -0.06747294604099348 0.11348437977410132 -0.9248543463596266
Ni 2.970388241145979 8.169359522940429 7.954989050830914 1.6768156319695315 0.018677521804845252 0.4493429577471874
Ni 5.823762230044977 8.212065652588805 3.5269679346817977 -0.6559601502222316 -0.4033286958006022 -0.4908660166916385
Ni 3.2138014153677146 8.362672859541183 3.7964708527397915 0.8845258219439089 -0.9414603303474238 -1.222889425727036
Ni 3.445739410018748 4.370613543904049 9.303391429067165 0.01941028620581173 -0.14361693749342364 -0.21688463583932327
Ni 7.268684624206593 6.24293207811734 11.413333058725115 0.29055754004344153 -1.0576600521701591 0.2907940815342798
Ni 0.7638152827009008 8.981861965398757 0.5672937827264761 0.12821962910174692 -0.6120554784194814 -0.8504643614838255
Ni 4.710715060817721 0.34750336972982127 1.6215207018451099 0.8291128923912432 0.06143265338418452 -0.07263597829917169
Ni 6.401240687131758 5.72639515039105 0.46622803912101546 -1.465642701803005 -0.9415472336342751 -1.2100675913720191
Ni 7.902914541141852 8.974332510033754 11.270839925907667 -0.10005267974922769 -0.5485181199874682 -0.33872612932886825
Ni 0.016583806437942168 4.786453055949584 5.981288934079183 -0.3109692709305741 -0.4844009777925851 -0.3561001018309416
Ni 8.024173161857806 8.935038164847645 2.1713347453438177 -0.2856595885211919 -0.20198766412283278 0.8468324211581932
P 8.584565547154774 1.5453845143622136 3.5385444723054893 -0.2251695015559348 -0.2906812101054994 0.9078359574247591
P 1.958934420389304 3.2081995729747614 1.6896414582982187 -2.499539075894663 -0.758971398379151 0.34543747991077284
P 4.821168189098804 1.0184674360305657 8.268798107802347 -0.7323360551798097 -0.16819822637721354 -0.263569698600688
P 8.818594051648736 1.3898813514573511 12.491476858419023 -0.7561928071927492 0.9816991232628125 0.6987407357228675
P 6.413611799492286 7.822543035016141 1.2356732186759647 -0.4076424926846076 0.1864484308366531 0.618367022459806
P 2.0354868998755538 3.130027174605897 6.053753607089026 -1.1803019300738125 0.9892985328766252 -0.032491287759485975
P 6.944999491946905 3.9055791768535193 5.897234148706411 0.9325496581213554 0.9839424107710346 -0.2576196516648402
P 2.2645470498077525 8.45555122541982 10.156907683681975 1.0586761521394994 -0.4960922980875843 1.022588662388323
