# total energy = -340863.9444666167 ev
CRYSTAL
PRIMVEC
9.31124403807765 0.00000000000000 0.00000000000000
0.00000000000000 9.31124403807765 0.00000000000000
0.00000000000000 0.00000000000000 13.62794684469773
PRIMCOORD
 96 1
Ni 7.1211741821713845 6.083994720340444 8.31897539524052 1.5829351424692868 0.3318006058536285 0.29404164193730004
Ni 1.1919323360174048 7.974959383474252 1.7987935905535188 -0.37264875021824206 0.6600949983262115 1.143076727173767
Ni 1.3231650080260706 4.0997034592541155 4.643205423315547 0.7360101615972873 -1.088923123949499 -3.460292450143744
Ni 8.748826178089848 8.019597486894824 8.896841436165522 -1.1302212113673373 1.4944863655075744 -0.718622305138143
Ni 4.523458170699722 2.8428438192835084 9.45343407807405 1.1784962443236413 -2.020144035957102 -0.9728239322603698
Ni 8.38688881512342 4.440448431026296 3.616421034212751 -0.18711434655542614 -1.5733135602191226 0.8338645481436157
Ni 3.5131602701068267 8.223634775225028 2.5926078630493596 -0.714191265949983 -0.48347692331641895 -0.7439777531837961
Ni 4.7937915158414555 6.131686911771435 3.6503139621332528 -1.0883898771538483 -0.42870239867870036 -2.329406351498898
Ni 8.398816518603136 3.6248113961218618 1.1851816841651073 0.823142276630105 0.9087453566129059 1.563136876796437
Ni 5.921522824932526 6.60195128666839 -0.10050463590140041 -0.4781596248685636 -1.0661184673501576 2.1733398753882116
Ni 6.822944350202778 8.811081155033934 7.304006974690227 1.6922039415001437 -0.61829503157129 0.6768094828674149
Ni 7.802468589593129 5.296505575849109 5.969094901316765 -0.24548455896420301 -0.49440282620030335 -0.9846090978207559
Ni 1.7633168200398095 3.1417068158396417 8.500458988513294 0.9285875881498137 0.3931309293319939 0.12205335239003494
Ni 8.604408784670351 7.156268260559399 6.705222293142642 -0.6560197998155733 1.186385417263731 0.19408486433598834
Ni 7.162888554996617 6.322865372228504 11.733402959166623 0.9281348168831112 -0.4812223229542873 -2.1419554475396594
Ni 5.173159527452713 5.450141100763468 9.329215566121022 -0.49566960872786897 0.35000093091173917 0.4475640114698938
Ni 6.927779645657976 8.619669913478509 12.680559452392897 -0.1274470126017805 0.4128001256261471 -0.5329500903458821
Ni 2.4312123474402347 1.4141824174829107 9.845155317012818 -0.5245137866530708 -0.9386341737525383 -1.7955576605981463
Ni 9.167487639103445 7.933440546771638 11.21164368081595 0.46647601788304827 0.06706902573435546 1.5622321055939805
Ni 1.8125267442320756 1.6245792854201757 5.4132927840182505 -0.6257617722619804 -0.7522343367656334 0.2615904633871301
Ni 2.8240444177803514 9.16494566950941 11.59249031796396 0.07959441189487583 -1.3344711891617855 0.22361346992272457
Ni 6.149527255149369 4.359002980333817 4.600712630497416 -0.4461792153072251 0.5452898428581576 -0.7923216917048225
Ni 5.747281517191774 7.1720601302718086 5.269776719011583 0.38378136979629385 0.9168091074576469 1.2091648770520917
Ni 9.285544900945213 4.413268909982356 8.90950193454286 -1.7286336450820876 -0.34486772345023187 -0.15965265080004762
P 5.656506200077223 2.792702770697822 3.208686317955942 -0.183505031937613 -0.9337303086930178 -0.4901214252161301
P 2.7480646672772497 3.344794357288557 6.649960991517537 0.4351414694358248 -0.4877390410268826 -0.5581016499108452
P 9.008861287440352 2.779173533261424 10.553564066770964 -0.38430613195151236 0.9715856889778945 -2.1317304273775415
P 3.4409795071288802 2.0204281987949737 11.502818383255612 0.057945209056216335 0.9611434105986479 1.6443721667288453
P 2.480925078804948 7.374672798280079 10.191046613307433 -0.1254981164055258 1.0224318250954842 0.1575644008124512
P 3.347410816834068 4.393240424279884 9.906631873964004 -1.4672732954278924 1.1328681620718812 1.7691316051961339
P 8.847897813549775 9.222982652951298 2.577507818761262 -0.7091722154688367 0.29451446780866053 -0.6236894631139839
P 9.350444271166612 6.456677258806945 4.713770685470909 0.510557581583295 -0.0038648822720449573 -1.2317566463096787
Ni 4.475346973291691 8.52544012486437 13.534241298888094 0.3663073813812466 0.3271319967333656 0.6274471303842033
Ni 8.549444511726746 7.210245541645977 0.20475052961556384 0.09748003392604503 -0.1880116615587149 -0.037218003811193966
Ni 7.686813628686386 3.2952492283146593 7.012137653453075 1.7360597623428293 -2.049615563053657 -0.356490909511457
Ni 2.234251604500026 6.164127285638201 3.6520309555147197 -0.04377097443836333 0.6658321579203049 0.29183769230744583
Ni 4.882890809047849 3.243515957016224 13.149197152974544 -3.069425120034946 -2.1181431756114097 -0.394748667441075
Ni 9.288235850442199 0.8229156342878011 10.051128412956942 0.14603660267850976 -1.2976583912088104 -0.7387928665487471
Ni 5.069385713806013 7.399878335609968 7.61337491665293 -0.5945385525816406 -0.08125097366169233 0.6893158428645418
Ni 4.978880422765554 5.072458424304301 11.692274263584853 0.3756530842622047 -0.202567962106335 -0.17509675326925972
Ni 6.925880151895399 2.055801614501014 4.98889187224361 0.6743106277049613 -0.6976086790009534 -1.288504749734
Ni 1.0981774208439086 6.617566242746048 8.518802139063675 0.6890854720212907 0.05633801247009652 -0.21719831042500012
Ni 8.753053482835977 0.520790908981516 5.844467625755024 0.13565294545134057 0.006982601965420232 -0.3715295490121343
Ni 5.234055062782405 2.9581635754086197 6.253401630230559 -1.462607514521107 0.5229153318176994 1.5637673112915844
Ni 3.0805784994115952 5.415540518303968 8.000517816949248 0.13521020148696714 -0.671216819270986 -0.0802940090650617
Ni 4.568347677706517 1.4374046598548147 1.6645990118493827 0.13708504991217682 0.2485791387291267 -0.38384487604437767
Ni 2.593246614383246 4.133689499613959 12.066688693423115 1.7969493987393503 -1.963452239692012 -0.24029015924745714
Ni 9.096405602909735 2.092404114406368 3.451072895553557 0.14756023841188778 -0.9475397037722841 1.095779741860016
Ni 9.12259813209665 3.7553084798597256 12.289859656913713 0.8322722639558312 1.351203671425118 2.0330787417408986
Ni 3.590452906004651 3.9589081397250223 3.0438288818520807 -0.9518673846133607 0.9689117416901573 -2.0692400221528042
Ni 5.465895725500141 5.337307446768788 6.737520204977214 -0.4030083363467059 -1.2961532674181937 0.14216580686919386
Ni 6.6977267417756075 8.220077880042162 1.7746718820175709 0.5449062342664938 0.21634778949924674 -0.24954535929713798
Ni 7.265991959080054 6.406377919074377 3.501237222249079 -0.07692072171745462 0.7551671941417124 -0.3308225582110754
Ni 7.665388456393784 1.6047277133524536 11.996395319590631 0.6856977864959803 0.462286662392049 0.5956045319523097
Ni 7.240954024140981 1.6282572267741862 1.8576797594422092 -2.175661581542853 -0.6547437613166271 0.25298292422377716
Ni 2.1500407143590885 1.054200415742665 2.696452442149959 -0.16778633565077555 0.13786897926605288 -0.1995849682186111
P 8.333274672550274 0.875926408254009 7.9744612319237715 -0.5624797243738829 0.6922726115000206 0.9167569140634728
P 4.116659234458299 6.605759585437479 1.2772652310524137 0.8301601027088348 0.4145016816982861 0.44173866303736825
P 7.629596034710706 5.492358280761147 1.2979287435911986 -1.6312158318525456 2.056559341361342 0.1938840611790919
P 1.2115697494746402 0.32511604882862055 8.022362926343282 0.3733210936949184 0.06731096654183245 0.09415996841387654
P 5.0266377929040855 9.580245771462758 8.446710764027497 -0.11843221069767991 0.21535585789962264 -0.07435578920375582
P 1.0746199736903734 3.0195991628864953 2.039980879932408 2.434000627872221 3.365689480655178 3.011209173815846
P 5.810644532164029 1.0259594128902254 13.439745208697435 -0.032351419747512024 0.7186657567815687 1.097637106783729
P 6.396535934235923 3.9118584241254912 8.42483772090166 -1.3274685325917073 0.20934873247359426 1.1825156498956795
Ni 6.663098225584305 3.7698805766167545 10.943895136990353 0.9224830179139726 0.39353767785210936 -1.0652206381262366
Ni 3.2514491368481657 1.3236305702227806 7.417092032271131 -0.5270656065406472 0.5947864069263885 0.8582218939420575
Ni 6.937072267104312 1.9432286753364918 9.592534751207118 1.339064979180055 -0.48735928908996073 -2.3334244715193555
Ni 0.2384022963181691 5.9478550227784535 2.328239300771877 0.05299814946358614 0.0949814358739074 -0.2691667330724912
Ni 1.5727529016823985 7.590097737941814 13.280406546873376 -0.8258180236900552 -1.4701213063996488 -2.048350837408621
Ni 6.920470319169626 3.7646755912575345 13.21551090114955 0.5653837853945554 1.3343220651784309 0.016183551738397934
Ni 6.775373204942932 8.795996939860524 10.099739624164238 -0.3423562698822878 0.6457821812479652 -0.39074057472294643
Ni 3.7445074368960496 2.141232277597332 4.272715682795552 1.8731147303480193 -0.5698449064897024 0.6490513389175402
Ni 3.5358703940623495 4.645994140873841 5.208396998997314 1.1949263648552064 0.6409595630483412 0.9254750106627609
Ni 1.0962593045934628 5.397020454118836 6.357505061912528 0.21158687777549365 0.8189192396876929 1.7908684826525931
Ni 0.922097142426151 8.582536672668907 4.195349488070648 0.2324038145208449 0.02754062862242999 -1.326456032166793
Ni 3.596318989683199 6.63637495549314 12.340010016743335 -1.1588774416514493 1.130240237530731 -0.29447950080566704
Ni 2.9498020783557055 8.27474419317987 7.909332805101591 0.5491359560771253 -0.4645590033659935 1.8468897352132192
Ni 0.06311906038117947 1.7282227416517961 0.9652771050466269 -0.8698875032054437 -5.618862880532264 -2.3009316410979728
Ni 5.327456150686401 9.27904565267914 3.498552790622848 0.920336403884615 0.6961236098149945 1.481422333234765
Ni 5.127916193176417 0.6110047580868346 6.2226298312768025 -0.8525865500331511 -0.5131556813277743 -1.7093364874153723
Ni 2.4092378117555144 0.12432559125827351 0.35115121799304727 0.22893745323879927 2.391892128737945 1.0129485681953974
Ni 5.468782211119744 1.4271343577953879 11.29263474280444 -1.0433066116619643 -0.7589004359318995 0.6853262620891746
Ni 1.2823352033745878 8.064989801074066 6.349369828087215 1.1831872220414075 0.17734621142506876 0.10321822196140289
Ni 1.1917740448705232 1.6627088293307397 12.017028105024433 -0.6016147427021317 -0.3587578511687628 -0.16304779252452564
Ni 2.046043430857968 2.606729295599973 0.2877686494085298 2.7091446615740695 0.6542902187189764 -0.3484677820966644
Ni 5.395307185234942 4.246243816290612 1.545054744351323 1.0201299164351851 0.9649668981097962 0.28022530487949804
Ni 1.4957023581268636 5.457459738495753 10.592417094335215 -0.8522093691993905 0.727191791974709 -0.11312519666246969
Ni 3.1008118324806193 4.895935861799669 0.6433641241313725 -0.35885375331667874 -0.15227821271284742 0.2635545290920364
P 3.2396424795395955 0.051799381130368125 4.533091583674048 -0.5270946600063696 -0.3054501408845578 -0.3068570485344135
P 3.12278636816534 6.546391094112996 6.233122672066257 0.5039645017468095 1.8165682014115423 -0.7849660226706997
P 9.366832060490811 2.836568040871855 5.593372241705748 -2.950312852551106 -0.8093516506039159 0.5454721340722929
P 1.2017463871240555 5.436183546106096 12.930291670330206 -0.6366691632031036 0.9113753380365851 0.68815241868406
P 5.291337835465625 7.54740568450349 10.928209415458792 -0.11044919249220332 -1.7875317049698765 1.3884070199482925
P 8.654968839233076 6.146845616896319 10.026012263568822 -0.7128056984563659 0.040162431151498576 0.1851878189566746
P 8.990741606744391 9.48610909528796 12.9884413198237 0.8850667820490434 -1.355138230592834 -0.2702106009559733
P 6.833512612068098 8.983367101548502 5.121491434861817 0.3450114481169477 0.700001347602846 -0.6262186572937409
