# total energy = -340871.5736040777 ev
CRYSTAL
PRIMVEC
9.27459041319817 0.00000000000000 0.00000000000000

0.00000000000000 9.27459041319817 0.00000000000000

0.00000000000000 0.00000000000000 13.57430055968183

PRIMCOORD
 96 1
Ni 6.001216512667446 7.059419462078347 6.8846277476118605 1.3662261129758795 -0.6098859815719884 0.3853083479637816
Ni 5.334577498514955 3.9442514641990667 2.930297585943756 0.7286382946132484 -1.5984028990875827 1.7497814828042961
Ni 8.331355348982559 5.960000232597137 1.8817921483333764 1.3191049911183605 -0.7655433951697138 0.31771276030199475
Ni 0.41600711845492216 6.967230032758169 10.421316607983373 2.023905816992379 -0.22398010923352396 1.4450036853964146
Ni 7.79527474494477 6.790474887488154 9.418053550168441 -2.3889381883159437 1.475982393166116 -0.42249858386083367
Ni 8.29987738891086 3.4201443564643323 5.080087373179842 -0.6820794730171027 1.6702572620257234 -1.659916799331664
Ni 7.35835806226426 1.7564404933112636 1.5187744750975591 -0.7431547430618686 -1.0200720666140561 1.1666293176827263
Ni 1.668823437095195 3.503847535500007 4.239484865490271 0.2553725075018763 0.5879858390647873 -0.8366063725548109
Ni 0.33428684686277405 8.402593478420012 6.1315931408088415 -0.0700821015290664 0.25768547190576907 -0.6071084188268512
Ni 4.840260375385494 4.906462402195094 0.970610007130067 -1.264918220663312 -1.4876423460025476 -1.6668459223513294
Ni 7.798650695877622 6.526316001582991 11.918969130733469 -0.6706786873793288 -0.4246817075550815 0.40756690225166586
Ni 3.479826346170101 6.618718746484092 10.116003581764081 -0.7587605679199255 0.06417242091285077 -1.652221487569935
Ni 1.0137591118553382 8.54085907321933 3.6351163792450847 1.8818382262639461 1.260651732077474 1.2447967673230884
Ni 3.4689936244954565 2.120857702249738 5.538667644291546 -0.5727211995962329 0.36476163416068147 -0.09772865960174136
Ni 4.615592695722315 1.455285266001857 3.102921828616266 0.967599707746953 0.21656556193700766 0.2764686660505432
Ni 5.851172187965048 5.110169507385073 5.381477247628263 -0.3914465996510355 -0.22113775468872238 -1.951407392712336
Ni 3.42170248766411 5.296700071015598 2.9397048030624138 -0.5505827158259808 0.8918005012284512 -0.2925221199689801
Ni 9.298704410101662 1.8977574283768122 3.1214376210402905 -1.4648438600507934 -0.05923693128444637 0.38252872833611545
Ni 6.8915864728451535 4.3969905982297 7.232740226495519 0.009586101026538328 0.44356286073030055 0.8577439258643743
Ni 7.300744306234387 -0.09674603562048022 8.027705256835413 0.05809047638482899 -0.11046281933895814 -0.27071942227159185
Ni 8.784725155165482 4.687869579292954 9.331082932908469 0.05865200531525383 -0.5042352389096929 0.03907022652858432
Ni 2.2073710821992973 8.780904023889837 9.74966004038398 0.26225406511305804 0.9277972310380344 0.7360009056259067
Ni 6.246844766803824 3.3869042242024086 9.393402616145293 -1.2389238534820792 0.17980547159883872 -0.3332954452316002
Ni 2.216534377588466 4.76275262278703 6.817325754371941 -0.8556268795213715 -0.6924322770063365 -0.04311714290444832
P 7.183912290022487 4.940898956628275 3.5941078500014125 0.3323361666421244 0.16697695237560276 0.07085883179409086
P 3.6700110984477243 4.327523915572946 4.803483841775503 1.021197695578067 0.19228277813024305 1.6859610459142256
P 9.184469279222725 3.1049288499950274 0.9966743887415858 -1.666669287564149 -0.8234227839850012 -0.49869271182490893
P -0.08571762008681587 8.2709684904007 1.9263834518774892 -0.7479182258887829 -0.4191409802425104 -1.0687656751650174
P 9.115160264604043 4.166785988053025 6.999154100631709 -0.13575913201190168 1.804760410143337 0.47271737080706977
P 3.5976785673342366 7.954714229798209 2.8087939585096664 0.19965310245238518 -0.5814297831138244 -0.31392835355889803
P 0.2894033937187026 5.106329826928477 3.722738072756391 -0.410412599230577 -2.27064173186518 -1.4005341422291298
P 6.16169475165407 0.11695073096997799 -0.04017938085521885 0.8015385823174003 1.6286807241355177 0.31814290586087796
Ni 0.8568988906129601 2.638546793375865 9.532023427759796 1.2969063435341341 0.48782671564468244 0.3606044174591983
Ni 5.323781875202211 2.4468317336698893 0.29348885082288156 -1.207723516619875 -0.9426651492888024 0.6984558574925971
Ni 1.4096821046369359 4.370622937509653 1.5540262660334812 1.4970474413665313 -0.8313788056072844 0.7577861198217981
Ni 2.9209580733355653 8.005492612648107 12.12152433178647 -0.1492669366903494 0.1710917458749247 -0.02125890937877629
Ni 4.014024208341492 5.7545587789883585 12.026205655640071 1.3654951483471256 -1.4433661497929917 1.9874252055678419
Ni 1.0104851814177103 7.535039010810477 8.247568698632609 0.6822082852854832 -0.5659964792778898 -0.6393960752159634
Ni 7.775835203309449 1.3636615867006459 5.957651906288901 0.3026635792783562 -1.7086996251623219 0.539226153162581
Ni 7.170955687129097 4.056353439268784 1.1600490823335106 0.4368216853517251 0.21503626977667484 0.5307034604035505
Ni 4.878007958618203 -0.1329911351962605 6.643615457154824 1.0709734814496137 0.9910219433256353 1.2211701290430839
Ni 5.581847355165385 1.7868333262974028 11.433320967320865 -2.49848132405411 0.49467150648065766 -1.1268250412015948
Ni 8.178306056966303 2.528475953620143 8.049248275590434 -1.3396169950287833 0.3482304692748777 0.04151148898022528
Ni 8.652821929431923 6.934045548039095 3.9838669499534136 -1.720114551867483 1.3161515649169913 1.5711036970519974
Ni 2.7024394471572237 2.4245541673492585 13.556938787695923 0.04975675970815302 -0.08696910709239215 -0.4499016584641348
Ni 6.688751179159812 9.188336783450746 10.496979644536385 0.7044467849687093 -0.25909597910005056 -0.6117803703812238
Ni 8.465308259211064 6.389256103545407 7.282924108095978 0.13865290861992893 -0.45885552522331297 -1.3146726663786197
Ni 5.6149669177511345 8.122454473126654 4.296659933390684 -0.9233083420287453 -0.9178804861449548 0.6307013756554428
Ni 5.654625066621666 7.858026624097721 12.1190405964573 -1.152876229762692 -0.6523063555197283 -0.06048982985494098
Ni 0.26719074953139615 1.0022864434379277 0.7083422102227303 -0.08944122278196853 -0.7432393323558748 -0.20203240131783914
Ni 5.959193343225824 5.705338527338238 10.588090438984334 -0.1546600826814627 -0.05632952782966428 -0.4757962668427096
Ni 6.388356468269345 4.068697919190832 12.58448962927469 -0.49916039548994684 0.09483488299371409 -1.95565819756889
Ni 4.392288380858942 3.641296966337536 7.34761994141246 0.8708254416386809 -0.016184065959030193 -0.8939535430157121
Ni 0.7207274983428676 7.5969654514111635 13.436535126692153 0.4099958234081326 -0.7137225538436804 -0.11339464827377246
Ni 4.130169904858251 6.709850872490136 5.531324023553546 0.2185201145602172 -1.3028813301706463 -2.293916129012088
Ni 3.815761287760259 6.906833899585835 0.6229167397358727 -0.5995509181945675 1.090357285292864 0.9228067198019785
P 6.90613830530022 1.7198893322498128 3.960166661453939 0.34283038130522897 -0.49079659690628374 -2.0424480987709406
P 5.301476485110156 5.304787513909682 8.570854026274096 -0.03960553020676405 0.8126501188495294 -0.3739273598203495
P 2.1337493830098033 5.856838962745191 13.043885136889136 -0.11111845064508605 1.0632200627564399 1.0191295001951288
P 9.176938311757134 0.6177443006280394 9.93664598640682 0.3109507589878129 -1.6688035602983324 0.47295108408443065
P 3.4986537648340814 3.315211639831687 1.7672657953135285 0.4078674642112201 -0.7974919230518523 0.6664641350773489
P 4.255757134478425 9.197268214078042 10.726765043223596 0.5739414451565793 -0.2137291209294771 -0.8022862591167021
P 2.5341056300383875 7.676652732771221 6.333266328307682 -3.0373043282410013 1.06234871589508 -0.7304547789966968
P 7.405037076124266 8.470854464315034 5.646026593792417 -0.16085721263111005 -1.0664766220205246 0.12418453980042485
Ni 0.8288376896722025 2.387075547240321 6.216622586282423 0.4622684075596039 -0.0004347735445734448 -0.6798338715160356
Ni 1.9932300627250932 4.273777663771091 11.517671512771685 0.14849971950702165 -0.4123401552705931 -0.5334583974408683
Ni 3.4936176622062285 6.560056961730558 7.728853837799963 0.7155963738276256 -0.9452046278812045 2.4624668536327134
Ni 5.952524912674394 6.352983180198202 2.3599872508403767 -0.12147382573748111 1.0525281302602325 0.7730301904650622
Ni 0.4489634482483146 0.9461102489316584 7.892180303521418 -0.5601991558698224 -2.3640026014165287 0.8359024045092507
Ni 3.5629452260058594 9.0798611732567 4.8236551485992925 -2.006121753536081 -0.047036018342880286 -1.5999082799885156
Ni 9.402208839801178 5.164082701815476 13.190663878285335 -0.39452523857635924 -0.8938147034450026 0.4410519213829888
Ni 7.388055300964785 7.655905473878944 0.7301050367720057 -0.3178235748482462 1.3141664161661626 -1.121750712002481
Ni 4.11522853960324 1.4823299718265692 8.915981014483895 0.12404390045750252 -0.7248168639846291 0.35996369855140586
Ni 7.3278261104209985 8.852661530393883 3.2137837909394937 1.7571808605921606 1.47685014048305 -1.0998680529967766
Ni 2.107901099356349 8.824559521255036 1.355452646671341 0.12377573439778038 -0.2384009126445443 -0.2934574872990559
Ni 5.764139430948895 2.638964149947234 5.484057928116482 -0.15422633757815374 0.06864588330317209 0.40206576992777854
Ni 7.806561921552683 2.1025682098333003 10.402407572923213 0.6200996888801966 1.0656767518270487 0.6272576400812164
Ni 8.494625239702117 8.638576158462529 12.183884823221382 -0.2758940244939958 2.4988086254865416 -1.2778878934501023
Ni 2.4763527551513906 0.24438638647179314 7.381691076980931 1.3768470830248354 -2.6739472877373302e-05 -0.3463859598669712
Ni 3.6183701786836644 3.834839120367061 9.557678799931374 -0.7551643659282349 0.7535309440898701 1.152846147855705
Ni 7.458328872992852 1.646657165860263 12.608109228837035 1.0238320478771206 -0.19233342886252036 1.7544470066007654
Ni 2.217165049740757 1.61825836982622 2.3564582691646896 0.7097028911613261 0.7597121331999175 0.06810672297025044
Ni 1.698956581548038 6.184862678660288 4.695567489387094 1.6557503266588 0.9696704742330525 1.1297100760588739
Ni 1.5450633017985695 6.535683337962607 2.1058087517452186 -0.1149555650029891 1.6193507049838434 0.33531119011004834
Ni 0.6947363859961004 2.1036255131474353 12.066412860266714 -2.9266808149544628 0.9682062309827003 0.1890763553778034
Ni 5.200689510419775 8.032361101253795 8.905203012893052 -0.37122538750815426 0.34448720018236156 1.202325228422439
Ni 2.6182076164644816 1.7463219151031837 11.08850653281007 3.0763632419156757 -0.27059318110637265 -0.9256413610372962
Ni 4.345052891570445 0.07370238812662565 1.0709740604947928 0.32927578254924583 0.6033414955852512 0.19114300809884502
P 1.7066730408231274 1.2388348734994108 4.520758153198705 -0.11504426806205348 -0.6580658837113248 -0.4508948756153396
P 4.17167369723328 3.5073533306995066 11.929923349543335 -0.17815508047960932 -0.959330011538993 -0.13560486582222453
P 1.8180237740643805 0.45729388541284016 12.733114941634435 -0.1030888954723902 -0.6886614971099946 1.1136054571875273
P 1.6898303845207687 5.28403098042693 9.404479259549424 0.44849655058649207 0.6317781536593894 -0.0651970055226232
P 2.4977585099673836 2.485729366121481 7.544569579982451 0.5579908353645938 0.30445075308576597 1.825190652973231
P 5.9155749442225245 1.7751473422990705 7.671529448992905 0.7367717223536602 0.24142967216853906 -0.6436152555036334
P 8.22212849696005 4.458277092087621 11.509351277656682 0.5261145554812875 -1.1439521878001848 -1.50430309448768
P 6.111816004080236 6.044538124775549 13.406915794551619 0.33267272404593673 1.3344259377461472 -0.062108339294970456
