# total energy = -340896.5541800541 ev
CRYSTAL
PRIMVEC
9.02650564270931 0.00000000000000 0.00000000000000
0.00000000000000 9.02650564270931 0.00000000000000
0.00000000000000 0.00000000000000 13.21120342128334
PRIMCOORD
 96 1
Ni 6.291176702383632 1.8806093081949546 11.364528828328003 1.1417469526187498 0.6215325646719811 -0.18908895378329368
Ni 4.4546618752633105 0.20178573296360605 5.962453925610763 0.11965888401592942 -0.3881008231072542 -0.4472212834184943
Ni 2.8297193187485843 1.6765200109385654 4.810595956569974 -0.36352699042263203 -0.4046654123341547 -0.3305711043219017
Ni 3.444641003237495 4.403301056979858 5.111863713151112 -0.24386244997974774 -0.15929218213683533 -0.3749064359041672
Ni 5.092167877387581 4.599826142334397 2.5575701673872335 0.26907597313089787 -0.29365314824962974 0.03811300482163759
Ni 7.319539434295558 6.178877943110446 2.5841378820539624 -0.6389947260124866 -0.10452151415385871 -0.2891766005355149
Ni 5.102566412126164 4.571907159742003 11.386697024043704 -0.6584698040179627 -0.5897617000182875 0.5789262999656805
Ni 5.841412995422371 7.899781283310827 12.323186174118613 -0.9457229622785195 1.403995361304853 0.46952174668790747
Ni 1.8059962108432823 6.261966929454765 0.4123813356362893 0.13044209067436244 0.7258710162807563 -0.6058580913595178
Ni 2.8746622913730677 1.6637745846791219 0.3472776621970276 -0.17009570051024253 -0.611676754923824 0.7525698657281813
Ni 0.414088247892423 -0.10929925137940918 4.5266211798952405 1.4202401052984894 0.8860821106874353 0.5622742932312962
Ni 8.604742363648144 2.412333688269352 1.1686698361854162 -0.39750643269187025 1.311548004706709 1.5200775837131175
Ni 6.894372955774088 0.7515811777486312 4.730760122933802 -1.0207001871163583 -0.2958483561287356 0.3479108811519298
Ni 0.729019426377895 7.412052092746719 2.3384093133139943 -0.21766393720750898 -0.4548564313662489 0.7935216255501947
Ni 7.646307972552019 3.81378898645719 3.6059717422849715 0.3172160231712343 -0.07166667240736689 0.7813212268292608
Ni 7.73205977812193 3.9333901889625924 12.532570419706298 -0.19995752106668144 -0.369615362708557 -0.32733177144899755
Ni 7.842553236225224 8.75987189317704 6.962713534210968 0.017632882590414792 0.4596867628753567 -0.42030183331983095
Ni 6.934829754991387 0.8870609066938268 0.5186919109289408 -1.200271431217204 -1.2243667816035109 -1.1392750940394898
Ni 1.80721478913296 6.441612448870805 9.203598673026178 0.8953028579547547 0.5454888462428412 0.46925280929723706
Ni 0.08477784558875429 4.815866533335477 1.6317422233711274 -0.14435201588723529 0.15138655413651347 -0.7196931696048187
Ni 6.199828463187052 1.9492919912035291 6.994473295042308 0.11395514876293278 0.10068568534753627 -1.4586315605924944
Ni 3.354872402564572 4.184308998566004 0.5209720063065155 0.7257167500910793 0.6925148094178137 -0.755516349951015
Ni 6.252823079029257 5.633018054875786 4.908887384065962 -1.3936898656137868 -0.6722203208348357 -0.6353473590678864
Ni 5.36181668662863 2.829024277798176 9.184309932676458 -0.5674956895312355 0.07554209620237312 0.12860940834099785
P 0.09128866425797293 5.683422063539196 12.312115164694244 0.8403128748721206 -0.07693280590231266 0.5999610091487926
P 4.030551497926227 6.128491987458736 12.727237850157017 -0.3133794230339635 -0.2835489699360923 0.11551092328582686
P 2.3411326101287773 8.419473331087888 1.359353869604766 0.22215925397470127 0.19328216592903485 -0.2144695986399274
P 6.249717961017042 7.836108311048705 5.72549821790589 0.18265373968091125 -0.7740676305906411 0.9264263188324369
P 4.745531999756451 0.9911103422711875 12.539836756915117 0.2374364918487459 -1.0634499193790588 1.263236719195831
P 3.986845156603121 6.089542614718297 8.265734786110396 -0.5855479190472561 0.7710558403475107 -0.17204691069934241
P 4.752987893588108 1.0274600813269805 3.808710674266281 -0.19153124467619917 0.04949810673012766 -0.4455153564709811
P 0.13339099549162958 5.596081592939779 3.728280896545214 0.9057173684198595 -0.33939178793732516 -0.5519299738824947
Ni 1.498011831259558 1.2095427573223758 2.457600712453831 -0.005640486115228996 0.47536303596003293 1.4535140368602708
Ni 1.8914320887084626 6.405064126686324 4.930936429904449 -0.3367191262011685 0.21769967554145087 -1.1290639578344426
Ni 5.888639674026768 5.636791134320863 9.21659774409999 1.0126318082859271 -0.20365759562608798 0.400737023814026
Ni 8.685024106673282 2.266537565788804 10.104734610291075 -0.10366559391146662 0.6688832860418029 0.18492890886833313
Ni 2.244873951750089 5.236221884239183 7.135859969415393 -0.12235031480516348 -0.4611268377559929 -0.3661574860669436
Ni 0.5508199531989394 9.006611430572148 9.281914443077302 1.0681336980079732 -0.051066479658512055 -0.6899095105844827
Ni 1.5596989722347976 1.0030885155334268 11.586582677525998 -0.5766323617251812 0.15246436058172452 -1.1835255792174328
Ni 4.122874599754549 6.828289906450159 1.6988687367712543 0.2759009664725313 0.37951179588666256 -0.7592629614776407
Ni 5.743980891283252 7.723421412023993 7.906006864395202 -1.3354032140577516 0.20832311942255735 -0.14970582399998086
Ni 5.195756058516034 2.948345658622245 4.758886715160733 0.36105358918147495 -0.21531523446967435 -0.27993168489847925
Ni 0.608091327512621 7.310431689893449 6.851990802859098 0.9871789154304613 0.08384470253079754 0.22311056214437705
Ni 5.106420730123886 4.465304125659829 7.222314037140393 0.027773313458526364 0.07860145185398722 -0.4974806937946787
Ni 8.257294100490563 7.0444205625097345 9.137224970213898 -0.7184341003867369 0.5729009197072069 0.6485083219298766
Ni 4.703387243945301 0.30927787787195243 10.33425247717599 -1.0578462000390363 -0.4649608667901024 -0.4332576221495506
Ni 8.093787973533365 7.13666242578541 4.754421302717003 0.06337795003601343 0.24068482358271454 0.2252993422655797
Ni 7.411573687936698 6.168804362582443 6.953941575826458 -0.37712504082204085 -0.489919336507653 0.42799251709586933
Ni 2.4325711143838515 5.287023059159968 2.5363398256292937 -0.48337793584470945 -0.01415957932983368 0.978280584499567
Ni 2.4632883137895787 5.280740611088741 11.425550715822137 -0.7440212048272219 -0.45221719397118887 0.15210054948440255
Ni 1.2272256822814764 3.5028439129548414 3.7538710406284457 -0.771754151966116 -0.29125276633825326 0.3965240141739429
Ni 3.5162753536588442 2.7999860084804493 2.653074209876907 0.509426039082013 -0.5649495260706141 0.2300998489780166
Ni 1.1187090289592159 3.367356060154381 8.330681398347878 -0.7414830117864004 0.138878908587806 -1.0369027650181497
Ni 3.520256042738458 2.7029962031279546 7.080042765194061 0.41631842319205076 0.12542304019321626 0.09963847502994452
Ni 4.048559377095908 6.617864002087447 6.058565451944105 0.7344854974226447 1.0304719217911413 0.06481493959285611
Ni 0.8269750678562823 7.536663005998575 11.289369627372439 -0.5597942071219197 -0.7434432208365649 0.8821439519752936
P 0.15786004754835758 5.478908520507882 8.085098156352085 0.5397853681001606 -0.9556600188865735 -0.8236714096606975
P 8.608903582844748 1.4499366611053108 8.03741924980463 -0.32004089421453913 1.1373663070525508 -0.35397405662687426
P 1.8533943930588197 3.2835900858713516 10.44154062305214 0.04418569337827874 -0.6368188014070905 0.15409418287566365
P 4.07667694281699 6.050972355223535 3.8173508456653886 -0.35053983413434464 0.34488032185572215 0.4067667749478737
P 6.865686720184491 3.844921405131992 10.405342529294616 0.7777270817200993 0.669261238206512 -0.7240465614775079
P 6.391677818511568 7.795100894974589 10.033737531182698 -0.6337558462110505 -0.6499702511873838 0.6817148905888324
P 2.2960813194341005 8.422063938266685 5.802334543648285 -0.0904570656409926 0.046616414306958426 -0.260014634259578
P 6.8979474520904756 4.04129303988709 1.4632995003648577 0.7583430207665326 -0.31284334802483543 0.5053508405713748
Ni 5.370003727434094 2.8951524596513516 0.3304703083053249 -0.10766751598200812 0.20112660167411814 0.030609497355740832
Ni 1.5323667125226195 1.151078078935395 6.993654590961762 -0.3320536024046991 -0.6455458968674431 -0.5612018861027238
Ni 6.679948309320062 0.7813054615109174 8.929016878338398 0.48716028570527714 -0.4944894723768387 1.107196211227074
Ni 2.5514772759388453 1.6082796267166148 9.094341846224262 1.2023380839382454 -0.9179375646351352 1.3327490642643562
Ni 6.337924976178008 2.0534668952121975 2.5831738512292395 -0.2136458171870514 -0.15405818743140565 -0.1257140890710738
Ni 4.212444617298784 6.811997063391876 10.666131823044417 0.03090825954308225 0.6192566241536108 -1.21780326945338
Ni 8.10144245049371 7.323339593258184 0.2062556586602608 0.6713983391541727 0.3689967552879516 0.2931988343210305
Ni 7.567371178898453 3.803995227610521 8.03782815051961 0.5462380657040399 -0.21297733036511704 0.8140529127343271
Ni 3.1118337325677436 8.269362538811297 12.462881281295507 0.677025455532963 -0.09626004547601485 0.4581150475128627
Ni 0.2598180417203974 4.774461951003984 10.242950273159245 -1.2868561583869838 0.024916560736021606 0.6261718632162055
Ni 8.58223928456543 2.2434387373200244 5.905910087668548 -0.228229114317865 0.07382202818747285 -0.2832815752073186
Ni 3.613066575882651 2.4356040203492713 11.441338074552851 0.462102571405701 1.4166757849859988 -1.0259997449524008
Ni 1.1926722178897269 3.300271068681162 12.651894508482123 -0.5887412291735732 0.5657203427983677 -1.2373045727111014
Ni 3.089800031789202 8.274949945932114 8.021023504579663 0.2865556179729 -0.1140273967617649 -0.023343559821946892
Ni 5.510573503027803 7.77605496763222 3.7152285690868885 -0.1645356899239618 0.34219866125850096 -0.5465975059259877
Ni 3.0470505000861383 8.408352675881348 3.510097613055471 -0.4329655448304285 -0.31412684272294933 1.0361201212158544
Ni 3.482200294077116 4.275828741373722 9.364920385567807 -0.09365628930458064 0.0492250555743991 -0.2714401024877003
Ni 7.1210375441599885 6.1537752303430855 11.497485648888276 0.8190061429745442 -0.6719732378210362 -1.908267366989752
Ni 0.4785068095377104 9.459146274829195 0.5507748206696921 0.06541992016670668 -2.1501012165752456 -1.162756207880565
Ni 4.427925364937197 0.2850805236412934 1.714999102724247 0.9207585790236982 0.3877897196247386 -0.7966432018983118
Ni 6.033334562793683 5.683205427398809 0.32264703568559416 -0.44350423957822327 0.21007301223412853 0.7558493078104015
Ni 7.924333379221371 9.032914668617487 10.928281411225731 -0.006471209546640468 -0.40491378089953495 1.2772119504290005
Ni 0.08637192652176968 4.650293336538752 5.809442014354152 -0.6388453449188158 0.6266405753225078 0.14083706075544133
Ni 7.775053025482928 8.763058249741901 2.541016458309901 0.6273232032118292 0.315064009825238 0.4475311013494292
P 8.48955512250313 1.5945864173429773 3.4973494788442725 0.38143343838940763 1.0109976151166136 -0.018117021315684927
P 1.6828475915390397 3.2884463460183637 1.533754989122267 0.4415455731899557 -0.370207230656285 0.8056847432752898
P 4.57143778143783 0.9791231425030988 8.038488890747791 -0.1668604814023965 0.04446157274748472 0.9799939676462478
P 8.473262279444848 1.7217247522326828 12.244289097090784 -0.07002656570078264 -0.4985294467741672 0.5753753493896284
P 6.289894938553008 7.784693333730157 1.4021178437171884 -0.9266299502028107 -0.10732041705523453 -0.4264655389283817
P 1.7277002991050283 3.219890034091682 5.966708117817616 -0.10632051503581046 -0.26048283214524814 0.14260469417882535
P 6.768877444948985 3.79374111696553 5.988916030159054 1.2519907139683661 0.5448936358610034 -0.8507479541625155
P 2.4930577300811123 8.383331201666634 10.230888153392604 0.40202591782877856 0.7367442115498344 -0.06668413159111097
