# total energy = -340862.40349193494 ev
CRYSTAL
PRIMVEC
9.33759027313695 0.00000000000000 0.00000000000000

0.00000000000000 9.33759027313695 0.00000000000000

0.00000000000000 0.00000000000000 13.66650722282546

PRIMCOORD
 96 1
Ni 6.906034935125826 4.199357036262275 12.792342471675665 -2.2133079311407173 -0.8358931485378702 -1.6833197516366365
Ni 9.055473470792622 1.6756959029642917 5.558236911647448 -0.6725440227228418 -1.65323861598054 -0.2040005807878035
Ni 2.157945080229563 9.26100316604077 5.744333214421359 -0.44781623669001586 -1.2573769179809442 0.23014201506986173
Ni 2.096298310522222 1.7973647017050747 7.1814079366534305 -1.0900158427930455 0.8503633171295871 0.08360816103995923
Ni 6.066884389827537 2.2479501110094873 2.7130750818272737 -0.37332829278377 -0.7587801083039513 -0.47778732913080946
Ni 6.947344433639197 8.737444490262128 10.840026998908108 -1.8620142495594838 -1.5263916988566033 -0.44929590655933593
Ni 7.7831427840988106 2.9049802993898757 0.9278427109129819 -0.4794768010180904 1.0307436873952895 -0.5248534293806767
Ni 8.005975033764969 7.27739089260249 7.156301958205669 -0.27513709172331324 -0.03513206781644272 -0.10039643624189161
Ni 9.213988399988594 5.57152523609012 8.22145579876124 -0.4311475177850833 -2.1216650727217394 -0.5122092582541049
Ni 2.1125457172612063 0.983593726243889 3.57843810999779 -0.0033874284149941663 0.25457880795598736 -0.08774018093046179
Ni 7.452022502276329 3.3936070506797025 4.167095662536303 -0.0038309437103159825 0.05980848751720023 0.6173596642412141
Ni 7.208554178533646 5.618101135408541 3.0703994426909094 0.1298116561792151 0.05257006078723204 0.2074430308104492
Ni 0.18016413179616578 8.761124618704693 3.1955166134481905 0.20911373364465274 0.122727238528608 -0.8559768066616226
Ni 6.29840993585806 7.766773988688787 8.665603873464587 -0.6489976028614693 0.6552695519131102 -0.03207374060609315
Ni 7.999513421429694 4.713559446780881 10.494469869063131 0.43952828564961083 -0.8450997547378026 -0.22739350579044706
Ni 9.195518646810601 7.3936812394572655 9.421512604477805 0.09574685328502221 1.2368086069112894 0.47281815805099214
Ni 6.2092452881853255 6.14348064125276 10.395441924989024 -0.25034368682871727 0.6608120789978942 -0.5753110718105963
Ni 4.976664722461544 9.333948419744761 12.6973875843944 -1.290187793863378 1.4199359437945094 0.35364726941507485
Ni 7.992930420423382 0.7518356742203768 1.5641864022304135 -0.6467008364074927 -0.6102361658225555 -0.13595967805848197
Ni 3.5655587720006174 3.520551587815615 6.133528637745628 0.5367895186966304 -0.2589319427183605 -1.09269261829426
Ni 5.902365390210203 1.3047881498114606 9.782649503371053 1.1311298392245357 -0.6617284201645764 -0.7342232449001935
Ni 5.289548690858027 7.145646834165522 12.369527989027814 -1.9097400948805368 -2.08546753975526 -2.929933774674122
Ni 3.8945874336452047 5.557444150249666 10.080989241459122 0.09462225276227576 -0.8927170995054498 0.5589421435342696
Ni 1.3422972491623222 3.175163468351085 4.975305169345915 0.444247545502151 0.7634993681564916 -0.9072762282665472
P 7.605233680306934 6.546444341149804 5.015157070047818 -0.8319537042741478 1.2773032245912261 0.061077069816978684
P 5.26978101265893 4.12296621181881 3.4695842198826288 0.560226409563332 0.622395941113541 0.06622287568397628
P 5.167048846600134 7.423673578793827 3.0699895224864027 0.38724284598233305 0.383101827230766 -0.26201855206348423
P 3.8152085803761797 4.188273316837462 8.165368630187459 -0.5523578054485326 -0.9267253381300944 1.051637500125163
P 5.057733679535028 5.038965123474477 12.071106080147043 -1.298657521897286 -0.4948481412678381 -0.9425317090347317
P 1.2274355535897687 0.791484015458538 1.5188682762957517 0.17798898721539022 0.2822513341705913 0.011562765136934924
P 0.15302722750603043 3.1469919590800997 7.03755395764187 0.6573567734594421 0.7436224267269064 1.119939369825355
P 7.608585875145609 1.0318597293667675 3.927549126627167 0.2575065231257436 1.2677027253869844 -1.838401752346866
Ni 7.320810686473914 8.006124435206246 2.2292665270186633 -1.144248635994681 -0.9281528146052401 1.1637193431247828
Ni 5.036266559941393 2.397771743841096 7.741160979099687 -0.5156036286476345 0.9108032675831992 0.3844544846039185
Ni 0.7780771036218521 3.210618297884374 0.2782825945964939 0.597516661373358 -0.9065223808196582 -0.6631939489665094
Ni 7.293815713552993 8.898816722022543 5.286245985246776 0.8352624569324067 -1.3345976874373209 1.7680987930562453
Ni 5.765812472882098 5.035977094648917 1.3122684932244493 -1.7581799912806364 -1.9103211641949875 0.6479689044866389
Ni 6.984190564094387 1.1635290870830979 12.382333560063355 1.255719327772863 0.6672557777407089 0.8693565704026381
Ni 3.374371615115158 5.354594343354442 2.7832255948203577 -0.16934288150461804 0.46043546811592323 -0.9049840897982607
Ni 5.262432329266068 0.16242457816241754 6.981590045257142 0.018828959781044992 -0.16089115119283903 -0.905990419575588
Ni 4.3327071601929825 5.581525795065667 4.860902883205291 -0.18964019830107337 -0.5740854269336113 0.022493553116825778
Ni 1.605374512072746 7.1789073300300394 7.14486341035782 -0.2377044007981519 -0.9541073296874729 0.3178716544773622
Ni 8.249256605706055 6.7044643780715445 11.618375826401282 0.891579900577213 0.6445328822218964 1.22064639532913
Ni 4.572328396822758 6.1350301222304715 7.851394965028654 0.5369435277759914 0.13771676995890475 -0.7132700396872941
Ni 3.408304417465427 2.8380391161072454 3.0156242055233493 0.7339525077373101 0.44437661488084756 -0.43997951425441645
Ni 2.2690437269999264 6.611069802092626 11.460842277922703 -0.8003229647427442 -0.6982884786767974 1.6344628780349335
Ni 3.0878383259240856 8.156123482249374 0.7533250198381171 -2.2647976143795767 1.1641507742352468 -0.045184309846122185
Ni 0.21400635952266006 0.8818961651659444 13.238636324579367 0.24922834227735138 -0.216940171667607 -0.23346002369950117
Ni 2.569396649509215 9.089845139876646 11.515562423308793 -1.9326535091436006 0.6852077342334393 1.2721911001756414
Ni 7.397733753551932 6.22017960616886 0.42672599913231324 0.6353758983129766 0.2920446661119293 0.05476449733538955
Ni 9.396883776883126 7.762263932680208 5.28534397404506 1.022969442766509 -0.1909118659246454 0.06969412206202837
Ni 5.660064265227503 3.7021770524592816 10.113406552939427 -0.4003955813142072 0.21424385578236652 0.5392431224434455
Ni 4.54058059055118 0.4568733424642006 1.990512752507308 -1.8534347354205885 -1.2867139763821647 1.2792459501398936
Ni 9.067052082491667 9.096082650050002 11.095181316635756 2.6166944767624485 -0.6502345605923641 2.9053848816901637
Ni 8.409461638706487 0.7178244361134368 9.31731910557151 -0.7551998471518607 1.210356840477664 -1.9094045659179892
Ni 0.16469081127480342 3.22748198556863 9.421225006703345 -0.252436564802004 -1.3030193984104075 -1.2140939389225929
P 5.825881189865941 1.2359607733326954 0.6980604929503714 2.1368263538432104 1.2036578311909334 -1.1689469100723093
P 0.5253449567609226 8.897023904727208 7.4986618972072945 -1.3479977628933106 1.3179937603320528 -0.3359169420148473
P 1.175173061912703 5.32927079905782 9.790549104578629 1.2233306270295126 0.3850730920245239 1.7069911271116471
P 7.103375563873923 1.1043100907965249 7.631582491994328 -0.5564576865495191 -0.1367942581446354 -0.45749618298194117
P 4.061646257764265 8.260443038621746 8.183586268433295 0.2126726546405047 -0.26220315727046456 1.4122794556905163
P 6.9317599957958835 5.378974791052999 8.325144134044216 -0.5646088549017438 1.6469795224447055 0.0832795740559469
P 3.2632636307547145 7.177693443319656 5.890374057029627 0.14820867062916412 -0.08611112996747106 -1.1060618405123144
P 9.145413138441986 4.356405963815708 3.464746414462245 -1.3733208150391316 0.7606827246433029 2.857995079552291
Ni 5.38340080875086 0.3655236987127745 4.410044816270547 -2.210891608389741 -1.185343606262778 -1.6579478485307513
Ni 5.524921324001459 7.255354180013983 5.95620500085176 0.9099126374481297 0.654737333558724 -0.10707873335807366
Ni 1.1385790463896694 4.412907721389037 2.1065145678286146 3.3748017273690913 0.23531636018194957 -0.6155578351457851
Ni 7.23304667731316 3.263151579673756 8.2274832131578 1.3896822871162904 -0.6218819775915999 -0.17907476408040127
Ni 5.996413597494714 4.177460387524966 6.086091812621842 0.08351405866425617 2.3385893035497465 0.763814328293749
Ni 2.7669800555993898 1.268567637891622 13.396101708650363 -0.038098606643934385 0.8890424788673399 0.5424546874022077
Ni 1.129960450745944 6.205762367085531 0.6941993994523428 1.9937848292372826 -3.1532590239324665 -2.292854520516793
Ni 3.5165364240812687 0.9352623599904513 8.815252760879718 0.6625450025286009 -0.09963976058152517 0.43883511623732807
Ni 8.666898997208666 4.994639583365307 6.094537662849089 -0.17825818171637686 -0.7043318566573998 -1.3788916242586897
Ni 9.069209065800118 7.745428257766191 0.6191177051380765 -3.368203762436599 4.038344060813955 1.2626823893542576
Ni 2.5016244207094758 7.367013082189139 9.384120225002942 -0.27676280025219435 -0.5521372047972942 -1.1939542307499245
Ni 1.4424989283094707 5.820773528092247 4.539781292840343 0.17512889205877583 0.033401972499213436 -0.9446711239752376
Ni 1.4224978103583765 0.021581971951617197 9.387523776587056 -0.7183772790068724 1.7674601310309819 0.2737348120591479
Ni 1.7401813000559148 4.89649217403573 6.7261901489103915 0.23695389578537257 -0.965494745588808 0.6769727479181566
Ni 0.02117298550611863 2.2208897749580068 2.7483207493427737 0.5676792662969513 0.476670956138179 1.0434662771682803
Ni 4.351111550240418 8.49045589505933 10.435990409910884 2.2578623207123245 -0.4358845182494364 -1.0180519508602337
Ni 3.7946938949706923 6.024155577622025 0.46317714952712485 -1.5728746729094911 -2.886979896820415 -1.4424256402565931
Ni 6.229741298410652 2.0472946377830334 5.676970905826127 0.8680838743378019 -1.3957009825065447 0.523262430744473
Ni 5.048106624162676 2.785813974790499 12.864528579306164 0.33956893694513773 0.17855951500687958 0.5755620114791379
Ni 4.102376825692684 1.8899375697569645 11.009423955583168 -1.50078788224557 -1.0346669337090955 0.1741369604591517
Ni 2.465441259149957 3.376958127567283 9.97715150473487 3.0017097189658433 2.13163555367089 -3.3770522139661643
Ni 1.003762920816421 3.951266605430052 11.607825283370031 -1.4986366402305222 1.5701320771673475 1.5888725909996442
Ni 3.1216777523735564 8.11723241956669 3.6618171868570344 0.32729706155632016 -0.7477801576490217 0.06684842508311713
Ni 5.290454437095775 7.540710932854991 0.7837048691629933 2.1832064837696468 1.6868043677511273 3.6504707803364744
P 3.615505541337874 3.2055479864710015 0.6871709953992202 -1.6711748887439863 0.2951775553139562 1.3014813644993264
P 7.027778434587248 8.063149097824049 12.908070695607632 1.6084533413450492 1.3227585287105477 0.6190524785626048
P 3.7204787290158383 1.3869589425143687 5.527773957770862 0.32302928741890174 0.6291635988546778 -0.1676328407920468
P 1.6405025259532395 7.015013948948058 2.461378473706203 0.23355361185457196 0.38812293459444125 2.0971408623281302
P 7.538955465919975 2.539777813775849 10.803961490983594 0.04113456525678077 0.21822006682129516 -1.0575824048546885
P 1.187806821290775 7.8783395149631446 12.937371119519275 2.284108656003363 1.0048472792445018 -2.962879633472523
P 1.6824936685424414 1.97831785986299 11.104091245089974 -0.5434193653083221 -3.714673283156312 1.9020877205416014
P 8.732178089457078 4.736436542476578 13.230108303559417 3.8763463068204977 0.3739106476498012 0.5216153820593533
