# total energy = -340873.9403838505 ev
CRYSTAL
PRIMVEC
9.27148936896250 0.00000000000000 0.00000000000000

0.00000000000000 9.27148936896250 0.00000000000000

0.00000000000000 0.00000000000000 13.56976186798351

PRIMCOORD
 96 1
Ni 3.640366907366223 4.471351967951897 12.088554626552291 -0.6236688942886937 0.030556018409986084 0.07732669890662167
Ni 6.142426691808736 4.350600088750444 11.298061869193308 0.16426263876823322 0.2130529207980589 -1.6267768222445853
Ni 2.06741235685006 9.677395306579587 1.314050060626364 -0.5275119500494463 -0.7902257284077423 0.19745558058043414
Ni 3.618291490875232 9.227913495792851 7.353590106344311 0.08766947559352643 -1.3384944513885657 0.32205046844540025
Ni 0.015452791543693304 8.739352356778681 7.071284376965533 0.8026081612324951 -0.6634983675808057 -0.10445389414071689
Ni 4.737499345436303 0.6821414953590003 2.9433224197906673 0.749345959474245 1.9799330109558548 -2.0093867974405972
Ni 8.518570377400287 3.5598811070477483 1.3631231273819975 0.009806958788092787 1.4407048009107446 -0.19989915702492023
Ni 7.9815564342777945 3.4103134384914027 8.544784586802482 -0.2734481340566645 -1.2536251642479959 0.9766217087399051
Ni 2.9707984789133257 4.180440442022537 9.412122230554694 1.8421609622789823 -0.5090180050103169 -0.8463716794716909
Ni 7.77325387976159 8.052418428498978 9.61689049327486 -0.30342076915935484 0.04624694678268164 1.864756331080995
Ni 4.507436605071987 4.971928957353436 6.9795661671221385 -0.579155385257351 -0.24135613861812627 2.462354753534882
Ni 7.344632920341814 0.36526701739279804 7.966386423163741 -1.5048617952046277 0.584100130857136 -0.8413706267126735
Ni 1.1287945747003758 7.091632514963339 12.957549085477513 0.20224554576990972 0.3371402728989871 -0.42355016505379955
Ni 0.7415532000520983 8.751599994403461 10.621907901751099 0.7784881282558399 -0.1719019004810459 -0.5989096850661427
Ni 5.207684392268558 1.007263890381223 8.992979514847114 0.034739203253398236 -0.08281317594248963 -0.8937524827484994
Ni 6.146673033998099 7.921931485326278 1.6957999320459083 0.2575823706690016 0.17132880158639527 1.025620250125795
Ni 2.174822562666156 4.492917452520584 1.9442888306354216 -1.1523131581703703 -0.5489950596238868 -0.34076115748102603
Ni 2.4525685735105913 1.9301015974079905 3.20390226783247 -0.9222053387725536 -0.592291922639309 -0.5979550344623572
Ni -0.16490085788553455 4.911015271361917 3.59009781846555 -0.7360698111906291 -1.601866432156151 0.10522728197163168
Ni 6.690195562747084 5.586322751813102 6.0170900610513005 -0.9427384257288991 1.5336154702985523 -0.3872395035482234
Ni 9.051616123018311 1.4045750297715687 11.702576028773427 -0.2018033160261686 0.582326583896481 0.441596223922233
Ni 9.173044820953002 2.2112409734081178 3.7985839484737838 -0.8935997592207191 0.7504461345169592 -0.8986306367764071
Ni 5.588316122054833 8.994735534957737 10.847667743840123 0.7899197671315492 -1.2984587756229187 0.5311552032289885
Ni 2.47843602920562 0.06369327854254771 12.497384664492996 0.28031117972508496 -0.3686982502109263 -0.45178062065440255
P 4.3669828106906285 1.0809629603883137 12.002698779517488 -1.17034816129521 0.1865070519887304 0.5004631734617704
P 6.241390570693588 7.589418786026454 -0.4157845822119747 -0.0967963775954591 1.8297358491417521 2.065538662041817
P 7.571357924487416 7.270924578845227 7.620045297279998 0.2376468080873391 -0.9994225086845046 -0.29041972891399664
P 5.767469113594274 4.249169993659543 8.91386774927201 -0.8067355531373074 -0.6908790735866037 0.09338760902422626
P 5.3784652287927255 1.1086754424931313 6.500784595228797 1.5977033019173967 -1.2428992931900595 0.6124102906557388
P 6.036231051116673 6.232730999503927 3.4995598692350507 0.25566072816625646 -0.43928557351118536 -0.024917846287602248
P 3.4410576976615515 6.753019175574867 8.283837587776622 0.5685814663962466 0.2044464100759705 -0.022087833037974864
P 3.3070290455012166 6.782595227068467 12.140119869684565 0.2761632189949825 0.7919319124655716 0.6377662529220242
Ni 8.09436264698081 7.37828842721384 4.269617336594961 -1.4765894306224956 -0.9822488251186954 -0.15785673524188942
Ni 5.4896303878548744 7.6498781690326485 8.908494921108831 -0.054385773839732136 0.1444170647972158 -1.2710505588132948
Ni 8.420264774269683 1.9712948252406113 6.743195105304453 0.7654081551434302 0.7024855474772805 -1.3870667038703144
Ni 2.208366811664226 5.0628266403763975 4.330423473308322 0.5525940898290548 1.5489700983777517 -0.10230162368440444
Ni 1.9492379517286138 2.6642552216929913 13.10680245053993 0.5123342138677435 -1.5114317351126616 0.3252566340875237
Ni 6.215050269034242 3.1456031418789427 6.962387024234211 -0.14504055731382762 0.20972437064545815 0.19085838697889068
Ni 8.127202262777152 8.232925057504897 12.159605759159202 0.06803601763331509 1.2293068992176055 1.0911553557141274
Ni 6.108919528768652 0.4938811196872202 0.06516651822352981 -0.8379718854437698 -0.8625328626125854 -0.21968199607880232
Ni 6.858639983918152 4.1161333908753255 3.3219589250373116 -0.22314038694104799 -0.785590543628576 1.1785656641089959
Ni 1.7154017151392522 1.4837906360290332 6.760618088366138 -0.6395811946435759 -0.9765409761006408 0.26341954617606894
Ni 3.9614015026694713 1.611486860863309 0.7007317589482841 -0.03206808417913832 1.3328038287616917 -0.7314024876219469
Ni 3.949357837813614 8.53897692578192 0.6322979678262137 1.262623511091864 -1.364986069921191 0.113953606101036
Ni 5.446249088501097 8.163101470107312 4.138668673245339 -0.07795481940892382 -0.9754729398474427 0.5529859259508347
Ni 2.0594945048201123 8.485573146282507 5.243287839083783 -0.5052734503662202 -0.28027749827367215 0.21566233339644794
Ni 5.604652486547536 5.584524082850795 13.169792950178648 -1.1601336826560535 -1.1033518977803192 2.175875240215556
Ni 5.816005361108064 2.328451143621936 4.706807933756284 0.3840269101481967 -0.15743764542659983 -0.735443747570856
Ni 4.838651295842312 4.687127343002221 4.74819586286833 0.1553187993113841 1.274176506036786 -0.22885286394479293
Ni 9.06790613006353 8.010585467891104 1.359391352859686 -1.5871329826007181 0.16510133261944468 -1.7666137238702864
Ni 3.689570702123756 1.0908370967020073 5.086123112034067 -0.2530348605076352 -0.3214783979920141 0.6360888652196013
Ni 6.3269664187456005 1.741139369981331 11.591141069366932 2.6166937054314996 1.47766569440581 -0.1655296784061149
Ni 6.008416582627394 8.086426251971869 6.465774523741343 0.6249670442748269 1.451538915411771 -0.14294587956832802
Ni 7.460100050530304 0.2669475070279479 4.741288603193492 -0.1944067664517813 1.1300353206087763 0.17434393426363523
Ni 0.9650971561514774 4.6703830329716745 12.986778383263946 0.7955119165073461 0.7370486301641306 0.5793610735102539
Ni 0.19274314084330196 6.734633811903454 8.764248160374484 1.5753511594744416 0.8728946654628837 -0.8893597529974424
P 0.5072793491585056 0.04357321918635353 13.300103735050916 -0.6514923442588652 -0.10351569859716367 -0.04803926279641404
P 1.958667056546479 9.397210893997592 8.840767617486389 -0.6028907812010778 0.20826089872605422 -1.281264266121503
P 4.053272692089557 4.096533462079881 0.7351354750226722 0.12829341976247582 -0.628086563740415 -0.5648268844498209
P 0.9698905162211295 2.2087933001810613 1.6668552689870157 -0.7191288124609163 0.9158516286403839 -0.10013264105754369
P 1.7211407671375398 3.6440384172068074 11.080999611400882 -0.7047488895901605 -0.5028383585621662 0.251722826564431
P 7.777388964076996 0.9239892260222236 9.950271931140499 -0.654781556533098 0.4681804021686647 1.148461645634764
P 0.5724569931694311 6.656688399707 5.306944031668346 0.7727591961918627 -0.8768022280474062 0.749152098295884
P 3.2497497833922964 8.596506518107244 3.4254964296907504 -1.187893369267825 -0.8650116631703813 -0.29259436796781224
Ni 3.7748684054908757 6.281285789996709 2.8416299415470174 0.8570646404091625 0.9431048079293823 2.4387815942006323
Ni 3.8600733939630305 2.365416572244187 7.327142255406806 -0.4786496771311046 1.8156785997177376 0.6573233491183454
Ni 1.9992576375618323 6.184927199660353 10.551562329494866 -1.1460931454025876 -0.05080371291542864 0.06422795674113455
Ni 4.361290116139823 6.064629623444225 10.227692512703612 0.9591983710571352 -0.49848470957916086 0.305648372938293
Ni 0.7754460570552334 3.7530711336847777 5.464760544429661 0.3573578854974426 -1.4472300036237722 1.2646852787168994
Ni 2.5203153472609765 1.4664158647127306 10.495871273536684 0.2513980962351606 1.0871089535588956 0.4098945219435779
Ni 0.5893450112871711 9.16330048549226 3.0964299430367475 0.010992494455761715 1.231143438205712 2.219649814198345
Ni 8.757505933212684 5.087451716478904 6.894605945972689 1.268423405603093 1.1318374068145216 1.0857313564850786
Ni 0.782708414777784 6.832494383538231 3.1065525552689457 2.9414361188867666 1.4853044418979904 0.6808178326958597
Ni 4.059744191758062 7.125714510352201 6.062223671919902 -1.0324737827125186 -0.730740942778548 -0.48575389227605376
Ni 8.637486501681447 3.799938513089211 11.241666180033398 0.41342336103244287 -0.3175142711379435 -0.8686502883642331
Ni 2.0945314636271064 5.777677023529839 6.846935655577864 -1.0232404370397088 -0.5116988942765897 0.14794024745912585
Ni 6.4605407679206115 6.79042036420345 11.364200966665011 0.1336953075043375 -1.164543124577659 -3.2217845796076903
Ni 5.987713346581875 2.535752377272526 1.5067867114270186 1.7741475703534864 0.4074997964591563 -0.6595784637011093
Ni 4.346715334651441 3.449578196508767 2.8123199818019655 0.42499049704475195 0.0861394121022452 -1.3111497408270258
Ni 4.646490404539385 2.757962166033369 10.32303402064221 -0.7789583830240391 0.9816459014273738 -0.03597076166765418
Ni 3.3202131035651345 6.237737603831996 0.7555995066391838 -0.43694535541378304 -0.20325367531944996 -2.7417953577295555
Ni 0.7825415279668484 4.536029878678965 9.088605657513252 -1.9919230934381953 -0.4399741149377777 0.4598721394132855
Ni 3.284601312409362 8.38823177805953 10.215411497716646 0.5568451517959249 -0.8647550670748849 -0.012994098266822783
Ni 7.259075615268794 5.690942239290773 1.7481792119559674 0.5511151912906832 0.9809627593174202 -1.032316431199048
Ni 8.14572669879101 1.3308666882749816 0.7911927548159634 0.9832667248602486 -0.7966398594642021 -0.06633986087781478
Ni 0.43150810124896355 1.6728826643086425 9.185073651425666 -0.24017651648772828 0.6352015775186416 -0.3893328957421424
Ni 7.498799247688386 5.503213119967138 9.219268758986384 -0.6038616297547794 1.1466829564677865 0.8426548927417359
Ni 8.1307068858068 5.4983826739395 12.86517908992252 -0.9460944866853255 0.9871408631036741 0.1266756816533947
P 6.979475306525074 0.7925204321118516 2.653661617794375 -0.2911638061688727 -0.29778671080202906 -0.42496889977819713
P 0.21090969736259918 5.866813123548479 1.373015806674684 0.06070271719669546 -1.6603762554665857 -1.7354025883748048
P 7.1425886212356975 3.3674513425494252 12.876889908305456 0.8282754840916122 -0.18179730521788692 1.7122906849476898
P 1.7295685510897911 3.434669641398514 7.594005391880336 0.39556087892972525 0.4375516215392142 -0.8676246753131961
P 3.287735075859154 3.2610331861094473 4.585846518892212 -0.7099648865734612 -0.6626838420993103 2.0359131258659002
P 0.28038838535091676 0.7152388585633419 5.264280345601592 0.49696724449337 -0.5450615288974354 -0.4871595143743288
P 9.146472732056246 6.74312649628218 10.958152375573235 -0.6710057317014444 -1.3220982694187295 0.19287901695334525
P 7.735991763475454 3.8012272501292146 5.44276393559939 0.3792009495144631 -1.0807611569639968 -1.2215313690372447
