# total energy = -340858.2670678405 ev
CRYSTAL
PRIMVEC
9.31382374812176 0.00000000000000 0.00000000000000
0.00000000000000 9.31382374812176 0.00000000000000
0.00000000000000 0.00000000000000 13.63172251111251
PRIMCOORD
 96 1
Ni 3.364330073371464 7.956361814211858 0.45328330775742065 0.9143827574043413 0.4186979791678208 -0.12282802577253041
Ni 3.674154417856947 3.872017287968163 1.4679592001753372 2.62907896646973 -2.185531789468713 -1.3436603118602213
Ni 2.2937898665623275 4.985531477204956 5.084318547993632 0.6412639816626375 -0.9092680618855953 1.8728074835202455
Ni 4.297770795712652 6.711559966479126 2.7213688837467425 2.7857200841369636 -0.17906550810902064 0.6453913735674498
Ni 3.900023955753158 3.2919989187262133 5.85783719233832 -1.0839814636735072 -0.3720957059282495 -0.5051590362755429
Ni 6.173984691715468 7.337588624666163 8.628171641281622 -2.0004951513779226 0.7048766734172763 -0.6749600883635021
Ni 6.547878829248167 4.323942640234047 0.7559648808680077 0.5344570139087119 -1.8020435254328062 -0.21895591654605517
Ni 5.876296259476026 8.95522283403286 6.782627235251939 -0.6316573118108089 -0.980392488636247 -0.6576259679604287
Ni 2.0231860335642446 2.202030075735002 6.4620631206890105 -0.7379161203707485 -0.6938731232179212 -0.3722751689289072
Ni 7.829898716378582 6.741038218404471 10.239495735109799 1.0937452279284907 -0.1539633137247542 0.9504105975621759
Ni 7.582504931973851 6.390875703590815 1.3156018097661255 -1.5278819102488848 0.1300327710510857 -0.2719952036602219
Ni 9.216410391297446 1.2976112279591763 5.551014693222676 -1.1007373429756075 0.5034921900960813 -0.5718843055172345
Ni 0.9600037474568528 0.9705190543837763 12.87145377435957 1.5370363230546433 -1.0564354357344385 -1.5304324445848803
Ni 3.8485837076066582 7.65064486596621 7.569395725153971 0.364426876529082 -1.257078927124551 -5.471259704697584
Ni 8.384536916111351 3.4863132220179804 2.8078486679337904 -1.0730887280204036 -0.20381006204355223 -1.1728922678733025
Ni 6.282667700156805 8.647205371339957 2.822883973489267 -0.5446799771883006 -0.18212152132652507 0.0872141332236627
Ni 2.0992147762077136 5.336224879967978 10.87830575352342 -0.8477281934995853 -0.13950111555283717 -3.238625562424429
Ni 2.3103684727004357 1.2199339385255694 1.1675967691593505 1.3893778685019942 -1.3082865603466178 0.33203509046193785
Ni 0.46157354220884195 5.888013049656779 8.467644164746371 -0.9776054128094133 -2.395390628809507 0.4384211686283611
Ni 8.414806843048908 1.7689279611124424 13.577658620871706 -1.0737549008494927 1.572482836787711 0.581294800197857
Ni 8.505225443267307 2.014608001961325 9.535090319331305 2.031452261881069 0.44609154068942525 1.370686462740078
Ni 2.0013730585218577 8.452341552451477 11.61246883593745 -0.7922520148091518 -0.9072104080256184 -0.8447521415903967
Ni 8.289424148761713 0.295020953139467 10.901151631611155 -0.31906773166799246 -1.466549272777674 2.0699524748387965
Ni 2.811573266020661 2.9508242437570944 12.432266938731377 0.5587603665407667 0.40899643560934074 -0.23564083340090386
P 3.3747429282379837 0.6138601475581382 12.333219080879855 0.32516895946972385 -0.02239019476974208 1.1757443926101172
P 4.335929531301319 1.1706824389422468 9.011005186775757 -1.3796511281325337 -1.9279792435963832 -0.969743493562833
P 0.4492615986953785 0.8110468340706877 7.529645257099571 1.3705548222582205 0.7857586937753241 1.3584264144258025
P 7.928485539958287 6.598527402382454 8.032492077533364 0.3345095201443594 0.6110581475032185 -2.3477141486691506
P 5.557521330440699 7.724848099169752 4.606144977852234 -1.2366841655182832 0.10682367992447409 0.04857250959206474
P 2.5691530634573616 7.6911879404151895 2.694937183544868 -2.606188949245434 0.9783065526414958 -1.269017587543666
P 2.431857988692278 7.172007467405892 5.836898785338837 0.6481229135659998 -1.0053463303681072 0.013015952643693714
P 7.1682074273472685 1.8625225752033674 5.84160226629375 -0.7265292186900455 0.2536269855656793 0.7508389990800037
Ni 7.002887057149844 1.3821062363214882 1.7470414068630378 -0.7267467340174903 1.6859368775445094 0.851808791326862
Ni 0.2170046405241596 3.2458954915443963 11.89106020411758 -0.32115083944926626 0.9219767677015154 0.3193919477766306
Ni 4.139007357381086 4.459328381146146 3.901848533810717 0.7742928592275697 0.03169578844138412 -2.6395127602085444
Ni 4.082574899745807 7.263348136167928 11.688806797526865 0.21349849297590973 -1.5617729065693748 0.7836051377674311
Ni 3.270437416923 2.360886652303299 3.160269784988171 2.7145033547828215 -0.49751128992229804 0.3672077817083289
Ni 2.284159372884348 0.2713358995387882 8.831352704710175 -0.34320319126361537 1.9775683673784203 0.6703447010786777
Ni 7.7092940136356845 0.5052861108537756 7.668334611268517 -0.5606388145104021 1.1377095493245826 0.08526497991709187
Ni 2.633930707103733 5.664732754741689 1.3458978154099668 -1.1251664225522493 2.247546283498297 -0.7208547940130875
Ni 6.233174041157983 1.6024992458979195 9.582651359917962 2.7165820916887213 -0.9765607735949828 -1.13358549985388
Ni 7.638061890183859 5.096971377453531 12.134332621546966 -1.2489953787854684 0.29830813052313787 3.590384613677855
Ni 7.181218839018582 2.4344938007917634 11.617090355244038 -0.07300158916870653 0.2569545072770155 -0.19345648672337004
Ni 6.697896587150697 7.328861571884474 12.601600635549538 1.0261984912267683 -0.5119277224579442 -0.9090096660178861
Ni 1.2413277915026673 8.12411309238796 7.427080499429089 1.508041992704822 -1.3254525306029432 -1.4176887996315455
Ni 0.044684931836404714 6.680982683360359 5.8938388463643 -1.3256065396823042 -1.0541150151313783 0.6930483133237806
Ni 5.371226229331467 1.338936663596696 4.566668336213824 0.5638069278257386 -0.2503040918400335 1.6462341596382486
Ni 0.4469433879831453 5.935187566561002 12.68813443991389 0.8030635036023589 0.018394443346787675 0.8673086867346741
Ni 4.626455633136151 2.0666350209992297 10.926684547828577 -1.3999908681311504 -0.36911965401906105 2.4979856153646143
Ni 7.968609492341977 8.602573528298489 1.2711934984928117 -0.07101001265997449 0.6231911833213267 -3.627879268189204
Ni 4.8285283515476065 0.712348244606907 0.8011974655363904 -0.7148867493551108 0.7494205214659223 -0.3233236787308689
Ni 3.8680309714360788 8.045336771760928 9.469126094548983 -0.4085593480719222 1.1508717977381535 5.058471406145978
Ni 4.9978070968060955 5.9259109981826 0.2904180614802238 -0.9778620089049095 0.9850418144828001 -0.19236402499013966
Ni 1.2206883582430903 6.365989166736307 3.902585257263259 -0.697705609590134 2.5093470631240202 -1.7260679412374402
Ni 6.244732496336292 5.223592810289248 2.8688365167275798 0.40161762664676637 -0.6468268204623956 1.4911369894193673
Ni 4.235507884458016 5.591367765668725 9.283707424247389 -0.5327042928836632 -0.30629269139051124 -0.5506133119536001
P 6.198899170040995 2.8075962633122495 3.335082804273213 0.36702909003861955 1.6299433928980251 -1.1989051469972964
P 1.9783399725782953 3.911675549168199 3.181562117287232 -0.7988880320684306 1.897428367392719 -1.5213669919485022
P 3.06178913899834 0.9667842110908655 4.918761606674911 -0.1445898429296542 0.5506503358391227 0.7134618439831261
P 8.264099862194568 4.508458801021719 10.408051727651257 1.5697690374009738 -2.1046975916294657 -3.2102434117373098
P 1.6376030473218122 7.269588398028901 9.402549020168971 2.313612064779119 1.004418162126883 2.0737379100231577
P 8.670936994059002 4.5029263897599 0.7892450356167084 0.820253128007768 -0.6750529051876245 -1.3698989338417764
P 5.178513903711472 3.0113082146901693 13.463370553343898 -1.3769514698131835 -2.8178017951628567 2.027313300012031
P 8.023868408194446 6.655975066798099 3.886608324134433 0.47710830078591376 0.20563965905312326 0.24939417843125433
Ni 6.0267145117964995 4.042246043241308 5.231828093180998 -1.3180431255127494 -0.8515493670178882 -0.439756599610333
Ni 7.530757327646139 8.661408952441427 5.142185334474568 1.4054737456225923 1.3302322113797735 -1.327039672584405
Ni 7.980549814290884 4.424103500014503 5.785929816670196 3.236034661768801 0.6238699545559062 1.2839222725696404
Ni 9.100443972743747 8.462735779670652 9.013308495370113 -1.1678397930510598 -0.2882065233127617 1.424380095608792
Ni 3.5174027654387694 3.205957815634168 8.930345611002025 1.193971200030789 0.8631846372639713 0.23395727505089386
Ni 5.812626960846754 8.571372218993623 10.63018083396035 0.71494125674213 1.2466212221263369 0.4517736786758671
Ni 0.4682422399587775 3.43709897772935 4.619845612475356 0.5388150337670914 -0.4702190298652482 0.2587087709639609
Ni 1.3911965282264283 2.7777640860873283 8.600690273151791 -2.1193919604168463 0.154962701523546 -0.8653556767733613
Ni 0.43282363129473433 6.027925308874003 1.7806978400881315 0.1385824603933097 0.21304854992268468 0.15471176185500454
Ni 7.614581740703988 3.0555954462557327 7.913801365555286 0.49001832397936257 0.12576911067872532 -3.3190177876302513
Ni 1.140198294060209 8.730601348508845 5.204073830017544 0.5060059576568705 0.10203962827226942 -1.3807872986195058
Ni 1.0903879650565005 8.28550302899534 1.0344537969877323 -0.28339007576072484 -0.23207574175746482 -0.7644434772373158
Ni 6.5848826507013705 0.40686414195308573 12.789431586182465 0.05800074488450011 0.36196170281804113 0.1015655168493283
Ni 3.9455964949856086 0.12745222590735755 3.2235069221990122 -0.3905035190114759 -2.4267128359615557 -1.700124739009117
Ni 2.484592858329338 5.651572321891606 7.465780368173164 1.1038977429814603 -0.7951103101935532 0.19193825030663073
Ni 9.135622284757025 8.660840809197367 3.0875167141305293 0.44148052427997514 -0.8161496473623557 2.6392667056360093
Ni 6.319773973670412 4.091776957534824 9.307290025787664 -1.3628595104964913 1.0882021866230742 1.2376709549115845
Ni 1.438259279246574 1.182650702362173 3.581148437422162 -2.231738112821447 -0.3375087119819994 -0.6768799310940342
Ni 4.495782687002637 5.933837062128403 5.620795722946233 -0.5107452721140687 1.30816289028456 0.9751309831269915
Ni 3.895795479805573 0.5788308567236304 6.806782636948109 -1.2980767096931516 0.7814523530904864 0.6198220097387777
Ni 5.314840340814554 2.4348570399150145 7.405065414412997 1.8980094367071696 -1.308180373786057 0.2292459856181536
Ni 1.4745273086296034 3.211518168367005 0.7169036357654174 -2.306523019142821 1.7026161379724034 0.39518318387533236
Ni 6.735598945379383 6.738495544541715 6.085118705903373 0.792100576832952 -2.0269219781108836 1.1373675926041316
Ni 5.51258213121802 4.072897836949462 11.851214735061715 -0.7381138382038513 2.757648008491096 -2.0410095665522014
P 4.875870517277944 4.51646868938058 7.396940966022957 -0.37322724842953137 1.0348078301623338 0.46616954238622293
P 2.784693570900111 5.3215649215065275 12.697499489617186 1.4763888845759154 0.41489583181291123 3.567958166353539
P 5.756138620269437 6.246781537544373 10.543101239528756 0.0858578763060844 0.27909633348137736 1.907208843818251
P -0.13765365697649778 8.028869931506897 12.441223111575425 -0.45583190790564077 0.9117751445781652 0.03809500709950859
P 1.691576655507394 2.459333768527906 10.616917017667499 0.40480579456676086 -0.13485641769197418 0.2777614167200378
P 5.804915114845431 8.074135114558135 0.7189107647669694 -0.8234027293803432 -0.28526749528909584 0.37505041768119923
P 0.13797870942268878 1.0077464076051343 1.6836952979152215 0.160861069285852 0.2161719260430148 0.21614081569476326
P 1.0291775158769245 4.174073903510285 6.636154318639388 -1.185435651755952 -0.10027790838615633 1.2046662178507899
