# total energy = -381170.27641455067 ev
CRYSTAL
PRIMVEC
9.25177556496224 0.00000000000000 0.00000000000000

0.00000000000000 9.25177556496224 0.00000000000000

0.00000000000000 0.00000000000000 13.54090872312652

PRIMCOORD
 96 1
Ni 6.702754090363547 2.6633826356528414 3.3790657589840856 -1.9647048811521903 -1.0055353064504617 -1.0261717517538909
Ni 6.033915482066801 4.847810103960098 0.8512327369574223 -3.4056367104720766 -0.7140069178533187 2.3961676161848477
Ni 2.645563715984553 4.091958546815872 13.467868848500785 -0.21282769216113026 0.12256114526438892 -1.4824960259149178
Ni 6.8232862219515305 4.094798841903184 12.501197082383934 1.744300405085067 -0.5897146488304359 -1.5128736097655104
Ni 3.886698654935999 3.377286642549915 1.7404125564233852 2.6564182777146312 2.5004759858866357 0.0008340658655211442
Ni 5.387308890365535 3.453151201885305 5.629809029103555 0.4674522657533885 -0.1603077678855433 -3.0466621153068174
Ni 5.868373462531664 7.567998641359195 1.0221472625420793 0.46635054804877746 0.42945316080179585 0.05023035691046188
Ni 8.107266133376413 8.269607038578618 12.952678177119472 -2.0242886542530947 0.32552582858851037 1.0686355773450562
Ni 1.3273244797768715 8.990172323856362 2.55690302591541 -1.2601264557016232 0.04812899429674292 1.1658875544206952
Ni 2.910395790493764 0.6701264554503427 8.853466238289094 1.2776744918877156 -1.5748096851486748 -1.6016748849706353
Ni 6.780302472845162 7.380733452882656 7.803868957753345 -0.14883499135925335 0.3500091584418553 -0.7855332080280794
Ni 0.6801378017499554 -0.012736919370369623 0.16641631232260012 1.7421473632978064 0.9062151339918844 0.9101954587958712
Ni 5.295448011141012 4.6243149625131466 3.327488960766655 -0.49067369817517437 -0.03991200570358933 0.6582116652605696
Ni 1.2809268255004105 6.532530672410886 6.209549338348651 1.131695996140651 1.755735643505202 -1.4917175445131858
Ni 1.8067977465520626 1.6407561311383752 4.352264652736439 -0.6519394590986126 -0.6590313329483876 1.0966945403648016
Ni 2.6161060627011534 1.7850560740596033 2.115712681100452 -1.303432060467794 -2.716011821007548 -0.3108635985906453
Ni 3.7347012347748874 3.2240124773658416 8.102243344441879 0.32601588085105143 -2.706159867914133 -0.0008250670044566436
Ni 0.016072184448468155 6.616092708986158 12.135078419741555 1.0365626080699115 -0.3090615123849 -1.2251699942310963
Ni 7.0751473071694955 2.019838381651577 9.734017851896986 1.1618532364503216 -1.4792345815548265 0.23182197387544595
Ni 1.1865864704341949 5.157531793334591 7.953699612085633 0.42576157088282157 -1.9815610334775808 0.330289825636057
Ni 5.011622041471368 8.06024861013953 5.579125027224644 0.8415986835630797 0.21961848983071855 -0.5228119734706157
Ni 3.8891503754511065 1.1281800115214735 6.502926841074131 -0.2056548285617748 0.11042219590900983 -0.2502773523671561
Ni 1.3869151659572672 3.737347242576097 1.8040962280976804 -2.039517298277391 0.9634427481557858 0.0935660435836195
Ni 0.05664399567450282 4.448632996998548 13.04074767873233 1.1085792076175296 -0.1906737817719103 0.7545123341665328
P 2.7743206760175556 9.198365028578833 12.750905279436369 -0.7496061551141671 0.19738538946413103 0.6814351545648845
Ni 5.217871873332812 4.89563253166798 7.229301316206349 -0.27396929666745723 2.220292589988666 1.0346993296089275
P 3.3312868146211887 0.08899745469838788 3.3730678329088253 0.8431035502433802 0.13228480031005604 -0.4776374338165064
Ni 2.447196396873567 3.8364892691417114 3.8061869287525405 0.8642236200514472 0.8049563497496975 -0.923125793704294
P 3.160017946033782 5.813232880380576 6.96819215616989 -0.26062989924607377 -0.5166549527302844 2.002539178391145
P 3.680929915402048 5.622738822244518 2.0802219449947827 -0.1291683661682614 0.123659006314258 0.4964581660674353
P 5.062025714551758 1.6260180527211463 8.907358755921361 -0.9582833154420335 -0.18217988536828625 -0.5500708091865688
Ni 8.07825256531839 2.0876723998280498 5.587615381627338 0.18597509074466034 -0.30971585813944724 0.13353538488770553
Ni 3.3869825033039995 7.943102628395054 10.371943502619667 -0.05938811215032998 -0.45839195532333316 0.11819078411083515
Ni 4.113663212206216 2.248421999639317 4.123112050553684 0.8667720975049136 -1.2758963169413702 -0.8394566975194123
Ni 3.797622560145617 5.739070647742468 5.023690982648565 0.21993447840924057 -0.5551952748973277 -0.8715042128732604
Ni 5.450600286757413 8.80185243296955 9.516645535494932 0.8773552723373986 0.4000564528072336 0.3482968037364389
Ni 8.336173563507659 6.1609978707291075 6.59737451673648 -0.42193422671693137 -0.672588502807532 -0.5689475914864137
Ni 8.000833707694179 3.843428100788241 1.465315636965075 1.036251761697712 -0.8379438604193117 0.6542007443289636
Ni 1.7829651727901157 2.390927098107977 9.656658205636159 -0.7007073725309352 0.4068457078149251 -0.4558010546677054
Ni 2.9850668707859507 7.843044676052098 1.3796562228774443 1.9524463754998116 1.6578342057710225 -0.35694625188132073
Ni 4.573143392063874 4.015372348989243 11.960251318285808 -1.2974030806648944 0.10402246303025312 0.5459598723419888
Ni 8.981438647757262 3.1636168867144487 8.723540779006818 -0.10664241715160343 0.11559499835920092 -1.2268828631571451
Ni 1.9070129790790067 6.5311521578571075 3.300122208752742 1.5368386052215404 0.5493439583228732 -0.9245771814388398
Ni 6.274988997018295 6.103701624879831 5.2635811955099365 0.3081562269618112 0.15908469411171955 -0.16913179393507646
Ni 8.635857076433506 6.347245363897489 8.997879978049326 0.17466403660721533 -2.384397877243429 -0.044708398650968165
Ni 8.608999172073672 7.188537068049316 4.2047904256313124 1.3624319360407697 -0.6377963348290113 0.39563749780393154
Ni 7.406138828484483 1.1030521891855078 1.038744947840578 2.0219605203405497 0.7133484583337133 -0.7514671195823058
Ni 0.8774578198710924 4.957332622668921 10.509491499760047 1.1623749132817467 0.210303897298012 -1.3849406586662472
Ni 5.3616352132733756 0.784588497113941 1.8650302720848442 -2.202547864410736 -0.2498955435477051 1.322953161219857
Ni 8.230296244357147 8.321750045458407 9.560043764144986 -0.949956540743893 2.7322763624955266 1.1372562638372479
Ni 7.202396227791318 5.8971557362014675 2.8940442024243294 0.3204170466070353 0.2597606092672429 -0.9423869559267513
Ni 8.169835891277053 0.7635786400658024 7.560579642562725 1.0423673876771469 0.20622587057389644 0.9587461140110651
Ni 4.231974917667309 6.001413994634456 -0.01621281143650449 -0.2318595119816007 0.7829626190874257 0.9005461086315653
Ni 3.523631227862987 1.1427793133057718 11.046416442213395 0.5111072834391778 1.0204770153619587 -0.28004661320978863
Ni 1.7118467743009524 2.1124394029183957 12.471420242844793 -1.0671661918883815 -1.5775936756517153 0.12667953830813666
Ni 4.196892184862456 7.606476775783084 7.691615314908448 -0.5203236598311233 -0.12268532954707903 0.6147623358276831
P 8.027293785706279 5.07066687289557 10.853268049678153 -0.3115796508210634 0.03232879403969271 -0.06583129667251242
Ni 8.269782822313664 8.222793054403366 1.91037877501635 1.007371331217936 -0.9615997814097761 -1.2822888507312753
P 4.542714302349959 6.161386445301313 11.446766674311988 0.6902103296543532 1.0622211891782805 -2.262942306338393
Ni 5.991616364349557 1.9057917447092174 12.129363597997473 0.3264871640605152 -0.8585962465623407 -0.3758387179104495
P 9.565133165863328 2.3651794068115874 0.507087966373273 -1.5010462781132794 -0.5309250894960533 0.7314518528026435
P 8.61652086557851 0.22376251775973174 3.7310754639451873 0.6833367424629715 0.176788796259702 0.1526296825149952
P 9.434960684174433 5.694162529326128 2.4097128283190146 -1.4789908409751367 -0.3455976596377209 -0.7741887295495377
Ni 2.495055831683563 6.013034224698512 11.827983309439661 -0.914555792647096 -0.16955988261143057 -0.12444473544034697
Ni 5.482324625045346 3.579077118606523 9.967692721958175 -1.5659990288355805 -0.719442229936277 0.08923630586001405
Ni -0.33656201536082164 2.317514259287694 3.2980914440241915 1.304513723567747 0.03363234334246466 -0.4315005302491278
Ni 1.6126029782045226 6.9080047304678915 9.411473201639707 0.5071300439589846 0.8553929091336945 0.33692198624059394
Ni 6.322136045112581 2.6825708180993777 7.378711939929634 1.0324794391394736 -0.41250444876259923 1.805470548836484
Ni 6.049171659913637 0.9472060304044545 4.925072606577876 -2.0520431986585437 2.1357074097474182 -0.8711483721957384
Ni 4.77158472537909 8.691599023993959 12.18836124536648 1.4349714979713932 -0.8932583167209002 0.835510825497787
Ni 6.651138434688897 8.571631250713228 3.43643879457025 -0.606973950131516 -0.17765063003936502 -0.7077959039466003
Ni 1.7341620568761913 6.178492978253891 0.6683390124181966 -1.8284610961943863 -0.819877489835904 0.11782234502782289
Ni 7.002234064227762 4.658870344112864 8.90882146163245 2.3391888848069584 -0.3287106540743952 -1.3158733715549402
Ni 3.542541857043663 4.956601732402154 9.327750184170235 -1.2689468822067307 2.085742133572885 1.4355199142756956
Ni 7.600574142995769 4.2242034262231964 4.671424078327766 0.7404430005576602 1.1165856228617737 0.6555145780443807
Ni 7.463250038823186 8.700184671684598 5.5689286454144575 0.9345780014052937 -1.6523875808341542 1.8606749619227698
Ni 3.9299969644103436 1.9872073693618308 13.27913540324784 0.17148126800385952 -0.9413824259216368 0.8758534909808916
Ni 1.1541219901039652 -0.027823789725030586 11.165603365639505 0.2783268023052045 -0.727339887516799 -0.6466440150276282
Ni 8.430587932778105 1.238322399190719 12.030352946644365 -0.8803143549657226 -1.6500381067653709 0.4826143182058076
Ni 5.595168531168975 6.254135494976591 9.434302882934343 -1.4731945460083338 1.0485555187657296 1.1863481362678923
Ni 0.5448962722488833 8.129276107359205 7.693375927791561 -0.049181861041289486 0.2405660386166631 1.1008934089374975
Ni 1.5655299443144661 1.413328985091723 6.867434769596962 -0.29225549657115474 0.33436888080143706 1.0949672732610496
Ni 2.846817589060496 7.943565217171489 4.943230141230514 -0.6122639948858617 1.4016793115771666 0.2482834618655789
Ni 0.5363448561277002 9.002097862512864 5.6501333295850165 0.4687946387138959 -0.015277237874044657 -1.7557940075469634
Ni 0.7450260545980882 5.08468331282156 4.573144317241426 -2.0746753342357622 -1.6742260168654846 0.9225709496420885
Ni 5.950381200818114 0.33551841508118363 7.104319080589058 -0.4809207325534685 -0.4449209174200918 2.066930657293337
Ni 6.705316832184999 6.521881878777345 11.813468198812675 -0.9057477074371626 0.16832935263843915 0.10741709053409888
Ni 3.0509672678769237 3.4698969155922628 5.993178989236356 -1.1645104715675105 0.3923878805183823 -0.10218900936594014
P -0.03389758035962611 1.1001933905471377 9.63171634398832 -0.30794591072321803 0.32061913531551234 -0.09028197351570902
Ni 4.974698205336303 7.1132183634701205 3.2401096416082376 -1.8374722985540612 -0.42990284674470475 -0.017126118157325343
P 5.8271012918981056 2.667175863619611 0.7753524496036338 0.4914272885117471 -0.38503478258742074 -0.32464831107956343
Ni 9.024015318740368 3.124204322962161 11.204126833763484 -0.6386679388006872 -0.13420387170963985 -1.1565829891903177
P 6.85932188763584 8.65748772761962 11.310301134908467 -0.16328124869157043 1.5609146723341376 -0.48006121276665065
P 0.6881785198619539 3.1404411890150405 5.93370765096028 0.04771453246714363 1.0423082523044371 -0.49190165704500444
P 2.508063828076924 3.5539955551482008 11.188108309613083 1.2330859066440636 2.0134396273537325 0.3814874315557946
Ni 7.696653831861381 6.052289508266811 0.3910799530188278 2.6819195073095297 1.629521217758942 0.584727994249122
