# total energy = -340892.6779182864 ev
CRYSTAL
PRIMVEC
9.04700881307511 0.00000000000000 0.00000000000000

0.00000000000000 9.04700881307511 0.00000000000000

0.00000000000000 0.00000000000000 13.24121188359760

PRIMCOORD
 96 1
Ni 6.431455241362055 1.9389096953444598 11.32896932910466 0.5231711565822473 -1.080975586967648 1.2354042703645949
Ni 4.791874879849417 0.3393523961523979 5.9845112928130275 -0.7835974244579471 -0.6747993944159217 0.07355823300312493
Ni 2.5085184176857918 1.4801177840442323 4.772583038240792 -0.024888278601247458 -1.1551246594772364 0.7672835177892722
Ni 3.346796160966602 4.4217346079803095 4.671764076647114 0.45286254086467165 -0.8083895438009626 0.8661977130586824
Ni 4.889790656312629 4.671956777934989 2.6373713455112493 -0.13386011521697594 -0.538166344439499 -1.153794370701587
Ni 7.349934717835731 5.998537775288178 2.637794745524044 -1.1301332796392214 0.515950470464092 0.08959214653753603
Ni 5.235576380437214 4.5768365271972815 11.34996924597858 -0.3546199177409893 -1.209140965792692 0.2961913412904512
Ni 5.570460458933216 7.633721290514101 12.418496077841267 -0.7313685490602179 0.7665983187967894 0.3438673072101755
Ni 1.7455208347995461 6.3645073760910815 0.4063862080071666 0.33346925180530307 1.2167827986086657 1.1689247985851225
Ni 2.945470849693568 1.6737056787831948 0.4757975737799371 -0.1971295646995831 -0.7562226319894202 0.5839306951588072
Ni 0.32256929008967006 0.09395409130075705 4.914714260911954 0.8440792838930882 0.6518067901754903 -0.30054164783934695
Ni 8.580137930225177 2.2394422813493944 1.2019168346115778 -0.4122380824750901 -0.16967146848863038 0.5821170389888362
Ni 6.889659097088957 0.7411870540220203 4.860478347734526 0.5490364543847835 0.17331626433006928 -0.5185323722586553
Ni 0.733822788842213 7.533227116537075 2.636960611310803 0.20820896244219628 -0.3044957473910885 -0.1761820159136385
Ni 7.790352154221721 3.680431752245388 3.690511024772198 0.16377824293264698 -0.08014591352297165 0.18447228094688875
Ni 7.426237190227001 3.8489503855430165 12.665920912668678 1.8169011592709288 -0.4128116955903729 0.12127250835995243
Ni 7.972061326379496 8.785803581739376 7.146639382632476 0.5851069748550956 0.6128466068622092 -0.48535922794079633
Ni 7.037677208399554 0.33633612341167585 0.42611411544093536 -0.29894422144524 1.1153607493157374 -0.5609375766977436
Ni 1.6904607391185793 6.506590649615495 9.30461244485327 0.6717140706223786 -0.2802543583452206 0.17010187115782963
Ni 0.020849736527498504 4.848970552514975 1.6461077783765583 0.8193218744427502 -1.4017731568425535 -0.7388597152309404
Ni 6.307764536769519 2.1199946238936267 6.636151053530708 0.7155966309379418 0.9064547608065163 1.5052410329209174
Ni 3.337197284608156 4.1676131772240375 0.3414892996357768 -0.7368398565874343 0.4587418824635841 0.8537322336018202
Ni 5.877262622050689 5.599944660678905 4.585272862922307 0.9718875364890294 -0.12327308372974899 0.808934360560839
Ni 5.09865894894925 2.7697055623307976 9.580771484395157 0.9122024619235709 -0.18345463831565179 -1.1639119187515632
P 0.027081316202991416 5.473006079919846 12.707775994275387 0.34620315443220373 -0.12288998935871737 -1.0485226086452653
P 4.145665133825742 5.88065525035834 12.539163272086025 -1.483201793732691 1.2361483476194712 0.8091919850975998
P 2.4565614460302228 8.431242259059001 1.3838521819898624 0.017228190952828397 -0.05449915948914485 0.2613230686583564
P 6.42503186509957 7.7559735207041935 6.015654715976379 -0.3981384098489143 0.23180937546995561 -1.4180292136900998
P 4.820146782413174 0.7943472778507026 12.582700192632446 0.4206928981106626 0.9278329693719762 -0.10553118636529565
P 3.958545850393367 6.1674635239827245 8.168794866085312 1.1539859178871028 0.39949106722206684 -0.1911203823910257
P 4.717146586992897 0.8281867096425343 3.7922826363946642 0.47423329323096397 1.469117804835799 -0.29570823100644555
P 0.21301815558253992 5.583714326855104 3.706321577386732 0.5980699627736668 0.037475628347954815 -0.46111861022587686
Ni 1.4008207517334086 1.0599837414335826 2.5685968891594353 0.4138995293379129 -0.08428076162695163 -0.3017726920329706
Ni 1.8444317822330014 6.39961881732306 4.970009578822251 0.24003896246859951 1.0422861408172504 -0.8401604084546562
Ni 5.8987583150079645 5.616292605617372 9.287226808003103 0.5501042335276655 -0.508886107418143 -1.249568734790435
Ni 8.808167787543411 2.478446160366775 10.251293257221901 0.15297446744892365 0.02154533027094354 0.3155995706137339
Ni 2.224234259522299 5.498391986669893 7.207960008417161 0.4438199710464292 -2.0048439152649213 -1.110905541757861
Ni 0.3123561218323182 0.23546559386772142 9.368435473277678 2.1647763020889172 -0.5608046506643052 0.39657826445064603
Ni 1.7634972413256846 1.2694672306699915 11.381682630697615 -0.5820352779083072 -0.34084831787819364 -0.39301651524131664
Ni 4.062514075757427 6.80374870133042 1.3415601298571291 0.14296567706266988 0.3782540122201614 0.22593877562179152
Ni 5.883088895731028 7.925234008725095 8.142312461866231 -1.8550696999208502 0.3961689448273693 -0.20722680103458505
Ni 5.470029614017933 2.958453307350845 4.40476875233941 -0.005886540687764056 0.12141623302666833 1.2079870546939067
Ni 1.0179603854628152 7.455015725284699 7.095700199469203 -1.2131670562329495 0.7225262681782395 -0.12126788037426213
Ni 4.992383736335987 4.740379305643689 6.586576159297551 -0.39740821655110914 -0.6642349886365141 1.3217959076869623
Ni 8.058007910173314 7.337974572175159 9.197253400583323 0.5358472093880191 -0.9485671165955342 0.00317891194861388
Ni 4.577144125497175 0.23995562434528694 10.23993202354524 -0.08900927745087252 -0.12382072870310289 0.24311837272487163
Ni 8.186737798678816 7.1907616446495775 4.728052756125891 -0.7756270046579611 -0.3757813823099528 0.5963604362817277
Ni 7.127640664109633 5.9383661196236845 6.949517726248264 0.5416866988879315 0.23912107864002047 0.20341411215671418
Ni 2.3819326702707264 5.380952765172254 2.65148648867284 -1.1220258200407387 -0.3840202252799773 -0.6817719690790128
Ni 2.168206133897549 5.345977029072579 11.635053159721796 -0.2720247713465767 -1.064181912449077 -1.5052019521528657
Ni 1.1703120139983854 3.2839465906912695 3.8305107721652734 -0.1310388437180969 0.5920242708002191 0.1292472990353129
Ni 3.592331980352313 2.5399477263278682 3.0043379266861603 -0.23197341185164566 0.5455358974306928 -1.7548444991495002
Ni 1.0471641299350731 3.5160023669345812 8.228579309772293 0.5474171736138056 -0.13577764395466294 -0.39614143402354357
Ni 3.7435255917588717 2.5260967558238328 6.53929196769772 0.9139834650833936 0.261144376988647 0.7522453925092271
Ni 4.119175491999605 7.01527681456024 5.913684070159863 0.32857644248937606 -0.048853788277909406 0.6415622296293467
Ni 0.7264820458853388 7.360465436102678 11.388170240722726 -0.6148631230716056 0.14080852151035103 0.3937353956852122
P -0.0013950487601059921 5.68689546245179 8.084752677648188 0.5555940529976432 0.1890881824523453 -1.2471593540179942
P 8.573271250530492 1.808325170030777 8.028120211834235 0.1108716247416026 -0.3065914535778526 -0.5727196569343362
P 1.8611235135066433 3.3612170930263234 10.546161511004382 0.12972346734078302 0.1287060818198622 -0.5371618144343846
P 3.9549179998563853 6.334154661498633 3.793620688999202 0.4339605617538461 -0.6981874343225588 -0.4325767940324421
P 7.027065067053223 3.8400571758725612 10.460623852009244 -0.1424136612139418 0.5027555690403729 -1.2316028943406336
P 6.218995286223735 7.579855399997427 10.311355444079668 -0.404917894664593 0.4601194795374011 -0.1696681260545207
P 2.4407925096562617 8.490554448885556 5.737178737475585 -0.5477550165691986 0.478308491741602 0.6121763202680618
P 6.777286200530743 3.8420656118306904 1.7537988478702138 0.3531829281841466 2.289891324123411 -1.6403249932426653
Ni 5.33673098605813 3.04834438699036 0.14848855576925843 0.2110387185815075 -1.3492236648806117 0.7194717976226319
Ni 1.4060318288139602 0.8328757743141486 7.133464223687326 -0.35850125507326647 1.3103321300217368 -0.18105528484553982
Ni 7.144802839841935 0.7621833520924093 9.235056326939372 -2.397600234866316 0.41497373623869827 0.11704355788026939
Ni 2.8131673927040093 1.875634915654568 8.984400805262196 -0.03774405151799306 -0.08366395397855914 0.4492467984889553
Ni 6.197219135993027 1.9850584873373305 2.2522238954108587 0.257997089608917 -1.6234842675362426 1.2667462750109861
Ni 4.063834939045205 6.655802966090385 10.419601999914896 -0.41768830695638387 1.4745734286337315 0.22895082297523794
Ni 8.301770515830228 7.275803527561356 0.39189651868041075 0.0027207413652727335 -0.4754167720161038 0.1905367419734138
Ni 7.657442547641195 3.8988627332051746 8.289753374014087 -0.9666291163035676 -0.6757941542290232 -0.8214438058817595
Ni 3.021501911820227 8.405512565973776 12.398369197318518 0.6790951935777982 -0.5997175256794188 -0.27613905062526634
Ni -0.08789802359637995 4.9440546152174 10.047842313466937 1.2513335400003418 -0.3270525496456819 1.3727448879310036
Ni 8.81466353987646 2.4993357037330832 5.926316408575791 0.08119518072309241 -0.783593053582573 -0.08816184184891268
Ni 3.7556214425517496 2.5289465636022594 11.641660190263334 0.2102275355341218 0.7061987346628096 -1.124612092710676
Ni 0.9538080459173445 3.3579058877980557 12.884202617982927 0.4780194997462736 0.47307809658059813 -1.3187648341701221
Ni 3.218319588708073 8.59214331092985 8.150800365541533 0.5746320434657007 -1.0679205535559029 -0.3732028229494992
Ni 5.744515861628931 7.868934472835733 3.7630463226906534 -1.1360244483126758 -0.12971086893529277 -0.23440053323589952
Ni 3.0847043154395553 8.301101037177517 3.575007863162125 0.18847111769363672 0.21064893934225656 -0.2116367571768226
Ni 3.514156777135219 4.448920869485618 9.474841867518835 -1.0137270982326347 -0.12270461282078866 -0.1505180354886311
Ni 7.38660224458482 5.979430492659489 11.35564986281691 -0.5523999715403777 0.7882323521267974 0.9884089311828205
Ni 0.8458301862440823 0.04060930849213856 0.11281167648600303 -0.8822054013408485 -0.1170391870048952 0.285557772836005
Ni 4.849956676476398 0.19904414575854695 1.5560936594170864 -1.1174880800713851 -0.8792044097309956 0.10238261343398496
Ni 6.036327131130998 5.531576415023128 0.38489141975077346 0.26562915223287803 0.1712915205905566 0.7327386899348671
Ni 7.677526907222488 8.727197058600812 11.476833641265312 0.7927338395415766 -0.025796649348129766 -0.2641253139938419
Ni 9.182985362972667 4.88847884003367 5.787442109079974 0.14003153413501043 0.15197996474613826 0.8201603111836456
Ni 7.647635590079879 8.790996564802287 2.7692667824030086 0.6326880670681684 -0.6521382053729801 -0.8704019809480171
P 8.49088014120309 1.5578315898114858 3.3835532531030137 0.05144057516847915 0.5047209202968598 1.2751928631164426
P 1.747321189554806 3.249215123829746 1.718046878413749 0.8038032099818608 -0.31324932521400245 -0.4887312297368228
P 4.788988884035708 1.2484510291801978 8.041335177618196 0.028897142650324427 -0.44257272890288946 0.950960299418059
P 8.714476964199326 1.5223582682266894 12.257932479399418 -0.9842046632934857 0.10736309736771187 0.5716107401408737
P 6.3647968803733335 7.500096970236763 1.384792166206302 -0.542131242624518 0.4411272547056145 0.4498183547217092
P 1.9404205458174668 3.4312138002697736 6.056900933889474 -1.30062904380136 0.09697764036832976 -0.060541766138798955
P 7.119579779250654 4.031898997909186 5.8088799011807986 -1.609850478802892 -0.20024985549611965 0.3656368376767832
P 2.256034495526012 8.368166513563159 10.14242426717983 0.5998715347587797 1.3933702774908392 0.8234924608806722
