# total energy = -340886.65261897416 ev
CRYSTAL
PRIMVEC
9.10467758921212 0.00000000000000 0.00000000000000
0.00000000000000 9.10467758921212 0.00000000000000
0.00000000000000 0.00000000000000 13.32561596672994
PRIMCOORD
 96 1
Ni 6.41751387389417 2.3069796021939144 11.252056652273069 0.08357627936075929 -1.049981966799611 -0.15195811036926732
Ni 4.461883776201972 0.6680948612511757 5.751122497802161 -0.049897399051075354 -2.1195048318456275 -0.29991841243305123
Ni 2.667524830964788 1.7766048241234675 4.384393866048717 -1.097405450388897 -1.6394330775560153 1.7270033085675163
Ni 3.7576824954119923 4.290078511886155 4.988737775485407 0.3976876954647409 0.26792437602495794 0.12351656719912277
Ni 3.44032985667367 3.2810435239123965 2.903318679177691 0.0879075597462615 -1.2827156538560491 -1.6037996446231217
Ni 5.294715940630208 4.538180973603486 2.678648925927219 0.2303541310806678 0.27083280792100456 -0.6103086709317037
Ni 5.309192377846008 4.616645084248622 11.370441131859334 -0.35043339046346744 1.4329441831287193 0.6335285606915928
Ni 5.5639867775215865 8.121335906128891 12.154813650324614 3.2209152896288593 -1.5799554910156726 1.3386795708161783
Ni 2.021238403715503 6.616360030367803 0.11063275716769287 -0.7817670561174278 0.37203168545953347 1.3228410611220252
Ni 2.977347901415395 1.8697456748892765 0.29300217878004714 0.10580783706545004 0.3691577063458481 0.1542132249520312
Ni 8.21302911317312 8.643416323002109 6.398467799044023 0.8421023626723756 0.4610982985109027 0.9746463301810891
Ni 8.74771040369833 2.780022226083296 1.4791167707420214 0.27630437255853707 -1.1863823319399374 -0.15649173657356277
Ni 6.883491268048041 0.6599634737810932 4.488907369472549 1.3236877253930364 -0.5260525918951005 -0.21244459779009867
Ni 0.573866001524808 7.6531915987313965 2.5331998820216515 0.37563174410596595 -1.0583321385365192 -0.49059193709464544
Ni 7.4589615137473295 4.001059629509826 3.66783571696359 1.3433162982572413 -1.4579885276918565 0.49026772098600724
Ni 7.830924008095947 3.7737977745767517 12.496748918297316 0.3457619531297271 0.9646727639081449 0.37479947801265767
Ni 8.51776266890446 7.397614196791316 9.024919608896912 -0.2973750771859072 0.2791693528111579 0.1606013878665621
Ni 6.9452300861363065 0.9168774423773244 13.302882526441518 -0.06945655212992553 -0.5345246339218537 0.45975566844007915
Ni 2.1353291173954982 6.103238616148891 9.19220986364335 0.98113810855302 2.105296144445413 -2.087029484925741
Ni 9.1362707251189 5.273738763683539 1.0969898144388628 0.2164516620669627 -0.35874525276327246 0.46403526965203956
Ni 6.637865278609136 1.5514734637240386 6.6913780205813795 0.8945369263230079 0.8925831450307465 0.21346866817923882
Ni 3.5004571468454593 4.429134251255285 0.7215329448679658 0.15843266235001743 1.069958409921538 -0.6755789528944237
Ni 6.084346410348398 5.583552729456652 4.761162719646531 -0.6729708258476153 1.4313639831257927 0.13517806269745108
Ni 5.706220049336197 3.0062916711695014 8.777942485317867 -0.2751198653321326 1.5001921576431 0.3330979845088134
P 0.3050522194436393 5.760310938329322 12.309657810936462 -0.3168231586081898 0.07312500212044826 -1.1487364965627056
P 3.9957516025306994 6.188567653624665 12.760129939317688 1.5425837352354337 0.3664199956997109 -0.7425135099334438
P 2.177274366611342 8.431441221581819 1.3283879243575594 1.833462920284352 0.6066764734957552 0.4552757782918546
P 6.380794709560004 7.803883115938132 5.647688809129143 -1.4332421739851124 0.5896022916222878 -0.0327864504024016
P 4.949193429724787 1.2961327833988077 12.566215786642669 -1.4505644673136437 -0.03043209123761211 -0.13401849517171113
P 4.1449044292409125 6.5352737726043335 8.192921432927148 -0.010413739134156259 -0.45586044715073104 0.39166360075784806
P 4.402330080712319 1.1443213908602836 3.4087593874624833 1.5841404756312976 -0.2767059788723299 -0.921102078406046
P 0.327590848580566 5.757160719916324 3.640451578464243 -1.3585529127013378 0.4522058811172793 -0.027345224782172262
Ni 0.5517006641651442 9.087515177137384 4.447531162600094 0.7407546182608081 0.538036503729854 0.2286798287020384
Ni 2.0879483757156088 6.09340556445514 4.995599970912796 -0.3481217116111553 1.2657314605932266 0.08952658340692324
Ni 6.072337340733529 5.744796567879181 9.222019488227156 -0.09708356981857474 1.3752457999759864 -0.4321697884020106
Ni 8.78900011613459 2.347486312365672 9.887074297663014 -0.5694091045038646 1.26661052076407 2.2142502404493283
Ni 2.5312551229088873 4.927496983256076 7.052568770986592 -0.4640530102638524 0.053310795607998514 0.5314948459565942
Ni 1.0337997107580201 0.5526894321410158 9.287421118071343 -0.9794031281397843 -1.0429849666564879 -0.4478260068820288
Ni 1.8403284619054712 1.3292738094777463 11.493276888272522 0.16599247697514638 0.6117040086173336 -1.703593414284008
Ni 4.365738381863073 6.8804138870549965 1.7323970625503116 -0.5767814857085356 -0.5688905129962332 -1.4120143749545875
Ni 6.078364637234699 8.315265536755648 7.917241813547593 -0.6990528676466478 -1.7639130371096718 -0.2994016206976327
Ni 5.5616195613730905 2.520575336208174 4.690603290001871 -0.38005712686717125 1.9010250836050422 -0.435011885836496
Ni 1.2654591249208007 7.733276341970502 7.566244660064902 -0.1979770003015429 -0.22106576380020637 -0.7945989177747734
Ni 5.009675802318851 4.836577673798854 7.175298002673098 0.23538860818078172 -0.2722055198988151 -0.6691116000025251
Ni 1.219553340994974 7.647865362397281 10.987929958165921 -0.043750148502756915 0.3785324626925287 0.24104040714992034
Ni 4.942528805799022 0.42841877855473987 10.438460850454609 -0.5031929136881076 0.5750274791319064 -1.2197071713443122
Ni 7.9224897496552575 7.352464101097509 4.292820840747412 0.8668425457315329 0.21914360707682906 0.5799771098276979
Ni 7.200215684039263 6.198846834515632 6.958636723746537 -1.1018256909437798 0.03262858466829865 0.19653306876616478
Ni 2.191432140114845 5.380764247628024 2.6690808203485488 0.6179088518764649 1.321924977065659 -1.4370893156453444
Ni 2.4499048294980854 5.523206927025002 11.357075465297827 -0.6520587582852964 -1.0952207840327526 1.3274996429399588
Ni 1.1647431824798056 3.662693395114858 3.90492516078392 -1.2093050021743819 -0.7956165604060105 -0.037325733033651845
Ni 1.5284932577286425 1.3149248377468652 2.2732030696258794 -0.3921245995546666 -0.20087951866031858 0.14414941295812594
Ni 1.0876447734588017 2.8338399747515948 8.106252186924225 1.2782095384555794 1.9638361053939921 -0.1007785021716587
Ni 3.9596697656211295 2.6145356079484623 6.9330516695200455 -0.46506422513718615 0.8028066503965463 -0.6250835152480332
Ni 4.243471667793274 7.095047554303598 5.811194249441236 0.2705723551707662 0.17383331317580383 0.29334898674564963
Ni 0.8666678773999825 0.289151810667744 13.224434804215871 0.9463266573007896 -0.8760198413554267 1.2757806172991124
P 0.058358251334663325 5.842489757392097 7.603689467195355 1.8513889086351536 -0.21882453317451347 0.8375304270309769
P 8.77973155444548 1.2608976814961994 7.7714458814294956 -1.306335350157518 -0.30560954928055756 -0.5337707864749646
P 1.8417123728845917 3.723749362391057 10.236418041712755 0.6707097977275803 -1.9769867838433373 -0.5062674388483732
P 4.068698278614342 6.16846452571744 3.753945935768367 0.1802407593640444 -0.49923881413636595 0.2744035559913984
P 7.005794400827818 4.0725131384844175 10.231354930558224 2.0532061086183933 0.3182354655746842 -0.4528430004806459
P 6.89312401683692 8.069257150861986 10.25194242730814 -2.6632345293055164 -1.1881029141754698 -0.7884051302592358
P 2.3727791064445984 8.407250093479691 5.75276133975112 0.29518064063774974 -0.5470713602386126 -0.8886740397843276
P 7.182279469375661 4.14169958276295 1.4968399359522582 -1.8845872497639928 0.5450283616666548 -0.7179628171772733
Ni 5.3985638921292125 3.2665761913740905 0.19716816441144963 0.9306323864939844 -1.36076894651605 0.28578068748008845
Ni 1.6774093628240063 1.0579180014401932 6.693337347178134 0.3493190743533662 -0.5465337425675878 -0.0947495223687594
Ni 7.047748754721155 0.949162628771807 9.106192512549013 0.9607592877863517 -0.1995543720909918 0.987042904073229
Ni 3.085456841981692 2.1051835302121558 9.09112153989284 0.638255790963933 -0.8828959996499698 1.1975609742645763
Ni 6.389608037374404 1.7366990226663277 2.249137586073173 -1.221669951497638 1.6369028549349938 0.721439462871964
Ni 4.012877500897316 7.112346441542603 10.551235938236688 0.4277315501249988 -0.17163322020069152 -0.8541855190891546
Ni 8.509013073832522 7.648693888049255 13.209949262322578 0.43382814994103996 -1.544326171847837 0.06472520809252723
Ni 8.044219287752899 3.873776238140715 8.083078961765953 -1.2267792476997452 0.920852424289085 -0.6576316243873837
Ni 3.455853331801305 8.570560693693407 12.526052322812442 -2.687414983206462 0.378466899561916 0.09491587274329459
Ni 0.3139966546139551 5.185541752797088 9.876706801400353 -2.6758925843891594 -1.0101491510733893 1.0136746477281446
Ni 8.913324487318082 2.5553460995585775 5.962586826815025 -0.9014992165734539 -0.5318290893675615 -1.1447533435452415
Ni 3.6279954691844085 3.1639391619818165 11.573590158916732 -0.4551436235893645 -1.2050009754823892 0.15109576236897204
Ni 1.377455762777127 3.485306963495087 12.652552711917052 -0.9695930840278979 0.6435149824803433 -0.4443683873507314
Ni 3.461689430075096 8.647832091586801 7.91999962036059 0.94495188844045 0.058484626499454115 -0.7203315745197659
Ni 5.775370074904751 8.242637524384303 3.0867460643148728 0.1475862065538168 -0.03416301903495406 0.008603168287978732
Ni 3.2180300509749418 8.275241374491085 3.4740417460314963 -0.9843453026364082 0.43797533934019406 0.4424817118509799
Ni 3.7672606161359052 4.452141771283164 9.439599429112885 0.6882758316358017 0.03180043234004846 -0.5626987823632245
Ni 7.358855584698447 6.098267462237051 11.329544741490823 0.7636420643819428 0.34031070020716875 0.08719639261184983
Ni 8.02572768776215 0.19638152027594952 2.039338502574 1.1414255647235891 -0.774155305208441 0.3283183037319829
Ni 4.3953558977517515 0.3001502610807545 1.2758002176187289 0.7045421728959931 -0.20663056221148282 0.8733356096550443
Ni 6.015050709939935 5.573182501790742 0.28599157710950235 0.32964036497751614 1.5103349025040569 -0.2908640155402668
Ni 8.274503895614053 9.061585055633863 11.324548094482 1.5488726535679391 1.7321501428757782 0.15361364369481934
Ni 8.786769470148508 4.962841341288614 5.594573031095649 0.35563807459285846 0.18984048723733757 0.17961495285458742
Ni 7.228977360243485 6.206221623285946 2.5257504348958855 -0.05928526802387855 -0.3113050570034381 -1.6608855910028362
P 8.657783504087979 1.8274544479286527 3.5670678778608784 -0.2607995920547186 -0.14403911263250677 0.283382362451241
P 1.7271482159748972 3.531413050325787 1.4944681674650155 0.12793037999610224 -0.6132029617603634 0.4325593105309454
P 5.09916567740948 1.147398771853328 8.110849138591055 -1.5600636371877519 -0.8857848911619906 0.10587777107143702
P 8.789937897916495 1.8275363900261004 12.577649440639904 -0.2604175261249515 1.3598217521114322 -1.3138267734385567
P 6.741959056400485 7.77101523018402 0.927844026419105 -1.7306187938329163 0.06423952670536033 1.1681832924334075
P 1.944567914536727 3.1475234284597486 5.9169195854395475 0.32468790606824727 0.7051607803165985 0.9531110272124746
P 6.729758788558238 3.982185633064321 6.050948632364122 0.5989549364817813 -1.1021131402772115 0.4879971797842757
P 2.8462860688861853 8.937251579772877 9.917350081734524 0.2577664616553496 -0.20444075364901568 2.533257294082715
