# total energy = -340861.8119512803 ev
CRYSTAL
PRIMVEC
9.35845514360148 0.00000000000000 0.00000000000000
0.00000000000000 9.35845514360148 0.00000000000000
0.00000000000000 0.00000000000000 13.69704506980466
PRIMCOORD
 96 1
Ni 2.112306238316124 5.751463128101393 13.074801370561037 -0.7633769836460144 0.10836351360776822 0.8272637549976463
Ni 4.288343555236891 4.947375315356957 13.260451593473714 0.7331048150250342 1.5566978060393126 2.0470562869669133
Ni 6.082378097185125 7.332770629262231 6.3966705784836035 -2.0703108866194793 1.362336805223802 1.4739399088147904
Ni 7.348904605696064 7.729194783402131 9.195524306334384 2.1294951102891195 -1.1214115834955074 -0.6484674413896122
Ni 6.023223303079405 2.7847860982827184 5.429399385764251 1.8879029444007873 -1.1646945625538587 -0.4453621187225685
Ni 5.426696663957934 0.26948700625656236 13.676047478543055 -0.16422767176523975 0.8095637666147218 -0.5436733903006572
Ni 2.0006411531603807 4.064592254450044 9.913880248595815 0.04694371573939012 -1.1660891289085402 -0.901829603329679
Ni 8.752523121619548 8.449543140734768 4.963767585149011 0.2967502991177147 -0.4665030144662417 0.9520509613790766
Ni 4.492994249352363 9.039528219805632 10.294191950748399 1.011748120129393 -0.7503484325968303 -2.641562700759038
Ni 8.514827722870745 8.381132834626113 7.239367633209146 0.270227827347154 -0.09415148377344429 0.10370647445173109
Ni 7.987665952268747 6.353529972587614 6.082035577731831 2.5033515076622175 -0.33112723393568777 0.09949989256955123
Ni 3.602686990618999 0.40652379878455974 12.025649311594478 -1.4917532828471276 0.7045532286395866 2.043496851750429
Ni 3.7547899598644148 5.283353208600029 11.179486820979465 -1.4072138682421507 0.7453859463852324 -1.5592174871373727
Ni 1.1747668571572634 2.1996019066309724 2.6926474295012177 0.08018499429102319 -1.249548423075461 -1.5931521922116048
Ni 2.1129145378916454 5.219622129995384 3.76365990352102 0.5722622576819435 -1.1971156591970415 0.8754272020767505
Ni 4.3642499838069755 3.979757859802306 4.80966284237738 -2.87796869446074 1.5674470741360167 -0.5867044012492025
Ni -0.12168143955083154 0.5678092840838485 10.831513260107108 0.7453365812045357 -1.6569754573151527 -0.8640068760549506
Ni 8.915949821424674 4.794252274515666 10.150701567646868 -0.9784078541060504 -1.6948449786674167 1.7239573226523404
Ni 1.4592826063112114 1.6042918666605446 12.506278972205576 -1.8849338344701345 -0.1212210862967267 -2.6344929383964497
Ni 3.2195892764105256 2.626253870446791 12.994838051744976 1.7024302472138422 1.882591816600519 1.0325210910106863
Ni 7.286867407447873 2.8896756620126527 2.9744501625483393 0.27083280792100456 0.4772890493381522 -0.6019163331029505
Ni 7.756493396660536 4.416339144381638 12.844061175574195 -0.05124002912189885 -0.6464193006113319 -0.13557452680492135
Ni 8.842298780511523 8.429665782297725 2.0573646206550165 0.6535510265601067 -0.11765445199139092 -0.22687954226850604
Ni 3.7587392278778013 1.5365272939474421 5.870498932421456 -0.20286081075640547 0.37493883180399945 -0.14837527811401544
P 2.2524678189713008 3.071847347198849 4.418324072688839 2.0791580525974642 -1.1446962650550607 -0.4051444088531022
P 7.142812709509358 7.112322863093215 2.475384345571433 -0.3261140969918126 -0.7336588877562913 -0.9560096889165084
P 3.5336496680248057 3.629751642502205 1.314662657690212 4.134996199522066 -1.1695032967964119 -0.920132515403925
P 5.922891306938379 9.346242224238612 8.245799280909576 -0.9223598620725469 -1.2621267739611037 0.9465683409979504
P 1.2497842325015842 6.702675212026977 1.376457471953696 -0.7650705692983534 -0.4647145551072513 0.7811484486968224
P 6.366996789344162 6.009120111382312 12.929010679218534 -0.3762104994275714 0.5064093637428763 0.4577849178669536
P 1.2918504877626524 -0.44839726987246276 7.499720787377877 0.7018900799851266 1.0202389312092235 0.8421609838244528
P 1.5878584196664542 5.17696629206881 7.653073110366863 1.0356038437010682 -0.5106136316322109 3.9343812473770434
Ni 5.931557236275808 5.409355446828065 10.670820165009827 1.04824004440784 2.0193955878268515 1.923598598030184
Ni 7.90012696412369 1.1450818378718108 7.809794477158738 0.5170611870297676 -0.5657936192384643 0.8546161788686701
Ni 5.324099921704965 7.135241719407866 8.990260633415888 -2.385956994200433 -1.1976067399008472 -1.0537236932302303
Ni 5.0509172615657345 7.544683484463929 1.1582604142141104 1.7404242099591125 -1.268656861770138 -0.023718940883494636
Ni 6.115563178643578 5.006689203197813 6.046711153458544 -0.8866153574830861 0.6570294720270105 1.8166273367842523
Ni 6.893138488350283 0.12305058151850547 10.386989454762464 -0.5554287310643724 2.296761568880683 1.2435055593154907
Ni 2.0215479416483064 8.793288551634502 9.88347275658374 -0.2299000742623847 -0.10990206173948168 -0.6859261004567025
Ni 8.455794588680128 6.140138481494649 0.46475959260849203 0.6357584784633761 0.49209731799557827 1.3293580363049364
Ni 7.490142408677164 8.104422036948856 -0.39073702103152397 -0.44655356792750833 0.39325254251152275 -0.5907788284288923
Ni 0.6053656998765499 7.916466826567701 12.954418884565317 -0.6897680999106122 -0.22853019049805157 -1.193443352551777
Ni 6.381371376236486 4.998725157985984 1.660013043623821 0.9270366987229262 -0.22845357162384525 -1.3300609759092321
Ni 4.75245741444983 7.422527571244189 12.279401011600546 0.76458797323498 -0.09905174928853909 0.10596056059323042
Ni 8.462673053111027 2.5017864188400702 11.7176578780529 0.03934559167715805 0.8914480029850389 0.45148520090117084
Ni 7.475290540579429 4.884009216497624 4.277559807531145 -1.1276714483622903 -0.05635523886127713 -0.30117696743050065
Ni 6.682170837104397 8.092209253163386 4.310213328745143 -0.07354846281111205 0.040259104630362925 -0.8384742790014851
Ni 4.505085373222729 8.675194207888245 4.851027213512846 -0.23475945923721506 -0.13725705671366684 -0.1097537090870755
Ni 6.5260156568405066 3.3311046262861406 10.29830124834242 -0.13884856957050282 -1.9135543264203043 0.4543278125562885
Ni 5.557209677499838 3.183184886429312 13.339688696181156 -1.8076127919904676 1.4223059866885825 -1.571610975705719
Ni 4.624302731569949 1.7759820822377543 8.827827801532615 0.662797227748723 -1.02942136903944 -1.2768378549190331
Ni 7.849647457810408 1.1343476899776073 4.495246829472794 0.3096266408597506 0.6417779451845786 -0.7876260860013661
Ni 1.3373232206466417 6.954876216038218 6.733659184867544 -0.1705459006737837 0.3194737088571595 -1.9530708964576882
Ni 2.113532195922175 0.7682758129652315 0.8969171355055306 -0.08563907542705895 0.6458588001221716 0.568598178566795
Ni 2.8304834340869003 6.654759922385893 8.986850412410964 0.28569455552418543 -0.9700607676929358 -0.5201017736283042
Ni 3.1962305727104976 1.0906156297251106 3.390087224819713 1.0859537569085296 1.7251647126968803 0.7031015837947246
P 6.759827296760981 5.280667332012725 8.691569632461286 0.5445979589974557 0.5896264599920039 -0.49374950888702057
P 0.2371142386928054 5.435465536300452 4.895529474612503 -1.284157528508898 0.29023486659670017 0.8140958501571205
P 3.691058881259771 6.485137925365457 4.543775097916903 -0.8810116381430634 0.84696611852258 1.453972207443612
P 2.7239280653655378 7.660831269568515 11.661937636935125 -0.14977575800596787 -0.17507772710586622 0.3909418921004751
P 8.142052384536122 2.544900821062037 6.206802499898808 0.16125341962826423 0.9806274874651886 -0.3512312037744144
P 8.207589644957315 2.238280401179136 9.542471244692363 0.9026060764843874 0.37250116889678425 1.1530893742147623
P 8.551812337062456 7.51815226451618 10.976948330159306 0.9893090743995864 0.643754352184659 0.7807712678630617
P 8.87423918745391 3.2408610446437645 1.4045085049947472 -0.21764388260285097 0.7797122304709281 0.686504598667992
Ni 3.423706538590539 5.845992882137445 1.870824408671074 -0.24462041119169484 0.16983061977431396 -1.000894722354657
Ni 7.245016396651988 2.173781929263834 0.27120241105953313 4.216208863746655 -2.413958107399049 1.4157833550787167
Ni 3.892490266852481 5.682322862502112 6.944128030461502 -0.5869093181711569 0.5903715656881446 -1.1617614480674636
Ni 4.673153866711834 4.461418822155289 8.877451945058164 -0.08126537183939553 0.9002540313124431 0.8598954249897385
Ni 9.046771663981842 5.1776026670093565 2.7099465335835498 0.5939857654019641 0.6094558360131052 -2.22133105855551
Ni 2.180360923134475 8.666706089195968 5.33845017661427 0.10446983498031685 0.7523790898736139 0.16118425695322564
Ni 5.2210352567015965 6.099373051479697 3.2424051897200883 1.492917735468874 0.4662060520511132 1.1895190777967064
Ni 1.4355027721358222 6.119325277556803 10.790874169234762 -1.5351079956836788 1.3231753045329921 0.775209200394252
Ni 0.07042237393538123 3.3342116333488043 4.2503164091572865 -1.9052578907394668 -0.11766216530087478 1.1218571556733583
Ni 0.8654362287040384 7.198008877146684 3.8783589997903647 -0.12984508052031185 -0.3885613076834405 -1.0886133060185639
Ni 1.7134114520541055 4.230592529382375 1.5528886808379707 -3.9989082234158357 0.8945983756885625 -0.6523323236616572
Ni 1.3103989455885563 3.8382767369909976 6.193968314700804 -0.5583441049389546 -1.0659765424556544 -0.6247230465848209
Ni 6.6829195135050385 9.691709590859821 2.2244963327978176 0.26922509711425247 -1.1072859427274027 -0.5588940639051536
Ni 2.681225435163924 7.9455061124576 0.34496107420527494 1.5034597726507786 -0.21081451838584336 -0.5085261529755629
Ni 5.358922732789823 2.24205185854737 1.6921602724218845 -2.317960828666118 0.11958020825919405 1.0031212976923305
Ni 6.298071768210064 0.5901787990895284 6.22299169121719 -1.0206382235301712 -1.41809760503419 -0.5083580028288148
Ni 2.6721009415311006 8.29958325768619 2.890336368936219 -0.9775413923406971 -2.3066261203795886 0.2673723601762298
Ni 0.4830928059692112 1.0884725435282732 6.078214520552056 0.3371361591339291 0.6721457588431585 0.5288939179986376
Ni 6.600434091064314 3.188219735223629 7.755280540891497 -0.4889867973910546 -0.026708362529121746 0.3357732173481314
Ni 8.671740937990284 4.559972711844791 7.83847627006733 -0.7401781769320479 -1.978566212515315 -1.9072576947783153
Ni 0.01060032198758888 6.438355008780345 8.673133476095478 0.9499321152638607 2.674220081782743 0.7375263411314975
Ni 2.3592009983378155 2.280674202365485 7.799754726626131 -0.19624176277799105 -0.07869169757494834 0.271543460834784
Ni 3.7347441492372275 8.328220130010745 7.424661298986019 0.16247777895366855 0.7792309199591354 -0.14682464579744392
Ni 4.032127774027209 2.933491948360221 10.606292681883998 -0.6501381442238158 -0.5350118579709173 1.943633662304188
P 4.044799122108073 -0.1191350039431482 1.7554402734951415 1.1384294582097425 1.9228522067824625 -1.5064720771145412
P 1.2666013761510035 4.014655538527228 12.098476808466922 -0.41351900607004266 -0.6910073716343519 -1.0320935165549645
P 9.381944730094224 0.5639545364660433 13.59786413786952 -1.121436523196172 -0.4565569589971234 0.6943076396521785
P 5.642671088633113 1.3426856153662392 3.7792744857019085 -0.7178494315278605 0.018285171462433022 1.2732015437180266
P 1.7579951317123321 1.5782753617382377 9.789880719739497 0.2987575593557306 0.679732570051481 1.099235047398468
P 6.280019308499585 1.7037160926657924 12.021471697278894 0.057758546966706986 -0.9551614819836002 -1.012238172391934
P 0.7934921699843525 0.3603613477664794 3.9533099301041292 0.5447134015293973 -0.13384443148769207 -1.3947121362307142
P 4.244349458244171 3.3416516050801834 7.217109483818062 0.19269955395268748 -0.808710160365175 -2.3307556664379407
