# total energy = -381176.31407926 ev
CRYSTAL
PRIMVEC
9.17424920285702 0.00000000000000 0.00000000000000
0.00000000000000 9.17424920285702 0.00000000000000
0.00000000000000 0.00000000000000 13.42744105571035
PRIMCOORD
 96 1
Ni 8.359254545413702 9.229019217210737 5.537395934103226 -0.13944635105550177 0.44636304918325703 1.4500625879765607
Ni 0.9814795012730391 8.438575101843819 3.7528623122801545 -0.5469268642409484 0.3226425935034444 0.2631606360877274
Ni 6.457295124142646 4.726040953102353 6.376087424703314 -0.7033787487155112 0.5259266078401975 0.7012473041948052
Ni 8.950470670561282 4.697903531569717 6.127209316586202 0.059551377201071634 0.662191218733608 0.2909542612612279
Ni -0.285172354392058 -0.27449995058739063 10.797542395208454 -0.27507281414428114 -1.0595806662316396 0.8964817087542044
Ni 3.069556911012493 2.6944860911498463 3.123141864285339 0.11281460740058635 0.9214998280650968 1.297325947570056
Ni 5.200175313137611 5.365238400263524 10.682804650703106 0.022995175343592657 1.5641650609506352 -0.6038688288436309
Ni 0.14377149016049476 6.182838292525326 3.6969636134218735 -0.527337115034479 -1.0111349120254265 0.9654047569781633
Ni 8.010724827766222 2.596826211066734 11.797094249490018 0.8824709962974091 -1.044649241732788 2.664026943299825
Ni 3.8523955739990554 4.95927788418295 7.0465461251649275 1.0219502574733754 -0.04053215578609149 -0.0319428714551837
Ni 2.623477404269312 1.3884858817340242 11.796731866656453 -0.06856257956074643 -0.5198264084797305 2.02602697710044
Ni 8.853324548419424 2.3587819735358266 5.896150352206566 -0.862783802281127 -0.2937233393659328 -1.350905937679041
Ni 0.3964605812918412 4.6906191779026445 11.869522192683265 0.35052055086063505 -0.14891418133662096 0.6292672143120775
Ni 7.936477631005994 5.360220086087342 8.328074942928923 -0.7017574110620043 -0.6141691823283745 0.02791266724986806
Ni 6.285351350303503 1.7870794759069666 5.697478321473656 0.2113158835022941 0.37821210323863247 0.00083303742425663
Ni 8.799866199782103 6.863411602455387 12.515784728961583 1.0056029264636035 2.042735290994056 0.341822765976321
Ni 7.359977001175775 4.959589808647284 12.963294501116222 -0.329633937219613 0.26616471302137384 0.9192891935670232
Ni 1.7739694741560257 8.92623230483281 6.031015481485456 1.2582387517606073 -1.0669242510809045 0.7481012884338665
Ni 5.704703959947443 8.665307490418176 4.898559034925828 -0.15215351420952505 0.2636085222584234 -0.3752792458625537
Ni 4.937966103869839 6.419671529194704 5.367068662929244 1.7055484811278496 -0.8513300519182305 -1.2667251919650635
Ni 3.356527418198942 5.882977965562758 9.240791613464628 0.47270811483568914 0.6080779818289721 -1.8740554969947336
Ni 1.9890505665626468 2.4140751719633435 6.4743225301956535 0.7980061436841095 -0.2514878277354895 1.3389575070679132
Ni 4.169714496715325 3.140317893171351 11.52696124140329 -0.31753792528702734 0.28521684455681845 0.2386125144347181
Ni 8.19118230463187 3.5703791612461324 9.862240558605246 -0.40187602251447563 2.3037608830166514 -0.608619713265055
P 5.3021012189829255 1.8692532237608355 3.7780382862514155 -0.149446142580691 -0.11700524844316623 -1.124479938008186
Ni 1.9279317200512618 6.849613532033123 2.5121396364251933 1.6975865459682957 -1.0190351407091096 -0.498667000793296
P 5.51137501180358 5.651841937491935 8.422469707810384 0.8142323757349847 0.15849539726715284 -0.4877213004150697
Ni 7.217133945009118 2.924154239388515 7.564147159305003 -0.09959759448968009 -0.9321200267831043 1.3706368404490652
P 3.976862609516912 7.2134183741839735 11.208489115593883 0.12522557947042948 0.645645912780417 1.2082850455502996
P 1.7373275238458379 4.9431312060292365 7.413585807495893 -1.3777400271527498 -0.2066174495853603 0.409102879280218
P 6.253746062667399 3.7212496852448904 11.238888906917829 1.1688517792553417 -1.2476833448422642 0.624153547234596
Ni 4.562748496023977 3.802817932667995 5.164744363688952 0.0824215969310258 -1.2694058241210202 -0.4554102469871899
Ni 7.716543360904308 8.216026170791105 3.582306602307293 0.1331494623031965 -0.6638138419386955 -0.8915274500727227
Ni 0.38306984752300033 3.029630579577857 8.039088853247947 0.5318859107474259 2.4464424531799995 -0.3568205249367339
Ni 3.775616284528359 2.8253292296886294 0.9241707203509935 -0.8400310819656437 -1.7630481180062154 -2.367390029831523
Ni 0.03696763614794742 3.525168462415735 0.5891500842838213 2.2348692022512604 -0.924867201875433 -3.5859718293221405
Ni 7.159978374044554 0.1619475121821633 12.39050668983646 0.6360186741032982 0.36244301332983386 -2.174402512324771
Ni 7.668259288675334 5.932491387151163 10.86116122455898 -0.21268216772220144 -0.3094546340582606 -2.3690604755554103
Ni 3.9387894763703724 7.463379961102196 0.1886097144834823 0.47480279258118874 0.5700883899590763 -0.33019906569446356
Ni 1.6023743217770188 3.04992401825741 10.584663122550067 -0.48448042488026877 -0.2647426358628666 1.602877904139801
Ni 3.7969280648414703 7.483911930254475 6.890600406646492 -0.01371477848293122 1.5436615416806447 1.0054193496978878
Ni 6.033820966814664 3.042208474889641 -0.023706259289315332 -0.43442721697761955 -0.165795787583308 -0.011112307863077635
Ni 6.942979863607179 6.148141282992744 2.9118479018456793 -0.6904491851380367 -0.7246008913190811 -1.6785328717709544
Ni 0.5638860375226307 0.6549257795627205 7.750520191894237 -0.4826446572231107 -0.6879945529499571 -0.8985568461156783
Ni 5.521806132860837 0.0740563723820477 7.225104532497724 -0.3053591238326483 0.3395249710810798 0.7237763385352567
Ni 7.555195844603538 1.5222831284350207 0.8264411159758539 0.525337825216263 0.07712949529415104 0.724232709346385
Ni 1.0482129881424198 1.7199239735858411 2.151156793251662 -0.2653684423723236 0.1085272928791421 -0.46156572506562443
Ni 4.835746622058093 0.12593308050022203 11.240244860912783 0.6784745292746637 -0.21945676744187365 1.3590396225297692
Ni 0.43395298447978425 0.9908005382072281 -0.4911810320110614 -0.4962146825980615 0.01846694845593594 -0.10746774126637619
Ni 6.100086566987545 7.140822542234922 12.276413895032364 -0.46907977405448253 0.09542443694859695 0.0033095239892072035
Ni 7.71618556519522 1.325706496162513 3.572478229406115 -0.10371907285722137 1.7376188792998333 -0.48029466893369543
Ni 3.728616607152522 1.5538700675732222 9.816291332734295 0.5548546037284574 0.21022393598969602 -1.931042970123371
Ni 3.149978377316726 0.40853664518600746 2.9536338535426783 0.44075753007102153 -1.5854617655458825 -0.4270378664920839
Ni 1.746951310995409 7.254665797467551 8.029300847042153 0.5500278717637753 -0.376413616577313 0.030448546297844332
Ni 0.9024635299080952 5.1273042537200295 9.560176577044654 0.059808744627516355 -0.25325777515171866 -1.1457979827596718
Ni 8.787251607474515 7.5869112232270535 8.442220948376935 -1.1490558275753373 1.1362357929925335 1.147867720804507
P 8.799912071026858 9.287734410496968 1.882835699332752 -0.2608080766951508 -0.9599655882404627 0.3188245053089348
Ni 5.333844120353294 0.6125811161046075 0.25227991962813295 -0.08885321148898247 0.6251673332110911 -0.4015322660218117
P 0.7148317903627868 7.017658250068103 10.313993420899708 -0.20122944580056956 1.5898012734615008 1.1921434027934306
Ni 1.4470267642901857 8.443923688982236 0.9216835814603845 -0.4163513333125152 0.4687650710275411 1.1342604144337174
P 7.492535724268389 6.1339211971187355 4.921358878418787 -0.3844151467255509 0.13169653190675382 2.009740324125274
P 7.495939370629201 0.5295605850725636 8.040083341834231 0.5936391806958228 -0.016612925966332678 0.14140938831914357
P 3.285381117584143 7.434627864889845 4.306623648660491 -0.13990683563168807 1.7452260022231296 -0.07237372577672052
Ni 4.508959874424419 7.0647680184313515 2.4658821557894903 -0.15382575970562543 -0.11081891712679624 0.7015617501114305
Ni 2.0122522421596587 6.158177911345109 0.15395123679649486 -1.3299756152842772 -0.3145513318548776 -1.1657176045017343
Ni 2.8235402511431893 5.361293473214606 11.278916155090926 -1.3685552753296881 -0.5854461033620691 1.6007526302666817
Ni 6.9995666311367835 7.0883183154885 7.041511297340635 -2.0140919162257505 0.6526735090511598 -0.7110918010890527
Ni 1.5647415525801256 3.8855513097078735 4.742236254775506 0.9521574050499538 0.13370944857172457 0.23137974413170476
Ni 1.909216252191276 0.1462751426992154 9.808946429024145 0.1790156287076917 -1.1141939827011458 -0.6189141532125275
Ni 1.1079006518174528 4.292686129654172 2.416133873427942 -0.6733711466098274 0.4224559035483563 0.3430185860566351
Ni 3.4369672330010768 5.299871876487839 3.923377655557632 -0.6462164405719064 -0.708466961871696 -0.8693210891790125
Ni 7.207776211079126 8.013578019189975 0.8271236800978063 0.08927795773122688 -0.4941277181620458 1.1574206546002648
Ni 5.135478509535346 3.412719693023654 9.132498778847337 0.8167471717370386 1.7382876232320839 0.5348889592398078
Ni 2.108159840693135 6.122068067474077 5.656349246001548 -0.7748975826911042 0.6589009780181104 -0.08240205654700002
Ni 2.732320693823661 3.5641039749636665 8.803433147774241 0.31964263033485596 0.25295695608184826 -0.8277494363848131
Ni -0.0014816412055822083 7.160941670184406 6.056017144726649 0.00013729690881266677 -0.40582035187420434 -0.15832878978230153
Ni 4.526005628975328 5.056873544523405 13.152030820235227 -0.5480044135758433 -0.5350098010883882 -1.0250615494088475
Ni 7.669470289536863 3.7380752578209755 1.942628866870721 -2.0683532486724765 0.7116913823462646 1.6875307043941903
Ni 6.775724130981983 3.952073788851382 4.16774295061576 1.2497083456920928 -0.6235534517567519 0.45341198561023843
Ni 4.348016025077493 8.08355001593905 9.292044472654135 -0.850443278437903 0.3244583065559444 -1.5926006905835088
Ni 3.834349826312491 1.383027203608195 5.333030364471342 -0.19338192473169277 -0.9516578397057159 -0.8918516661813608
Ni 4.2023289517360345 2.5142854932548264 7.316733261320467 1.3664971072490788 -0.8114175319940091 -0.5798590961925949
Ni 6.632972817304836 1.8409414914981317 10.013084477282046 -0.5841626086639552 -2.0351312533945527 -0.37366819262169193
Ni 9.000387759103528 6.18590249167495 1.2630362841535185 -0.13296845664064197 -0.6426338654269707 0.5282621979519095
Ni 9.244982410385433 1.6104660093517773 9.696787565898916 -0.9051093025222154 -0.7064309052782737 1.2745290042801984
Ni 2.004059637846439 8.29749350147575 12.143468936058913 0.21002184728121895 -1.0144616624058143 -1.6771565602487182
Ni 5.606062435226577 9.114753946526365 2.3966505209307596 0.5486304771956164 1.0776750618395055 1.3614911693940552
Ni 1.4323020947238734 1.3365137614267597 4.52479279326401 -0.6222532448880896 1.7811114032658293 -1.1012623622411422
P 2.336295889356991 3.935807845461306 12.954526671393776 -0.19994492266119113 -0.2085177519318667 0.010652080397207461
Ni 5.082332085362356 3.8337443258817263 2.485593947085552 1.2072146953042564 0.4418317369718068 0.33746088946319946
P 9.011506948832109 3.231840200706262 3.726612033756734 -1.381245726313163 -1.0733381250270482 0.21110376749148804
Ni 6.615119728846243 8.389768097424641 9.62515227781503 0.8183337994978681 0.24021996813115404 0.13522922765036063
P 5.75820817982952 5.929784983710626 1.0874429940816772 1.2369800994921472 0.5644455898510021 0.12186180520451916
P 3.216592598949744 0.6242947971652103 7.744961514454843 -0.455220499573887 -1.1640443305643695 0.08629727783634816
P 3.2662711570192653 0.41036415557704137 0.39797983691812233 -1.1337932449893118 0.6794574620132233 0.07267711594975226
Ni 3.039502071449104 4.900021410208613 1.7032039048726921 1.9298242672249217 -0.17177823041898801 -0.6111977584048763
