# total energy = -340886.54972388805 ev
CRYSTAL
PRIMVEC
9.11468630896060 0.00000000000000 0.00000000000000

0.00000000000000 9.11468630896060 0.00000000000000

0.00000000000000 0.00000000000000 13.34026473977860

PRIMCOORD
 96 1
Ni 6.827775087487434 2.310618563646718 11.642369348113501 -0.5981254986019506 0.6385918341471131 -1.142528825090097
Ni 4.783141300962819 0.734876144467756 5.885511572985517 -0.4309467146281869 -1.7058405584469718 1.3886309630336406
Ni 2.489448709871639 1.814934575769558 4.959669988883877 1.5310222556500794 0.6194242600797267 -2.823747214113014
Ni 3.862640011594775 4.880686674301203 5.0385247863889875 -1.5122519170211117 -0.8692316147889998 0.09712573591041983
Ni 3.7890844927346783 3.0144090703112076 2.389895371129924 -0.8160794562460526 -1.207621958045004 0.9683527838628936
Ni 4.810120772564539 4.972125207783792 2.6320078732276793 0.858747170317908 0.9949552169417704 0.23631163421568332
Ni 5.2641141850679585 3.167298819178528 0.419414115421457 1.2860079514540756 0.1400752428887523 0.25660123770265486
Ni 5.963739280069615 8.136762538547556 12.434874008509988 -1.0978237688732384 0.22390940389658856 0.5916856565138777
Ni 2.277796578093408 5.9974727342581176 11.368186822086471 2.5664618058591415 -0.09883834772615235 0.3748897237336189
Ni 0.7420439338149158 0.06453106790304886 -0.02018720733226071 -0.767819078577768 -0.166815487097074 1.3141340202663303
Ni 8.351695957412483 0.17143904706213875 6.8131268750512435 1.2407588498082889 -0.03875423795006229 1.3619578246178285
Ni 8.859639198432992 2.8523681763465465 1.3406436682290193 -0.8788303142210284 0.30330558373772926 0.19517064120099936
Ni 0.5697918567301847 0.21452690385363057 4.539465630155707 -0.4346814990802707 -0.2084215926736346 -0.2763195420671887
Ni 1.9900459299628905 6.645417557644315 0.4036420621580726 0.5811019674607605 1.7011611506934314 -1.6006621274354047
Ni 7.645945793182328 4.181426166753624 3.9546418326939143 0.5684531683484985 -0.19305745151273848 -1.7148209075687113
Ni 7.5427219702466894 4.496110713054104 13.002422740928962 0.42799431686808226 -0.7520990967393498 0.2875848305683628
Ni 8.392976371900387 7.602641918324295 9.071526489119103 -0.3637239369247865 -0.8047519470483754 -0.21514142789597143
Ni 7.080352160985844 1.0482436185903807 0.2125581316016131 -0.9197895302422094 -1.3478373260560466 3.0302983292368135
Ni 1.861592655205102 6.95003949021226 9.047634161784782 0.7732322791735393 -0.23660833952049573 0.7176517136947576
Ni 0.30870075471043523 5.442160468266614 1.246696773062378 -1.1641376616091241 -1.4067158455598094 0.679856754334171
Ni 6.812471529102539 2.1126384613963864 7.201875539710257 0.2017773478842396 0.4784455315400986 -0.625586937247013
Ni 3.4976332819452756 4.682378443342201 0.05554216422277275 -0.5701004741439343 -0.5179587591433725 0.736031501753526
Ni 5.883466237368142 6.010643456036661 5.207865632652911 0.6865544780693208 -0.6347696321875456 -2.5929325984561604
Ni 5.769879016050357 2.9719346319112008 9.314479365298507 0.2823636913787395 1.0435033010538028 0.894847258474575
P 0.33537123844482564 6.171089279889734 12.254140715774783 -0.17573901483894896 -0.6412776085093923 1.6069698148209872
P 4.0724509767299155 6.68868497375694 12.857467326531 -0.21443334608535325 0.2990069563623754 -1.1276189978578
P 2.406505064069051 8.925884738838839 1.4052367159992614 1.3520120262590263 0.7980195134205482 -0.19574888230197257
P 6.613488811353494 8.496446291367526 5.975478084622269 -2.370487437809924 -3.2634518774394894 1.5037695905817134
P 5.151356400208198 1.243443741503373 12.644236531076613 -1.5185403211329846 -0.26396950514226797 0.16401581286474978
P 4.45261542978268 6.331279892524952 8.345509819785425 -1.4965535324492485 0.5761410239110593 -0.44811217066387987
P 4.690417596704606 1.616179725179312 3.9600842119146535 -0.5239633134662396 -0.5936201545324292 -2.204213939259249
P 0.22116057258056723 6.013851825632541 3.4723646369718124 0.005612718201087108 0.04571884219335352 0.6176759099300523
Ni 0.7911119363219109 7.830636682731542 2.184615316580329 0.3944105673753659 -1.4086009783976643 1.241376943008262
Ni 1.9171284391474284 6.972917352955612 4.8865656469982 0.0012922364488622906 -0.4544393984334883 -0.6172866449114337
Ni 6.291858874052843 5.9903085907854985 9.344615252783903 -0.7652142939650692 1.0194652862679927 0.6843181325396344
Ni 8.869082013493594 2.9518458631915405 10.29658955412517 -0.013567711382105664 -1.1065017562632107 0.6097121749982854
Ni 2.6156415424141484 5.550114813418905 7.161654251776448 -0.7154395365347872 -0.32348642956097834 -0.1795427048557553
Ni 0.9898549378198994 0.10131976495671992 8.813325654141552 -0.5582304621792257 0.9395515433604851 0.19826522096592306
Ni 1.7454168629633668 1.3739660500630504 11.66818305133081 -1.2604504146999453 1.6509169098258987 -1.3409020323887937
Ni 4.003680668204583 7.300453607012316 1.6754971924890554 0.4868216714189358 0.33523431412552585 0.09522054846790698
Ni 5.797368910087786 8.454710142562027 8.004372630754368 -0.3478167787762268 -0.14114867845858917 0.3794704011257658
Ni 7.310725858530944 0.8236495436610405 4.8288824429513575 -0.9333199606284764 2.342472697764553 -2.0116899916524775
Ni 0.8127438214409529 7.531811690683425 6.888112488199959 -0.16651261114467453 -0.28423288337699437 0.20449268993287364
Ni 5.495153254716751 4.606662743816696 7.282783876050459 -0.6899658177437149 -0.3156203965493403 0.42532165513192555
Ni 0.6841082529561257 7.962945469816198 11.154902249982609 1.1610294549974456 -0.046857840893803175 -0.6524781052109021
Ni 4.820648235301022 0.8781653942005856 10.209371120423523 0.4753560939814975 -1.8575808963784786 -0.1640592645081755
Ni 8.037066099230115 7.4192544289234075 4.803442441874478 0.9010217627164031 -0.2128073804461561 -0.0916189471595777
Ni 7.166567979188776 6.185900645211624 7.001944894580611 2.2000996599805593 1.7275183005307215 0.9272076770831515
Ni 2.359509741238486 5.929814417467721 2.5830492469569073 -0.6097707961503628 -1.7905033860036903 1.0540034292541784
Ni 3.947780296808179 4.513720287086037 9.658084811393667 -0.445091124449369 1.0545991538566484 -0.5239612565837105
Ni 1.326569681033 3.702294449291574 3.6857549394373565 -0.8869899672136853 0.740788299712221 0.24618826989944698
Ni 1.4116735075009963 1.4991380377341432 2.5657468378550337 0.39344588946925146 -0.21904847625986149 -0.4132192154414367
Ni 1.3412260966869078 3.5772044937976486 8.474029631753583 -0.9747394041155278 1.4320352981612048 -0.46095405962355457
Ni 5.193338645545201 2.985433482398413 5.463465136145621 1.1226997061793116 1.0996081144671708 -0.16698492279540272
Ni 4.255902268935267 7.152203233498129 6.279475661175107 -0.0614791903514038 0.9529827291647265 -0.35257589072776696
Ni 8.075129029435788 7.357639149184342 0.5777444205722461 0.7057950714664877 0.0977901089672961 -1.1866620679638855
P 0.254760040879697 5.67968007991163 7.994633588387328 0.42749963661985085 0.732694209850177 0.0008191534671856861
P 8.796784321350064 1.883577278685964 8.18586699979996 0.9690639509973054 0.5242654180876907 0.3012245328389844
P 2.1433822984614554 3.6348548849736235 10.552709506208574 -0.25135335904015416 0.6167631683077958 1.0878309193265847
P 3.956913212532816 6.6956668235025205 3.93052254966943 1.0606541018014766 -0.591831952283755 -0.22801031343883957
P 6.949465264972089 4.182036850739204 10.618063630289202 1.027781776553488 1.4727098930624314 0.6010665835081455
P 6.570184936495462 8.039299197386338 10.261638377840047 -0.1460042067786776 0.2940149024644227 0.031182082029759202
P 2.2523028003670524 9.003423375634732 5.748453122842868 0.6986340349416741 -1.0236674972747986 1.9652826080325314
P 6.860460352745465 4.251873577567713 1.7599274436356438 -0.7538595310738824 0.2829326765083321 -0.19000400939839535
Ni 3.052508459262286 2.066891850596036 0.2965864250800814 -0.2562538816655651 -0.8348495377647043 0.11030829603896487
Ni 1.8299829229365991 1.801955262404406 7.101409820864713 -1.6330132900726004 -2.0565925085921224 0.788367592153081
Ni 7.222213139367326 0.8678712674347127 9.39780309352197 0.48030932422171474 0.1194717077057878 -0.1825519239957243
Ni 2.7002167170737326 1.91095779648717 9.505351835131602 0.9659475168555107 -0.8895497575210616 -1.4423924730258126
Ni 6.378065577569423 2.041425416928736 2.5435352586840083 0.22402613198011095 0.907255916551573 0.34956410048463665
Ni 4.287202101867804 7.5006759221052235 10.605550988865268 0.45253755342508517 -0.9097216044832461 -0.6500795230717384
Ni 7.439388771074827 6.320807117906581 11.56542225446185 0.4291209742733577 1.0236924369754627 -0.9312085707124285
Ni 7.6535383269134885 4.361368304713481 8.507434045764782 1.6195381384043013 -1.4902437881811366 -0.3378411556207536
Ni 3.0608483972743046 8.839103810082088 12.486594384745395 1.7465102682521922 -1.4283776468039595 0.6988615775714481
Ni 9.712609776619566 5.210784155222799 10.15066069122482 -2.042933265937475 -0.11457709861764782 -0.10932716307261815
Ni 8.893682551957461 2.453673565940303 5.8131008587312225 0.43281256419233205 1.0844856570034356 -0.513436960013619
Ni 4.146854161420743 2.719330214353736 11.383581527334885 -0.4368239993445703 1.5837504392817305 0.8449902257431319
Ni 1.2365348092486081 3.798427046245409 12.571211486962198 -0.8486635608296609 -0.004621815042727524 0.12023815355816711
Ni 3.189392818895613 8.536505337884272 7.869969288746037 0.16586469314803046 1.0539149833054302 0.08751160985942348
Ni 5.770416782545121 8.2447259983862 3.7362083742698458 -0.25237357277455247 0.011915263380347221 0.5008637513342987
Ni 3.315740601106105 8.729536165445504 3.7383421223448328 -0.8213533030504822 1.269011159785763 -0.10974213912284972
Ni 3.584733224724345 3.2011781083486617 7.290908707464571 0.5480450370057915 0.6529923258431594 0.3687612422383778
Ni 5.352098252423166 5.1764400170487175 11.761977731235376 -0.7938766948967683 -0.6470170820963308 -0.031050184437585233
Ni 8.290007760182602 9.275560566044389 2.2739547377960685 -1.8219595476304427 1.2851648867274899 0.525382048190637
Ni 4.746463803082641 0.3843681463982755 1.7948521873303447 -0.40794048354100065 2.092785927793544 -0.8352048642215939
Ni 5.889472815674066 6.111688868934188 0.7189664594404573 0.2174047700088514 -0.3075008527659995 -0.7350136020119727
Ni 7.992686691382554 9.247487332080436 11.617916467568538 0.17203842605891018 -0.6883647918051822 -0.7145229382577888
Ni 0.0628986275774177 5.27449581282281 5.696599672186723 0.6980863899683203 -0.5696561875176641 0.020213241723081317
Ni 7.0469286061333065 6.306314766607008 2.8786695152836836 0.7588037624530352 -0.16441921895075556 -0.6250642319743235
P 8.386422912413346 2.101418282497157 3.4792343760752638 2.014030723970512 -0.4464558660073795 -0.27828566465462395
P 1.7924759885983956 3.619715390943063 1.5254594289812546 1.2670712624505727 0.22510676663879944 -0.8260669064760677
P 4.858255431189096 1.6464769426131365 8.10577169348235 -1.225143254758219 -2.5484304022787274 -1.4147819103973958
P 8.749369722947309 1.9244110735426225 12.670770294515725 2.0483696064616983 1.0715288397324514 -1.2173494697454132
P 6.4287341189998175 8.187513112155118 1.569828810673828 -0.22154527453978617 -0.3487261779643736 0.4311454609025543
P 2.0113287225946537 3.75462186363802 5.801960889071889 -0.48009720821090873 0.40047631395347155 0.792000560919978
P 7.222121992503806 4.054075769044419 5.958829198531829 -0.9796849210462613 0.20620298775576099 1.867243873389539
P 2.703160760765407 -0.1839917931060206 10.225153199841895 -0.9727288014434021 0.01071635797623961 -0.08069304427569328
