# total energy = -381162.69564790966 ev
CRYSTAL
PRIMVEC
9.28927157101253 0.00000000000000 0.00000000000000

0.00000000000000 9.28927157101253 0.00000000000000

0.00000000000000 0.00000000000000 13.59578791813909

PRIMCOORD
 96 1
Ni 3.3079467162139444 5.253937611250863 3.8630122681667967 -0.4822363660410985 2.1775878520312886 2.1016212666969873
Ni 6.277448116850028 3.5911673130919555 0.10831104711463885 -2.3094239948396997 0.3941025492166439 1.4249912468302297
Ni 7.763685100598175 3.1196160270767224 12.16938589545362 2.4545146886651725 0.5427153972627621 -1.0086995631110562
Ni 6.177384084918186 2.579184793347545 9.506963656457314 -0.6651572433404673 -1.2226428569338685 0.4013785140527668
Ni 2.924847872832856 0.2951554528217561 10.375163117173335 0.8887920534194306 3.1353754587838263 -0.3632176867123293
Ni 4.218527548939418 4.18240157231642 7.967579964030032 -1.021283313313338 -0.3867072851938372 0.5259821436684812
Ni 0.9400835588130643 6.142855862982551 11.18177377932722 -0.9776588917551678 -0.4863773847926656 1.2093235141171432
Ni 0.8230749668508778 0.1071461724762938 0.6302937877676335 -1.9843033721094085 -0.2610361335455569 -0.5493244179388476
Ni 0.7182325336912472 5.128699653721612 3.7269996846964255 -0.8690716921723678 1.6968923481147486 -0.5026455258250697
Ni 0.26935450140227124 3.5354409737344428 5.069733216486471 -0.4326734675113065 -2.0418734572143933 0.6948547704049001
Ni 5.5554116265048545 6.828171863332685 10.865018912557458 -2.2746035447264052 0.5261814041634809 -2.6796060286850047
Ni 3.4184240214279624 5.331215060344903 11.012397848559559 0.2318908794401684 0.3653840982360288 -0.32007946076195837
Ni 1.1153349537653598 4.80372378172908 0.9040820584273378 0.32261842513372824 -0.7376800931005425 1.3148238472445033
Ni 4.525184977655901 3.126582980655341 3.9698611839570694 0.4121722622341611 0.5165531370450974 1.13735242309548
Ni 6.461097013182419 7.817637189110998 4.4131656533831505 0.21213760807264112 0.7218652375554729 0.10950842584548882
Ni 1.7916868071776701 5.27664987991716 9.230152656871633 0.15764204812792207 1.064498158137915 -0.905828182966111
Ni 3.256465573903671 4.025069181968332 2.154524820624992 -2.5429248990794657 -2.369916138687486 -2.75114928814063
Ni 1.3116544163393986 8.479395597093962 11.659489425868815 -1.7089307673365215 1.1940596459795372 1.2813455129813995
Ni 1.6131934564934574 1.5172724396230342 3.9445999392081412 0.6305473665760818 0.1793948664239814 0.7380562454930385
Ni 9.14829745481287 2.1758167596883946 2.233176152964735 -0.4482602662059699 -1.1364751626968492 -0.8288557820751145
Ni 4.13034449517698 6.340717344615324 8.732805992999777 0.1519992480198479 1.3921646872185123 -0.6514098118473878
Ni 4.8917582071485075 0.9500788148805227 6.362801658532402 0.8016069736614904 -0.6258862136549866 -0.02767509731776524
Ni 4.098918889901691 4.781308769748804 13.14304831266134 1.083130942747754 0.4004356905235233 1.251410158874548
Ni 7.113361785755584 7.419582618714475 9.365077466656595 0.31371983709251783 0.2704515133221858 -1.1188767328887956
P 2.5945678268491355 5.621774181659058 6.48574795279786 1.0552635269135244 0.2818132181919082 0.024461475476474002
Ni 6.875881561439066 0.47455079176261417 8.19108169268641 -1.1930371182522936 0.5753542663437059 -0.4433070359657527
P 4.093466087567492 7.004733045557761 12.509049034517025 -1.3594944506790005 -0.7360263595472033 0.903232911435109
Ni 5.2134921234091225 4.648778734140598 2.103444974840847 2.675364479799831 -1.1971650243777383 -3.2091630341889377
P 8.482340296139858 0.9850343433023125 12.111536028645347 0.14622403609896753 -0.3910131116580427 0.016677717765997087
P 7.6151775181163375 4.9753895179062475 3.1076161462329095 0.2419420930285833 0.006533173132827458 -0.8539816306084647
P 2.1830902592244725 3.3047604961106565 9.608537194997858 0.3177880936246204 -1.4684359482774259 0.5251655613044568
Ni 4.315721195996869 7.516701951600421 6.046386779097277 0.8544768250773283 0.07224851305276589 0.5047327473714017
Ni 1.239105206407382 6.920470064342226 0.12739492635719138 -0.30884862504314553 -0.039716087642699335 -1.1432245656055409
Ni 0.6304600657263766 6.740964183071253 5.978720010233156 -2.091998398895242 -3.673869618876389 3.6140960983621824
Ni 6.032034854725322 5.057265156362175 9.328627294460407 0.4238458419173475 1.1218504708051389 -3.0436495537327386
Ni 2.3214168002100886 7.4696517917661485 4.926854932496157 0.9483462588339798 0.3633835228662322 -1.7254863577023574
Ni 0.5437335697254424 8.945605552032253 5.558324742027861 -1.57344057271529 1.8906522250111502 0.10015192433125332
Ni 0.2015223835065513 8.988587010976612 3.1071953422367606 -0.07559968891318593 -0.4703622403113319 -0.7636518345739558
Ni 7.018546192186301 3.2893217269804373 4.46075087525226 -0.4938089013700463 1.0746843546422977 0.08816184184891268
Ni 3.706363568196557 6.38760029756371 1.4902211522679731 0.33864462535865547 0.5692268132897293 0.03706425184214907
Ni 8.260178080424863 1.3033683862165613 9.685176471144095 0.19550051373659233 0.5796868322807888 1.1624692727677657
Ni 8.70361074179679 6.741577274986172 1.9260338242791792 -0.8789167032872476 1.3731390380456288 1.1367608122580681
Ni 0.9790427632247004 1.8070884192221368 10.882816227705826 0.48569655667555706 -0.29306128030190176 0.18822763422426295
Ni 7.277763311668111 9.177632974014573 2.2432643017465748 -0.25851413845465154 -0.005753100433693318 1.3470749939687254
Ni 7.634480624164831 5.657621480138911 10.887765551528076 1.1797576275345683 0.10006656370629863 0.9553270610271869
Ni 7.673681349633859 1.6032167789688752 0.7040914757809387 -0.30516089177891315 1.6335215971675867 -1.1990756111368897
Ni 0.8996194924284464 4.461925039162043 7.2947793990885295 0.08732957575560445 -1.1877871827072641 -1.1530549214324013
Ni 0.9573151573308479 0.8423994382236785 8.462263393780567 1.3043936530501148 1.2602586104041136 -0.2969215345882564
Ni 2.1274568125813422 7.648321638607686 7.63498688945821 0.34310188979906076 -0.010977839167742384 0.3590303881038591
Ni 5.044445961777516 8.720870208128888 1.2438176538079595 0.10404817406186598 0.1388097459127674 0.6177707836367038
Ni 4.021994433122302 2.9392462435620015 10.877568718270409 -2.537919218334758 -1.2022228985166197 0.9162414078796349
Ni 8.302778679240257 2.0437790554664117 7.0766487271776946 1.7797114375945091 -1.1043751968385112 -1.087645542788656
Ni 9.092441065655223 3.824272290561101 10.328257869973497 1.0841403578488749 0.5287571353104571 -0.6491886358263529
Ni 2.8646812617279043 8.420176491675702 0.3933802090088426 1.6832780997654238 0.17257630084025116 -2.458203964591302
Ni 6.083803964450178 3.025720071379818 6.87465537760923 -0.228623007322174 -0.920962210394072 -0.30327215939663255
Ni 2.3405248315583806 1.8175760066758175 1.231069986613375 -0.046501743105965075 0.6252856039565102 1.423856104784522
P 0.08311389833863429 4.585147224789214 12.597734637864267 -0.2943707431419446 0.8961814039049661 -0.5991048317960843
Ni 6.983990102436353 8.842856920654784 11.120674525369877 3.015935632757238 0.08657649963966381 1.6816588189944457
P 4.345586203670548 1.377617532821761 0.44962488971260384 0.9707300258458186 -0.11308020235714719 -0.013995028727511382
Ni 6.357698132804279 6.727188193528464 1.714660168412461 0.05242556478956777 0.7744476396378791 -0.48676742114223265
P 4.066202075896497 8.611795582902033 8.548038668386233 -0.9815106614010901 -0.2704322300484762 -1.1749913164941763
P 3.9205184319318596 7.686305469518316 3.555774259985428 1.3086220893091658 -0.8032136560269779 -0.8210802518947538
P 1.3817977049689325 3.3295628508505395 2.7520729976459735 1.075826952887173 1.257360720031028 0.6576087415692482
Ni 1.537857465129993 6.7372020281388 2.3724381235841734 2.2784049207503663 1.1343979684528462 0.8203184340280646
Ni 5.750430591077552 4.080832678411596 11.171318704323573 1.149713258653678 1.9543826732905762 3.2445028471408124
Ni 8.588256569077739 6.019930934041401 8.103252560165766 -0.109646751195566 -0.3228485388666633 0.8649106188161427
Ni 3.1851518370729295 2.7193506100779166 6.0305745812552445 -0.48534020177740284 0.052846454377070286 0.3076551189556766
Ni 8.378644159075696 7.216379806004761 13.002440326610511 0.8477742162461722 -0.7695306619522359 -0.6326037348844783
Ni 7.898398114994348 5.039466912286663 0.7341478424462439 -0.17651034578733474 -0.9176804543190067 -0.5218071863551851
Ni 8.414008415440765 1.4845091792606495 4.202009366468085 -0.1267499865347559 -0.21495296603424918 0.4990156423819664
Ni 6.019159924512035 2.3736317949639765 2.253488073891412 0.5915905256969102 -0.6768210528316408 -0.3587084859880661
Ni 2.6477860629183443 1.4442866339334237 12.582765905868818 0.9030714461565801 -1.2757405080897963 -0.41571961326578727
Ni 2.6089197512210904 0.3179160256995317 6.160006644838823 0.7167042621798237 0.5199112548840529 0.6417553194767592
Ni 7.382081829918629 0.3009538160534546 5.774457291652348 -0.7172261961215648 -0.38508491909906584 0.5288679498567086
Ni 5.9340237517813135 1.9765804658827741 12.09906796852105 -1.6811222297646855 -2.557264198520273 -0.11504169695889219
Ni 5.357141416928803 0.1784691985784737 9.930676123493175 -1.2339282000397007 1.163805732191002 -0.5701845492173083
Ni 7.708989870370298 3.6434566220173488 8.367663311308648 1.4213415658927844 2.4134078913225343 0.6910035149796099
Ni 6.584031231395007 7.859011604096556 7.016595445184289 -0.6030823283865936 -2.2057874543939557 -0.3398147344073567
Ni 3.986890276357501 2.0594965027397754 8.825120914697909 -1.005326018653133 -1.5180924349622886 -1.6956659319068152
Ni 7.9810354737082045 4.964548938137916 6.061845055697516 0.6577789485985253 -0.24277384490125928 -0.8698990731696696
Ni 7.135303044892514 8.956892016829617 13.556863060979843 -0.7234217834093154 -1.1381098700867949 -0.8705986703398555
Ni 2.1360865457473914 3.7168047092930467 12.588761201655005 0.9838611639111379 1.1690885778564961 -1.6799017270940229
Ni 6.207564927820763 6.44464571346544 12.786566018732007 0.5268627465012218 -1.118193333668526 3.5059300454772004
Ni 5.670580013795142 5.779756821007817 3.7336340823575584 0.46698972429467317 1.2229223358475003 3.5232130009273646
Ni 0.5325316372981672 2.5360732846030523 13.526041258348034 -1.6238161969543647 -1.3042820671729152 -0.2923873941633287
Ni 2.6361744736206467 7.516283934385703 10.146944296480658 0.508348232636802 -2.4270434798280975 -0.6353003078800349
Ni 5.013893548017413 8.966850115811322 12.275487024893122 -1.5301221124333133 0.1471259790879466 0.8712982675100412
Ni 2.4454750202666937 8.950027245236818 2.5019918766235927 0.09754816815981909 -0.31696688327490574 1.0152324791335678
P 0.5111672419175468 7.676087270936342 9.591039923316941 0.8320442071054251 -1.0116545319743222 1.4355052589876762
Ni 4.0270570860560975 1.2471404262013888 2.9162552967525595 0.5637727321536935 -0.8724022992074975 -0.12889582923316512
P 5.998751395162401 1.2711160357832754 4.376252875469341 -0.21778015107039914 -0.05443925278548689 -0.6452335078333469
Ni 8.843098441712176 8.400594707484066 8.01065152890734 -0.6619809024950147 0.49094829199279966 -2.3240031782054555
P 1.071517460391567 1.975512199667386 6.256781345754413 0.690149908730063 -0.9758912583317838 0.6048443053830228
P 6.287861390132203 5.527525233647504 7.038580363896978 -1.1115948545154017 0.8568226996016858 1.6269786538427464
P 9.010983444414013 7.27584972175185 4.292094863021057 -1.6696198855520408 0.491674885746179 -2.403949574123111
Ni 4.752316953590312 4.5720029057042195 5.8232250377755355 -0.5475804386645473 1.8851986580957467 -0.9986012983347897
