# total energy = -340872.4521713617 ev
CRYSTAL
PRIMVEC
9.25198987073415 0.00000000000000 0.00000000000000

0.00000000000000 9.25198987073415 0.00000000000000

0.00000000000000 0.00000000000000 13.54122238128614

PRIMCOORD
 96 1
Ni 8.644522696201209 7.510080709308393 13.01192265235992 -0.04646497633075869 0.2312820422115759 -0.01015482904581477
Ni 2.487203178169316 1.649824081235025 3.382041758038932 0.3967117047047168 -1.475414179367472 1.6558081764799288
Ni 3.7695937346811297 5.184167470115251 8.58582529702456 -0.915833630918255 -0.42431635379586274 -0.18283551667441414
Ni 4.509105283029982 1.0848513213210675 4.84243597318277 -0.07554826684996022 -1.4696173701800366 -0.7517203732436925
Ni 4.985777051858721 8.252256830732742 10.67694246311821 -0.3963463509454981 -0.38132879449074325 0.0572731226898562
Ni 1.3098967223224123 3.7505253836096046 3.6397180020262834 2.096551051262931 -0.9567743349966747 -0.31515682664936046
Ni 0.8934128482344281 3.1499602187601035 5.838420081640077 -1.1044417884103883 0.41946802456462595 0.2335368996840236
Ni 0.30695604270029214 2.584238047668662 10.437574056637088 1.0888758156513312 -0.38958229274878714 0.3645245784492109
Ni 8.280762211446651 6.860211690572353 10.35368626470816 0.705833638013907 -1.0137479241682412 0.4557853709384215
Ni 1.1872430929409443 4.979976054225608 0.5325491615004888 -0.9475602725975745 1.0343082648180961 -0.7964138594963253
Ni 7.309580837367094 2.839833519139767 1.7165263020259802 0.047376432401434534 0.7764024493714047 1.3288962661771693
Ni 2.945528251134478 7.2545685057458975 1.5040506544286987 1.6908924217775716 -1.1720222065635235 1.6899264583198768
Ni 8.660954230166773 4.874688409784097 12.176565115206866 -0.5392055843372907 0.39604861719942114 -0.3743593051514456
Ni 2.3363032237896113 3.095105170966279 0.9947276882362914 -1.8156917123438598 -0.6544997636266212 0.6759551052869197
Ni 6.494489783970555 1.065070567031441 13.376128157826043 0.23317540257954683 0.2336734252618879 1.0105636129029887
Ni 4.406297171867058 2.4326904539997742 1.1362165185451782 2.2275289598361057 -0.11723330529357229 -1.3647829527714495
Ni 0.43435686807147345 6.354266625872529 2.363702066518002 0.2623998466623029 -1.019180408037722 0.23445349796102202
Ni 7.504316719634662 2.845495736925198 11.307055707937208 -1.3890909333891948 0.9158354306904678 -0.26521289063106585
Ni 7.663460196966685 7.607939005903987 2.8637110545329696 0.7738976806716801 0.2936577762353201 0.3726592917412034
Ni 1.7505504946827162 0.9772044194689611 9.368007022540745 -1.3265023120236963 0.2956701786796585 -0.791842695185875
Ni 8.240812119293889 0.676208508627124 11.734295020220557 0.6979688905538496 -1.7042755279526969 -0.646379705622648
Ni 7.51059882073974 5.099558022978378 8.157842124757634 0.2876863891432336 -0.24220126022724092 1.4353923875588956
Ni 4.189199230142977 1.4415710418032186 7.099121198357143 -0.39204232425350544 0.4073226474513437 0.23117739831291154
Ni 0.5617863746111758 8.394728222363218 8.445701135217881 -0.5402615364056309 -0.6987872726900869 0.21522318897650033
P 3.3022294676369377 4.939174779007062 1.5161966666978388 1.1842231195050896 0.3975640254026831 0.7326646421638221
P 1.3446749521515542 3.9610914205027803 11.887581987980395 -0.0610978957525851 0.8315513266294067 0.04832799768142645
P 4.398081404884276 1.1425929899466798 12.927750824342738 -1.0304927477267478 -0.8256830407740876 -1.0735237586752933
P 4.6959399659695125 3.9528108895910794 7.019715070309365 0.037090991315026446 -0.1063624240173394 1.5849483162445734
P 6.957209552112317 3.5912801343892813 13.289504552499812 0.2362877229562834 0.21914077886335162 0.7275980262741921
P 2.5619962640801393 1.635455741005002 5.6621132379457135 -1.743924509802887 -0.658558249966711 0.38514019781703346
P 1.5113958091670217 6.43981977597364 8.381109293310677 1.559266080987121 1.335957543899325 0.8976675015321894
P 6.04721158688089 2.4828732469216335 4.457283037507504 1.5182788399414817 0.6576228826366352 -0.031110605361875453
Ni 0.3275981572445324 7.324615320865993 4.806497543827005 0.47463104289001484 -0.20738286699647512 -0.7402573669094153
Ni 3.331086423964976 6.6498491974557785 6.026317818212854 -0.5249462462047992 -1.1645870904417168 -0.5111031696741198
Ni 5.80745552202524 0.5535622808375327 8.474868958404725 -0.07943294661634707 0.17225825537920011 1.7327983179827384
Ni 0.9305928946274558 4.608786221625134 9.370864037005028 0.009812358104731488 2.1179647410520173 1.0745411441962138
Ni 5.480092365322783 3.559841872894356 9.469444914007552 0.2501035457934531 -0.4811274492476359 -0.8953149421396129
Ni 2.414278994207278 2.150837835347211 12.181304909604703 -0.0607471972813857 -0.3463481646505003 1.1781928541506097
Ni 7.335523416893808 7.648148153772423 8.21222347067137 0.10491566426848384 0.5203601694960135 -0.576222270770956
Ni 0.4254703318248943 0.7622076046387873 4.8516842622323075 1.8149448068755067 -0.7289504265370285 -0.21676790775580085
Ni 4.735566238477683 8.54215868055087 0.6196473939057946 1.2586984650058453 0.8726822923417614 -0.4018271715544112
Ni 4.148231419107212 3.191603425054588 3.274605801555302 -0.3402623634677366 0.4588172157862099 1.0216851767374469
Ni 3.5637277086294556 7.484508209375499 8.087982199832418 1.1907048705746914 1.6150075975237992 -0.17231199143527098
Ni 7.601869700565355 6.346263654656193 5.948198641952581 -0.45651170758148474 1.4599307390198923 0.4736846198163455
Ni 2.747581928390531 7.1236621014222665 10.031594891819655 -0.6120595921845395 -0.44903828202257506 2.907593716416025
Ni 2.1563705252748053 8.676432809178255 6.541385344900315 -0.40316543074986044 0.8874481377970265 0.18172300033652575
Ni 3.3027845870276664 0.4708180348535076 10.885951390120393 0.9960934443112714 1.0659932546262028 -0.07242823316373978
Ni 1.3081295922619263 6.490483672367464 12.086935538379837 0.21065768109300495 -0.2327105471279863 -0.6425024820554289
Ni 0.8680383408842272 8.527753332361463 2.7539732029757853 -0.20049359607580952 2.0299165419628333 -0.42702835341038714
Ni 5.658026634030966 1.2157114656954722 2.75635651555998 0.5183683358769654 -0.7742200970081053 -1.3940901863759991
Ni 7.659139517708849 3.8875936131703233 6.113117211346149 -0.12515821656760379 -0.48233123974775 0.6004682878025143
Ni 2.853017604669569 3.579881682899656 10.182484669010528 0.7666559115076023 0.14583399974940045 0.8017473558940966
Ni 6.391922224543614 7.092436635693787 12.268631666159193 0.3628839575219944 -0.07253519105524928 -0.7710805229378591
Ni 3.3461116554740276 5.710762976150176 3.8486723422883773 1.5710409621348622 0.18245165097243415 -2.4247266587694627
Ni 5.497217798526758 4.834016662423387 2.544368447827555 0.6977596027565209 0.3782208449893809 -1.0119913464884507
Ni 5.521115688297621 6.088179397916655 7.061476702073873 0.2468636986999168 -0.8531323952342921 0.6579380998842088
P 1.6667552226522453 5.371622036374428 4.9270139635541685 -1.218784659530043 1.6209278196629762 0.6178965105812907
P -0.05049828577558947 4.181001967139886 2.258527296352607 -2.6217029857206335 -0.30410648237246984 -2.0374095079057684
P 7.8507852353680265 0.6720173572271237 1.8799007143143391 0.005136807005933089 -0.05742533199700432 -0.25847917145165805
P 3.9182176995588467 9.046762206723098 2.869128094587495 -0.3565060790201086 0.3428771753827643 -0.0038957355099803873
P 1.1953755920151172 7.665847210346818 0.6998491930802829 -2.3563479130847482 0.6691455385642541 -1.5897488229570105
P 8.84332020201094 8.562587074129679 6.297724940329875 -0.6422841953970357 0.6078062162248242 1.7741478274638025
P 5.384537814198713 8.177102917217944 7.118444904348403 -0.13126227258281264 0.6998334545664141 -0.7507199570036361
P 7.0536800502310895 4.894413652134651 10.475760719525303 0.8934673474079129 0.037212090273923006 -0.7242854169611913
Ni 0.5815541761150186 1.7198153844160469 2.240936488059404 -2.0354462135318108 0.687814318618351 -0.9998732230686779
Ni 0.6594050446697716 1.2094756245396219 7.175683264726421 -0.8735587814094439 0.3293706562558973 0.9963325569052713
Ni 3.272706368040026 4.721077622379669 12.787558197811203 -1.4434224569522238 -0.9782201635752764 -0.8248638873069021
Ni 2.9590084003393358 8.199307692847086 12.520159962894224 -0.09993903698949885 -0.6768922723892085 1.097307234248136
Ni 5.458951568525872 4.1701586350409885 11.93046681131214 -0.37775264710371076 0.16590711635019167 -0.6699106988650527
Ni 8.40711663676631 2.6142515027273845 4.3302661697149105 -1.387501477414888 0.501434279125788 -1.575307707831016
Ni 2.5380428623702036 8.169229473859446 4.3414509002391055 1.129350635836926 0.08212206341273598 -1.0686157798507145
Ni 3.1147378934183783 3.885354631627718 5.559227410068088 1.0820798757754202 -0.3294770999267745 -0.5547425036306253
Ni 5.606122970997848 6.32344824769725 9.689177822439625 0.08798854949584202 -1.132099916447289 -0.22792238171072357
Ni 2.3432699721432546 3.014344551605124 7.6847110924427575 0.24598309586717637 0.2096338678141809 1.3578710561429645
Ni 5.219001211883466 7.302956412637735 2.6069155999789073 0.20003388283057164 -0.34314071345679614 -0.9375612524033335
Ni 8.722924058151769 2.210522421840373 13.404767692392713 0.1364150204283457 1.7749158159780785 0.22877624507058664
Ni 8.66740286708907 5.141765600653437 4.364294988366568 0.28044796241326536 -0.6844402599397954 -1.2585567972216583
Ni 5.501677257632276 4.578809774525793 5.091811331880761 -0.24522924842028734 -0.36393605293559256 -0.07906167931985739
Ni 7.982931406330952 1.033465769719297 9.349441979716813 0.6803318941983767 0.5382355071145376 -0.9013745180701316
Ni 7.521756720493384 0.4294061283051595 4.118169853701293 -0.3397815671765761 -0.40174078248819195 -0.6095249986881437
Ni 5.761204824787709 1.2537001360009943 10.887928540350371 -0.25658298287020975 0.3329288059208008 0.40069897148723893
Ni 4.995232585480797 5.881545456707807 0.23608487528496577 0.543343003544432 0.5932188053289525 1.4207576683648564
Ni 2.6086910568302537 0.7561336733052327 1.2587609744464694 0.9112652948212823 -1.6387337374961457 -0.9462618655011251
Ni 7.671694467929158 5.4434544855347 0.8706298232399449 -0.0955095404632355 -1.0518848402492789 0.39894985000661615
Ni 0.8187705697580859 0.4934826343779688 13.272294000989259 1.1660137955859144 -1.8700504896003987 -0.399023640667345
Ni 6.753564003623558 0.5280998795837997 6.29722348248025 0.07535234878907021 0.3078530938990956 -0.07091488184300691
Ni 5.414764065023881 7.622816205575511 4.901191659895447 -0.6181214821079032 1.069644478225545 1.4058442415881338
Ni 9.946166643581456 5.513603072543095 6.781660446386297 -1.551921981917224 -0.9934351807528182 -0.24544830640962886
P 3.7251656794431565 1.9252743229145197 9.179405209540727 1.232387080804826 -0.6634274051335542 0.5303602181315189
P 1.257373175969648 8.662647344308496 10.958573034014483 -0.5202043606444396 0.13998242606462988 0.503219653160985
P 7.066845631781202 8.594275139350433 10.390206644225206 -0.5368661375708367 0.2839436342713497 -0.21239343283718906
P 7.196105181912339 2.3731816553136764 7.656126144616176 -0.670281194830594 -0.6718004596885979 0.7523981160370075
P 4.289971903539896 6.204689706040728 11.616256283374012 0.20462150220125405 1.1489401279330795 -0.2991015729587107
P 6.9085070775657345 7.435370891306179 0.8577593801659039 -1.58983186958912 0.7680455927662774 -0.5842983629108711
P 6.534874719646055 6.096330400970519 3.9532244535371723 1.2447648856438884 -0.26064943963009946 -0.018537139572239042
P 9.291125762521796 3.4421935700192905 7.999680283548217 -0.5410410948841328 -1.7407746513199958 -1.743475080970294
