# total energy = -340865.5080580402 ev
CRYSTAL
PRIMVEC
9.25426170435177 0.00000000000000 0.00000000000000
0.00000000000000 9.25426170435177 0.00000000000000
0.00000000000000 0.00000000000000 13.54454743943017
PRIMCOORD
 96 1
Ni 5.387738562784996 1.1238560376195665 0.7746575811355726 -0.30117182522417807 -0.789173375883828 0.240923679066398
Ni 2.7236680037549017 5.409995061940767 7.161002228723528 -0.17704693501709506 1.3369165653784845 -1.1095549412672374
Ni 9.042792471335469 3.9710129082079817 3.906721701998016 -2.787960029211076 -0.7805033589136557 0.9516557828231869
Ni 4.949345682116743 4.507056757313528 7.1954049462335385 0.719192061598684 0.9664416828831097 -0.39694773197492284
Ni 0.8476265084508879 4.915623152834569 8.527145940229603 -0.7486558753857558 -0.05768989851230064 -0.00661467710304022
Ni 8.52593270653342 6.714688625549067 4.34393929144266 1.1568966637759948 0.5264086896829385 0.8116021372009893
Ni 3.947303489980504 0.3122063965773992 11.754472504609545 -1.7301074014141367 -1.1457707290661623 -1.5226162909745713
Ni 4.6565500992521205 7.79539204131277 12.96182049041346 0.7332017456142146 -0.990797486019655 -0.6406147781144128
Ni 7.483347594313426 2.346741928655307 11.76620228119164 -0.18377962575523832 1.193017577868268 0.05058954002209352
Ni 5.576858652908623 5.794241257968517 0.5505600838563744 -0.05042010432376478 0.028064619446700054 -0.05730654703095292
Ni 3.937568006773905 0.5274568197639086 7.754875958587664 4.593514653120934 0.19237970871942353 -0.45327031782605165
Ni 3.75913658880201 2.6647183573423208 7.010061520270191 0.55480395299618 1.105266598304529 0.8758154386541045
Ni 3.235928400540145 2.8561705213899615 0.6403347502431572 1.1270764950907686 0.14776669799573908 0.3360578384680858
Ni 6.91453440487084 1.0635182519665012 7.735683545448723 -0.34800626907921356 0.613596083433724 -1.020105490955153
Ni 1.5957493452915166 7.932484672703032 1.9216057777336815 -0.9028670434552579 -1.2062669866790063 0.11643317798978013
Ni 0.828796862366794 7.310329919379422 7.571605487223439 -1.30420801940187 -0.2691543917773171 -1.307690835744148
Ni 2.313158213297182 2.0853460554104473 10.070072885716039 -2.2328670842195675 -0.0613434361044879 -0.494430079893813
Ni 3.0535916841716864 5.527561201348212 13.113004585946964 -1.8143670799951654 0.3288672342569175 1.0952472663953137
Ni 2.6201313249379545 7.186202508495286 3.955956224579525 0.7708365252478531 -0.4725960147378571 -0.18104680020510758
Ni 1.1793075731461262 3.5591612498177936 12.93712826960372 0.021693425813033608 -0.2942660992432803 -0.5779793626713787
Ni 0.28756692505879694 3.8954981335256176 6.284710644956632 0.8707542220811133 2.4190280657227885 -2.4430519394412116
Ni 1.7892096841070586 4.617672946256946 10.72365140973958 -0.5588462413863537 -1.063114904637143 -0.45229998349298234
Ni 5.555027849786601 1.292644515000895 5.528478298673092 0.761748961124288 0.35239488506521244 0.017029958899093253
Ni 9.108914170490554 1.5183096841956805 5.88759824902191 -0.37745465624731767 0.6698507921613948 -0.7384704502123218
P 8.689557305940145 2.6846335283124736 0.3924658311837398 -1.1519490899627323 -1.6143583939755746 -1.0450017399762004
P 5.449547776032976 3.9793047266044765 1.8728043545952036 -0.5209121853447416 -0.05383915730764276 -1.0396412469952352
P 4.661769502796343 5.257605136120363 11.903896439586111 2.966469150595994 0.4085182104213416 0.3944730451821851
P 2.4589220878096723 3.058755562146289 5.384052590388429 -0.8278818481976195 0.1534598917257744 -0.7459711294647411
P 2.285191834732218 6.625856968419655 11.12924256015518 -0.43327767675420864 -0.5706275502919979 3.2456307900976684
P 4.8265508849034715 6.684797360570633 4.167508644829383 0.937247834927973 1.152736618861034 0.3587491094180144
P 1.9248308879024074 0.5153744558147303 12.40677856766264 0.8326157633381789 2.504572267443196 3.480633475693941
P 8.235154552698301 5.599614882190967 2.612675166364231 1.1861686732672345 -2.026673095324871 -0.9867024900146749
Ni 0.14597857338168482 7.173746272377336 10.036170823758761 -1.4682274318110455 -1.442949116860231 -0.7155189836224709
Ni 7.484763496338721 8.494866150331374 5.613564756131678 1.4526455182123885 0.5502294462516201 2.025806119338885
Ni 6.54948154740819 6.664808155507655 2.800064709568054 -2.029939167670652 1.464093869258646 -0.35180687377222636
Ni 7.006253391620461 2.533955640888668 2.3402130470942275 -0.04152460160634784 -0.2893645481766049 -1.0457481312239216
Ni 6.042199943365485 3.9409550665206874 10.625047252357154 -0.44943526035067755 0.31527818271857316 1.0521987719452717
Ni 1.0716712564389477 8.690038527543512 5.393574300151994 -1.711497242512117 -0.691163694706558 0.11774752592582947
Ni 0.17365436813230717 5.782525362778826 12.157111545573716 -0.09708999757647795 0.2678451860475903 -0.04200565500782443
Ni 5.292151294685224 7.375424395496548 10.208714680498682 -1.3143790463976008 1.37504962480478 0.6143357898132259
Ni 6.721916203861191 6.468266147578236 11.93078192039582 0.5899889855377451 -0.38616683930933493 0.011834016520450586
Ni 6.27725818808755 0.2864915798605015 9.951233359911988 0.6005734459218107 0.34662867200539654 1.1569329163305688
Ni 8.242354368225614 0.5936007291468411 0.8940338541126098 -0.6761268549780935 -0.5983954644338856 0.3643374021390693
Ni 2.356033207304951 0.16195513061350267 3.6328510841120005 -0.35163563830168476 2.0849396922762478 -1.3070380326514974
Ni 6.799374373480234 9.233328463484389 12.385242050059603 -0.6748503022585152 -0.8728841239399225 0.4422811658043996
Ni 2.263074149500497 3.196542263156794 3.0911639862808036 0.08188269370842027 -3.249539124013139 -1.2228470025248748
Ni 5.679692007843725 3.389974839187526 13.191861074494254 -0.5305363386980669 0.7643491177512965 0.5993004927466582
Ni 8.550724873368475 1.3114676831018668 9.420503307819017 1.2402633982291091 -0.6237239158963451 0.15363781206453542
Ni 6.760811865379572 3.588950717918594 5.814795898415452 0.41541493754117487 -1.3231246538007146 3.423264707966485
Ni 0.27708369751465695 4.099193685674333 1.6682416781342655 1.2160829443281638 0.9124608577912801 0.23018083872759712
Ni 8.352202453455966 4.90491597215963 10.187273481790156 -0.22150747932331527 -0.24039300337390856 0.519399348244641
Ni 3.5399771655142955 3.3497558182598848 11.61239090078898 1.088512004554009 -0.07445683355799435 1.352507477838206
Ni 2.3883490888234333 6.956530244026301 9.165608553350427 1.787648175943083 0.7281765244854814 -1.6806221501998153
Ni 1.173838304538617 7.620236631948418 13.206800229000349 1.433033400408416 0.9901655088626109 -0.8984113216767495
Ni 6.246469259733601 8.212555645863212 8.102795476118091 -0.02019113023589426 -1.490699901881949 -0.7394104455280879
Ni 1.2543411262251223 1.7473434046140421 1.4120328185180164 1.1635689335898478 -0.19013590699056931 -2.5715533614494355
P 1.3150860993887301 6.305853856441534 5.56052395575276 0.3973945897043543 0.633527018029696 0.4363177491321131
P 3.6620778931073246 8.945900352349641 9.454581200746754 -0.05102199957382181 -1.3012571643036621 4.315251614174129
P 6.304104800998523 8.179249558353183 1.0675401540592655 0.3217625048913362 0.3776703718025496 -0.6285719880172659
P 2.883766729490796 3.9853292509081792 8.679250834792628 -0.36184137519009296 -1.950191518027364 1.4573647780649286
P 8.652568022312032 8.063811899114482 11.953306793138083 -0.8909247834917172 -1.3478938903255948 0.13676829000270638
P 5.952748250708656 3.1762291589377023 8.633104459308116 1.009258778048636 -1.1966173794043844 -1.401052219516129
P 0.07798843880890775 2.977475382485112 10.498541496240989 0.5862202625239323 0.190337224368098 0.3927671182346719
P 9.336809616731717 8.771207656065451 3.202635268996361 -0.11882893191546631 -0.6218230993292065 0.7902007887070779
Ni 9.116049206186643 0.8878797701464614 12.054457723313718 1.0507370997980807 0.2904217857965256 -0.1391840985330506
Ni 4.165972437403247 5.473136888859611 9.820148595154544 -0.7803804601825463 -1.767458074148453 -0.843667136056334
Ni 2.922088626789775 0.14468297675723252 0.7365513081319487 -0.06816277301916648 1.8846052474861221 -1.4464540446896959
Ni 4.694464809040556 8.895205507287143 3.864679591534538 -0.6746387004683413 0.3537560270787972 -0.45511148479984853
Ni 1.3953483102735516 2.532104788568022 7.643688781703326 0.6173190408112659 -0.8535237171354396 0.8794085553220016
Ni 1.6329884939829178 4.996884823972539 3.840948888505373 0.33898966740290004 3.7866425744057626 0.933880975338269
Ni 4.366373472421212 2.891577326283923 3.8687699751631657 0.8060462403797667 -0.5466934080739037 0.8119775182625372
Ni 3.8672356185893504 5.49948377164401 2.436067763354333 0.7430025337547204 -0.7401336968473575 -0.02470084518078972
Ni 1.5072415873182161 8.649162454042042 10.87042029706218 1.2199177446932217 0.6563661274113987 -2.1365715575199267
Ni 9.148142985426649 1.6253259653754426 3.0096931688306006 -0.7889558605563832 -0.14519559483445316 2.0086108385065216
Ni 5.273235583968221 8.137697923754677 5.975678460109141 -0.15445747975235335 -0.3929519805519684 0.07999833220151384
Ni 8.131469805695703 3.05658081066953 7.71164189922969 -0.8275625171849877 0.40381257741555615 2.0141137706026218
Ni 3.7706581444980327 5.097839563802186 4.948188899416338 -0.08882132980978251 -1.375165324447038 0.8474872811333727
Ni 4.1400327421293905 7.881086503758687 1.6180993124894796 1.3984780310310496 -1.5976791335476805 2.2290780494907803
Ni 3.0664365992769707 7.804637048654397 6.281893647724608 -0.36744509453011553 -1.108446538694407 1.23334250273956
Ni 4.584005942544393 1.923285426214668 9.849405017786998 0.3382695014074239 0.15181361437160307 -0.8739336482503594
Ni 1.8391919510261086 0.26665692096629673 8.355130501827228 -2.243307562826601 -0.7769444379178039 0.2291202586735667
Ni 3.1617554937902494 0.858949097522441 5.900316380743231 -2.040837559750711 -0.09472458266809493 -4.706430561986075
Ni 8.545200079191346 6.9840246552495 0.8846796464840642 -1.354976508203989 -0.05021801561528771 0.33676386339617487
Ni 6.205213761506398 4.2686021985830775 3.9270514638879934 0.4161752127459671 2.5671480332928884 -2.6455265705027924
Ni 7.02773253280156 -0.13659197583752772 3.5191032530420485 0.9397207219484979 0.9306300725011392 -1.4990305332348313
Ni 6.777154891370877 6.000907428091869 5.9551848977887865 -0.5717644921099185 0.37047719648822003 -0.04711238010677047
Ni 7.849409166290828 4.6556801986614165 13.517282556641067 -0.5035245859959134 -0.09542803649302274 0.057813054353726245
Ni 6.600546562934818 5.325716501520143 8.640527302540068 0.005359721650016576 0.308193765067966 -0.8660190213889731
P 7.682823203171068 2.3574213465454354 4.391616321796345 -1.629399604579413 -0.9603160296013461 0.5447972194924553
P 7.293875842248877 7.057716340396028 9.641834706305008 0.9825663563591143 0.7519044642300405 1.306423281885634
P 5.336830869705623 1.7044499020830668 11.880748755037951 2.5260013838512494 2.2381154771027005 0.6750783591089212
P 9.108007252853437 -0.013153082016672073 7.320705797488964 -1.1983662437746911 0.2816653797601342 0.8546930548531925
P 1.886666313050683 5.668818250459928 1.723895881989936 -0.37111920094759304 0.7059233695142358 -0.800944400376827
P 4.703913410137456 6.617528132976747 7.81126217453615 -0.3056522295930349 0.15818943599095983 -0.7793666742060512
P 8.412142305860092 5.6782298345104145 7.363290207682391 -0.259764723032301 -0.7324522690426998 -0.49978054557244894
P 3.7713429598566717 1.4121355408218124 2.4513326678688623 -0.3085814874246879 -0.41541750864433613 -1.0221261209296073
