# total energy = -340858.6242342608 ev
CRYSTAL
PRIMVEC
9.33578034647904 0.00000000000000 0.00000000000000
0.00000000000000 9.33578034647904 0.00000000000000
0.00000000000000 0.00000000000000 13.66385821221003
PRIMCOORD
 96 1
Ni 4.94222205084567 7.919859839780331 7.581009291813748 2.6863734293158252 0.8766353634522386 0.5812469776790571
Ni 6.357703723214872 4.988583535784797 9.412581090410479 -1.6338193309136635 2.8115640417832606 0.5626033944359408
Ni 0.3006728080330215 6.032846576330701 12.279312610188606 1.0549498523278475 0.4280812201549338 3.4095967235610893
Ni 4.544424452525858 7.002768798396889 13.116333464726015 -0.6987533341283579 0.1008980584686585 0.38141826888075603
Ni 8.779918599348807 -0.13339709746238299 5.824834188447964 -1.7155629279410582 -0.5444758315972945 3.316823865302726
Ni 5.344734218213864 1.7796891331918374 4.8668066840541355 0.44108174617965973 1.231399777190892 1.5269511709044994
Ni 4.512682799526858 6.602618583443033 10.330026891445089 -0.5572477865509823 -2.0356732419409522 0.13400692520748536
Ni 6.536642624106583 1.4772845379143118 6.866211539305047 1.0649180192841532 -0.5458009781666213 -0.1704775093296935
Ni 0.6183871494143881 7.2927661416639245 8.852335313509965 0.08771781233295861 -1.2094649247910136 0.6896567711437285
Ni 4.114054316760895 2.7911929206867154 0.32357347709377016 0.11293210681505711 0.9120929329289003 0.08576891613670388
Ni 5.262467322264692 5.427710633465366 6.70723253668153 0.5465350281191684 1.2963885233574513 -1.5852239385034634
Ni 8.607159985011606 2.0672591735824777 8.34816676810036 -0.4502911805930697 0.678570945643212 -0.8568221853810535
Ni 7.996842684083199 8.46684320719544 8.312776692162533 -1.1533745095553491 0.17935424299403305 -0.37949662637801096
Ni 7.961516091451371 2.511670322909351 4.239977188520044 -4.2064217024529045 -0.6222455315786057 0.20132431950722104
Ni 7.248514543071201 5.4389322413785415 3.849668753151936 1.4596785137997699 2.041447168310252 0.5506305383447808
Ni 4.236016950519403 1.0528426226359275 7.510107774794277 -0.012850887820739157 -0.60146741849099 0.09741344235416771
Ni 0.9170779712910309 3.7048017160205613 11.663059620149387 0.022281951326651946 1.6957782891149635 0.4521498310683632
Ni 5.957217420170437 3.916789279152408 3.233634220371591 0.5044792365996988 -2.5245996184077164 -1.5684621456640924
Ni 6.532730932163472 0.4941437845300989 3.509903298716558 -0.12069195326613408 0.09645853464006614 -0.32207540814606467
Ni 3.5038677167566012 1.889739311295427 10.98975941104673 0.16278451156080995 0.361259534544694 -0.9767451216916468
Ni 8.147671550510209 0.34139548167467887 12.306449856346694 -3.630112271284781 -1.5624038552851542 -0.8574608474063168
Ni 1.709325357117291 4.556514288006358 8.664266019490894 0.21364067498072886 -0.6504327926460991 -1.4734956221885203
Ni 6.700214830634662 2.8185094138264426 9.459078877741897 -1.1520534767510804 -1.901734965187873 1.6362837332937563
Ni 1.644058917083172 9.439127381675966 5.125381658008219 1.657743445829429 -0.4494825686488452 3.263140516846657
P 1.8439006300527545 7.233119841366686 0.10431147395697636 -0.1100604416942169 -0.1655253075307407 -0.5015391801347685
P 0.1718147669494954 -0.041335100828932235 10.320557609493063 -0.035008654864701 -0.6896130623899865 0.5362506154740247
P 5.615322474250039 1.2802248874722888 1.3401195195253417 0.781283688723106 0.4949995792440378 -0.06171753161445499
P 5.059423436654328 3.526777721597644 10.764045450148876 0.08649782388292845 -0.690187703946534 -0.4477090216881902
P 1.1828060201062423 8.00568366802145 6.820232821357967 -0.719773902244083 1.3644255694320309 0.2944090525790478
P 3.994948431772297 8.666899643111782 10.659449234892937 2.088811259416512 1.11278373261718 0.033188570936826714
P 8.20864353160917 2.4747379760669856 11.450340131842506 -2.721927929381667 2.1096503076490505 -0.5819784565284428
P 2.5708124910707215 1.754827950269386 12.896235909252926 -1.0716005735106513 1.3711788289954643 -0.012032762794817986
Ni 0.4232450682447163 2.7467359349275284 5.10787800353533 4.230729940180965 -0.2838639300733498 -0.5905466578134281
Ni 5.563891660611366 7.2064101739460575 4.653977967117815 -1.0763450301741722 -1.307820933564109 0.04361105182173134
Ni 3.629527319511464 8.965934021703237 3.0542957480833035 -0.23720046457853985 -1.22568112953956 -0.32186894856221343
Ni 2.6060457258996106 9.11075998140132 12.16218684420033 -0.5665970889763662 0.020572424834712957 0.878119918417565
Ni 1.2484365555718204 8.8497595717269 2.157646331231217 1.558658272199793 -1.461764192684205 -1.656407757737141
Ni 9.286879476644296 0.055255682825052214 3.8051520183988683 -2.9631205458387355 0.4266750838360264 -2.695853600892119
Ni 6.114833398871058 7.968704642277616 9.715836175272774 1.1657980800306824 0.962971207836006 0.3960041371147309
Ni 5.762482379021576 9.11875140933283 13.036632041201587 0.46612789051501013 -0.4883604766609654 0.7856332239410535
Ni 7.8529503024144995 9.203100184287525 1.671746040700564 1.5261171050389781 2.5782716540098756 -2.0572424834712955
Ni 1.2027565825941426 5.143912248313429 3.911456681448576 -0.5410935453886229 -1.2991128642671497 -0.09260805054572438
Ni 2.6421378525155315 4.1860891975080365 6.057775910449297 -0.30532364260902256 -0.4205432599066758 0.9812039287939489
Ni 7.691553332694881 7.3966547047735896 0.07716022412844992 -0.31144312524319906 0.6398840705959754 -1.0993363488630228
Ni 4.924119972855946 3.3427881635669734 7.600794610990449 -1.3829840491605085 -0.6207260096102858 0.5281254152637291
Ni 1.6425091775543974 1.8262093263959593 1.1645414995394063 -2.0132534794848556 -2.427334271595639 -1.3690442991509648
Ni 4.079278535166403 3.8650130416428636 4.298786069324925 -1.186261747201673 0.8769685784219412 0.4286100960752102
Ni 0.6520818476508552 0.3309095332486565 8.294726894542455 1.1462661806453422 -1.2180344116275799 -0.6221357454736188
Ni 8.156895301440505 6.677752943247723 10.743112763574066 -1.0833140052928376 0.6574868712794032 -1.6204195125679897
Ni 2.8924674653141107 6.1986500343490025 2.13463643354103 -1.025382423083376 0.41778035244955797 -0.27449894391868207
Ni 1.923301441451722 1.3477039074360437 3.456095595415078 -1.07040655320255 2.2453163657265134 -1.4129955079209342
Ni 2.2073518926715914 3.636725206118001 1.8816087802375365 2.33724821614082 3.029390215600247 2.8459798002589696
Ni 5.8516390808275895 0.9883137092450205 10.94845325113671 -0.25997169683678456 -0.2561286689416105 0.1253713610196744
Ni 8.382951885475144 4.947711489658438 5.934842355540232 0.7282922241277393 1.7227375913126268 -2.0037090303295297
Ni 1.7552760677234893 7.291244409476031 4.378255031920037 0.7222771282819109 0.7236364705232827 -0.3072267731690064
Ni 4.056910005582402 9.021995382367647 5.355398480043498 -0.0977541135230381 0.3337235339079543 0.4573537438668059
P 6.4894969336227755 0.7738783045201334 8.90876730465204 -0.047055301616589926 -1.4163315142727027 -0.7323766786097581
P 6.619591032017204 3.6666930608611747 5.42847336671537 -1.7771634743616749 0.21970205068346033 0.11584413825552953
P 3.5677337897466472 6.008526868665291 4.712814855263578 -0.4489899452831429 -0.12165843094446144 0.20642975905458644
P 8.923260169980171 6.835527630213337 4.435725161830784 -0.17551147220917515 -0.3244066273824026 -0.16824373490316832
P 6.330592617241609 6.576898508733549 11.910361639398682 -0.9961230119976265 1.535468464346891 -0.3752810456347666
P 6.181509541729544 8.783895641753976 5.86948815917135 1.0566182411692062 1.6143342256058582 0.34210712998595916
P 7.0736833855087715 6.417518067557397 7.820987391422536 -0.21693245835812316 0.08534956921109817 0.4612026852992509
P 4.2564343020219955 4.467105520132413 1.7493021019134718 -1.1126438646052066 -1.7782029713697824 -0.42036302557506955
Ni 0.2611889924363544 6.642267642350901 1.6494876733240302 1.0489524970938322 1.0337673047129614 1.0792963994930123
Ni 3.6769997623055555 0.48272239091863545 0.5729396373660267 -0.20522236901004656 -1.048214333376227 1.383254786323392
Ni 0.5387156003868997 1.532552357253746 12.057849230058531 3.765524561480224 -0.5323664499282702 -0.19283607953055176
Ni 2.9106815726673605 5.026010678982734 13.104391134574158 -1.816855136524342 0.838602577049233 1.3828002152844765
Ni 1.128751852205005 2.076520267633951 9.920958205576543 0.6697623462126465 0.43123442107193466 -1.201949333140259
Ni 8.523399364215422 4.227456039989967 9.657956204607126 1.643071445639551 -0.35966313659185156 0.789709450892956
Ni 6.316644961482637 2.2473277038897423 13.066364634281355 -0.27116036646375236 -1.7175354782863967 -2.064358782801103
Ni 3.145859214049064 7.200902063572702 6.747049639634685 -1.046694811407907 -1.766672859242996 -1.083455158856392
Ni 6.375423034212548 3.8510280427627164 0.8022170656020341 0.2918338356527038 2.5557310497051984 1.8244350057541288
Ni 1.8573721610167415 1.6922222076190068 6.915947908820391 0.29491324590897594 1.6450537661769025 -0.19533236358984424
Ni 1.115747110255709 5.92276839088623 6.516047892778409 -0.6404034334345552 -0.44471162962276317 -0.013276405393931975
Ni 8.488716940423869 2.5957016813340545 13.786285863015307 0.7068659359331633 -0.3242117377627771 0.4408248929738472
Ni 2.6699491420108314 8.4465005419352 9.086520561446434 0.44933807265118103 0.3634747970284579 -1.2500114787548087
Ni 0.6536157163531304 4.492116075539565 0.6481570856153319 -0.04922531268471522 0.6280171439550604 -2.53260809053449
Ni 0.571575679865099 9.355945579258 -0.07074280875447576 0.8496822319021625 -2.627424975806075 2.32764360317152
Ni 2.9754625521262 4.6641838421350235 10.765836052809231 0.6908970713087327 -0.3038547713729799 -0.41280115406741164
Ni 6.935243099531665 7.668092516816504 2.8673607513699317 0.5420937045183631 -1.5854522524641859 -0.29526188749764637
Ni 7.2560018388668475 4.758633931367633 12.211225830927726 2.7206248942995273 -1.4438099221986296 0.2974396118752555
Ni 7.203824162804668 3.911747957793743 7.4776556689149185 0.11709703682602415 -0.05682137986441827 0.540863688766004
Ni 8.558903336672833 3.900573028782037 2.2673118751867007 -0.8576392819657102 1.4870041981979165 1.448999693929685
Ni 4.0064594488745815 1.9256260507448841 2.951830891468445 1.3508966817076606 0.7469658892778426 -2.3575997832139786
Ni 5.033376609634561 4.600905923303489 12.517815656510972 -0.2842297980532008 0.2626641560672831 0.18548143893769348
Ni 2.3818843052646184 7.135476915273587 11.141783257351351 -1.3174669412943052 -1.792480050114087 0.376225668936223
Ni 5.2992222892814755 6.090439004963296 2.282192175397026 1.1939125788787115 1.580706510249084 0.043448300991621946
P 2.969767726146968 2.322518078376196 8.727420706022551 0.12336178678881336 0.25876199279939954 0.2978335048795645
P 0.22360967601962733 3.4954655144921607 6.93786458663817 0.8117070382099698 0.8429515980465483 3.0152746021344714
P 4.934968149557369 8.235250505446565 1.4399516860973416 0.8591752589942622 -1.8256822478976689 0.03607643400758302
P 7.977965736329088 5.54187789067853 0.9681036120649518 -1.3890886193963494 -1.7396037709403458 -0.7329603190273699
P 0.7812255636113723 5.586008124127434 10.351834340633431 0.9086350562872868 -0.07734701062159584 -1.0279725524080554
P 3.931045015661076 5.318846099459091 8.350393351700436 -0.8159871536425624 0.22993684103759113 0.9910882777871963
P 8.792092456851952 1.918008054025124 2.5163363459002035 1.7546848336431844 -3.653471514836011 -2.5473158290583093
P 3.238628862828787 1.9230773827246703 5.1205578603304005 -1.1244789095669216 -0.015705840771031016 0.7139765788360155
