# total energy = -340867.6932528471 ev
CRYSTAL
PRIMVEC
9.26335750359072 0.00000000000000 0.00000000000000
0.00000000000000 9.26335750359072 0.00000000000000
0.00000000000000 0.00000000000000 13.55786006103359
PRIMCOORD
 96 1
Ni 1.8215003276272146 5.459619193410494 5.303414899034382 -0.5465756515491167 -0.7819920276440404 0.837400586321332
Ni 5.66584932433309 1.2540455659124237 9.55029198553428 -0.3814030993721044 0.7220776106765951 0.5376366971882741
Ni 4.708147832370483 4.532597941919326 4.38838135865254 0.334670728312572 -0.545378803027538 0.6444711757460255
Ni 4.6150603515439474 8.328934956027537 13.20203447138439 -0.9099077523521234 0.027865101841384264 -1.7180553553456088
Ni 8.113172830103398 6.067425140962721 2.95947787510394 1.224199402787711 0.534567571344647 -0.5400167673846765
Ni 2.673136374723284 2.9178650199572624 1.2417919964391089 -0.44485741117200805 0.023332761188669494 0.14738128963186228
Ni 8.260969701094279 5.018090515321529 8.153791726976348 -0.28886883948710895 2.1764997611734325 3.4117425662594982
Ni -0.010133186911747197 7.972990439084592 13.453044599427452 0.4375565066352206 -1.2675731417876555 0.44646306509623107
Ni 4.645147737127049 6.761204310681438 4.450597773840454 0.878837256199564 2.0027469235265762 0.7668523437891245
Ni 8.785692594060658 3.543725251530876 13.097177894688603 -0.87806978190592 -2.2761261520185188 1.5657046375236132
Ni 1.3405375361062106 5.86663260096909 8.355180827201368 0.4700249115765711 -1.4087963822379221 -0.03766306176841255
Ni 0.5008530730247095 4.2124285121444665 2.879675901790731 -0.37332289346713127 0.4743464217700604 -0.7463323694589018
Ni 2.7643433939508757 3.6440381513090188 3.421556385759885 -0.24263269133770468 0.03558715307599032 1.298253858700964
Ni 2.4144478495404957 1.4451671605400571 7.459710571798881 0.7456214594348063 0.009418465100422489 -0.7281289590769977
Ni 3.8521116904000374 6.086507657681066 9.401481703218646 0.2921148572282324 0.6987625900997385 3.7294291013092478
Ni 8.458381115552864 6.5642004839585875 10.254799049724609 0.7627097823756607 0.3000256274348768 0.420721694466069
Ni 4.462205687286939 5.599180939468071 0.8385682284870541 -0.3808953064977505 0.5826911663247513 0.29714136390854634
Ni 0.8687426896318803 7.244603365259202 2.0054113246754497 0.5514478920397535 -1.5451931478338228 -1.025436159139447
Ni 0.374570350130118 7.658184493377656 4.159551414119386 -0.6359315137061305 -0.5066777869129144 1.7211486495589519
Ni 3.6996553505211316 5.038219791452096 12.033563803260357 -1.2467865440596075 1.422532757987408 -0.789983016269317
Ni 7.000254517688065 2.3301142416745604 7.696729324477191 0.714233432041828 0.8311355792482267 0.7791378460246969
Ni 7.0827725074584675 2.2624361508278423 5.229809185640057 -0.8962819340385726 -2.795106667558186 -1.1902559559627308
Ni 4.358344921536405 7.960410799422692 1.8591077069345656 -0.39582518833470537 -1.6617358548182737 1.2939380049344296
Ni 1.434171555032932 0.35527848152932756 9.071672823493733 -0.7006870608159611 0.4758158072267354 2.8437339416475864
P 1.1139835985428126 8.983066955088718 6.219966703731825 -0.3125949794594552 0.10674706105026777 0.44208576196414184
P 0.285456849726966 3.7612937321929167 7.179267051221415 1.7302554969562265 -1.7611732695810056 -0.41355937238967483
P 1.132473260372822 7.455659705507167 9.875789698618068 0.6576192830922094 0.43053122435732305 0.5370309452834751
P 5.613103765986359 -0.08323404731522267 5.561935757444063 0.26170359192622666 0.019033362482367217 -1.0229398750801544
P 5.763133106166136 5.64245934631667 2.663332963343174 -0.6520147924212384 0.2687124191438921 0.7361852537225708
P 2.1359727924594605 8.755003090231588 13.346899489685294 -0.18621137512518252 -0.8691195146911677 -0.7164443236502177
P 5.513559724891528 3.515481274116197 6.1398395865657935 -0.27444495075229514 0.3325367126887047 0.03078844613576633
P 8.869229553170388 5.36518852572757 4.871298718633531 -0.052514782069264396 0.590304459895635 -0.28959903278491417
Ni 3.8710923101844514 3.791501541425212 8.64980654831077 -1.131876487582573 0.9014501085030733 1.0699370697652992
Ni 1.8667981464392118 1.4118468631439927 11.383233486170633 -0.5419188695033956 -0.5065973113839661 -1.7478490416682735
Ni 0.8622592656264575 3.1906801655262056 9.277223023966267 0.37481721862447065 -0.4041383361860911 -0.03993000342571833
Ni 2.2312742157596297 8.661350544589606 3.133018543285093 1.9086458333750935 -0.3159808652125526 1.3899710220013028
Ni 9.001121239110105 8.173671818786659 8.484752968390465 -1.503179008185566 1.3613556722574554 -0.12128947764081693
Ni 7.063588093806189 4.799373378313335 1.1878829603740169 -0.017443135177111893 -0.06382763597892234 -2.1489920426714666
Ni 9.235095126135347 1.4579320673545626 7.484915241575071 0.17211401649185198 0.19830533017523913 -0.6946714507495004
Ni 5.091271040600626 3.516741090753913 2.1221166621161096 -0.8897726721651451 -0.2733625163213937 0.39746220971749613
Ni 5.720781035080563 5.310423555417441 7.860847305276837 1.075492966586522 0.38700553316054637 -0.6133436011032857
Ni 6.463498523159973 7.595406718717349 3.2788061920059715 -1.2690975488519822 -0.4453785737828007 -0.3751733164123087
Ni 2.0749180023183817 6.396820874937324 13.410920406939583 0.9452557928341141 0.7864186959568262 0.3257775395880002
Ni 4.925503255807028 3.367638086337163 10.946264232707287 0.2433924523218647 -0.4067881151041123 -1.3860773433738514
Ni 6.241733741491422 0.10752349735754128 7.634051594079289 -1.0600375512634002 0.2529250744026483 1.7449462661991817
Ni 3.946968472533954 2.2619081394429172 5.098840130120315 0.5019042767836711 0.25330868299431214 0.8565841012283183
Ni 4.735159783220337 2.100633083099998 7.587385577345302 -0.8181749053225006 -1.4300072119875824 -1.432236358428417
Ni 1.702512498866457 3.9174368884086683 12.833327826634228 1.4585477426294362 0.43978359619352647 -0.9019262768085435
Ni 7.859041876874699 1.393523941751328 9.76645892018686 2.011947873299554 0.056891570980721375 0.04419314957744647
Ni 6.822592581697207 8.289750953251515 9.974192494052849 0.47978199096333507 0.7790776822107228 -1.8907787232866857
Ni 0.597557895005864 0.44140269642519303 1.9041739418058061 -0.9082133953688358 -0.1454763592996656 0.22817563537211025
Ni 7.6002977715461295 4.169891173906288 6.2797839092935 -0.4174016289539005 0.895259406311329 -2.1718470928927696
Ni 7.768084968303125 8.987874637698827 6.177828616207511 2.111814148069589 -0.21242917117113091 -1.6180551261008713
Ni 2.620789140754655 7.850380637490401 8.16477436378279 0.45797157995646287 0.6992770678423118 -0.41719876891447505
Ni 8.90243869027489 8.968921807987305 11.512616654864077 1.0884407849964415 1.0417948030031285 -2.592329931875155
Ni 6.750505132618483 6.412726059988489 5.577161012045167 0.7749361492385234 0.33383974777084446 0.3609926540365525
P 6.425240856146978 1.8689009286212819 2.9737675305843876 -0.20531235762069158 1.8514259325206759 0.5797395398955951
P 2.408537827372386 4.976507302919268 1.6375587614987996 -0.768538987462928 1.2527910983824748 0.007412490413987234
P 5.179884319691743 7.501744909717737 10.977785586051553 -2.315726797129276 -0.0863219604266965 0.4629232675347834
P 2.738507889520066 6.689376235616362 3.949811396990683 -2.524797079130504 0.8001980091291058 -2.077660127895699
P 9.103101543261698 2.0308336833559495 11.495479443248085 -0.8405887542413265 -0.030517966083199056 0.11122258032311812
P 6.635602444572672 3.9206327467911097 9.409697375100928 -0.01880556274227729 -0.7741465634576925 0.4192160564548199
P 8.124714973710708 8.317781873440698 1.772066419633304 0.3020799388607443 0.30045705854534066 0.9681046724078295
P 2.7605176272495764 1.391078415336938 3.5285148183019803 -0.7175455271341965 1.4377418616276787 -0.712384037537915
Ni 6.632990177720937 2.501430777688687 0.6803093213885499 1.2595410155117985 1.0001907543090969 1.6724056758272938
Ni 6.128072343368067 0.3537648488925422 1.5529982013709231 -0.5077692202048804 -1.140287594464404 -0.6480576075457033
Ni 1.6888490463618158 5.816842053706414 11.093298729365198 -0.7907450912463221 -1.3462779519887265 -0.7372304071576335
Ni 2.380636594190027 3.517074571628603 6.655838249315987 -0.1646228503211294 1.329571180757007 -0.15499458320274598
Ni 0.08216412950892704 5.383122386099763 0.5898350337495117 0.9095459981373303 1.295216357426221 1.822345470214952
Ni 6.925971652850967 7.954547094042734 12.259627709205112 -0.1629331213235323 -0.34539891336335354 -0.23951857118875522
Ni 0.12176405704254811 7.064171685336895 6.556974138671217 -0.24372978105662538 -1.328573335620112 -1.1627448950266557
Ni 0.4499638915470842 0.8031025374638204 4.432945519540221 0.9602838908118301 -0.22041681736229782 0.11541399269664639
Ni 7.980493758765107 0.7563976146277859 13.516563442698182 0.7712245047148911 -0.28932058231254687 -0.22155838716590873
Ni 4.6671111580684075 7.751735142085706 6.921843900690922 1.4212472064067652 -2.2092134493563695 0.4451114361643431
Ni 4.038212545192067 1.0595521091073736 11.211361148698693 1.163543736778867 -0.47901940176569757 0.9811915874987747
Ni 7.468230081811437 0.14541618807990447 3.807887494737388 0.9578536841037828 1.6376744429936956 -5.3221835438618016e-05
Ni 7.123938868767367 4.085335245457227 3.539917085209074 0.12154247419188743 -1.3145114582104072 0.8442708310786039
Ni 4.506994021429272 2.3110965684596256 13.465775231818725 -1.5784238848624947 -0.10738880839932473 -0.6923664567654076
Ni 3.1306258180091953 0.6384324605494096 1.2278441588552185 0.8270765786875046 -0.018942602540773828 0.804983089222575
Ni 2.7283274594844045 8.043373430359347 11.302985019019648 0.8235685655342461 0.4171334628941784 0.03963972587880915
Ni 6.3558305174234 5.679299719612235 10.870313037160978 -0.828313022197767 -0.7198353516096377 0.49915062529793386
Ni 0.017592042475636803 2.9724539864724155 4.819711079990583 0.6593825456402193 1.4157049364322973 1.2125178526847245
Ni 8.467598156394978 4.28100514868132 10.924395298013758 -0.1029397714890356 -0.6486978122328634 -1.6002103846099667
Ni 6.9743726964691035 2.572128723122871 11.972065298288788 -1.081111341214564 -0.5605688805044153 -1.5439556758822959
Ni 1.2366952970709368 1.5859424064471985 -0.08208168562601767 -1.2722774892418605 -0.2304083813573709 0.6938291573538632
Ni 3.3717047003368497 9.242413178663258 5.81046515831374 -1.2170897883261231 0.18022121898001864 -1.0593446389614338
Ni 4.7155492551170655 0.3323776087957857 3.6066623559424245 0.43880889098508297 0.1648143975066452 0.32776963031736456
Ni 6.536280724060967 7.256219615727556 0.785313185470659 -0.0214028911558083 -0.9007908776525196 0.9775876721976002
P 2.627356861314513 3.3330301822304924 10.702303519820857 0.7784251362283885 1.325692414527891 0.07295942307686146
P 7.1358144932493675 7.353003176248567 7.669966557947591 -0.21058671864575343 -1.1933628770228286 0.02864183210640874
P 3.70520410174166 0.4898583938533477 9.10006316195897 -0.5613291557092075 -0.3208394788564346 -0.6451903133002372
P 5.870161940226221 0.8114812444403954 12.796640298739565 0.6046378457991717 -0.7927027291933252 -0.2766722974209171
P 7.993351299155916 5.667664942428622 12.560395036423381 -0.5762886052325171 0.9080143919841525 -0.4971870738136599
P 3.6550059667432526 5.869680245629447 7.428853401196705 -1.9675778318246113 -0.7616317188201336 -2.253162858354126
P -0.02320193185652546 2.476382658656449 1.668470585910995 -0.2596603362439528 0.6611784611983774 -0.9427677363049376
P 5.308042872506464 4.253826457394122 12.955606926361021 2.630237762664522 -0.9879551314748534 0.8434485922876249
