# total energy = -381176.4368095401 ev
CRYSTAL
PRIMVEC
9.17323000463306 0.00000000000000 0.00000000000000
0.00000000000000 9.17323000463306 0.00000000000000
0.00000000000000 0.00000000000000 13.42594935607968
PRIMCOORD
 96 1
Ni 6.333005185489793 1.0067803121443089 1.6967713905833297 -1.5567854806571124 0.7619443649645458 -0.2714290467441067
Ni 4.603631219031837 5.160354532903457 10.889948334357172 0.4353433010339858 -1.0477795598316535 0.5460735151017176
Ni 8.222763900995888 5.640527244464011 4.926061071713887 -0.20177400545012994 -0.03199249374619652 0.8573896278487492
Ni 5.019811479816836 4.770611520274301 2.1217432747661626 1.2821831783913467 0.21938323389146086 -0.8807874379473992
Ni 3.9347193052483704 0.45042117549398836 0.9394460537687633 0.9321418811599754 -0.41359459650298447 0.024332920318409706
Ni 0.2594097642605958 7.0539935245961995 9.58933663061709 0.2578045139821366 -0.4422510838974125 0.03183977021841613
Ni 1.6998545131042104 4.857087557181003 5.063341206976417 -0.6354378618991637 0.15783410953407012 -0.56488139183684
Ni 4.183277138708008 2.6251765450181686 2.0155842387727185 0.8593462373544878 -1.7908574269089998 0.9027325747599227
Ni 4.948141035735784 8.7175128746382 3.081120922148046 -0.8642112787562729 -0.5168778673743678 0.1917896405439084
Ni 3.926940406415562 8.848460729400392 7.744584532261242 0.48208055718952464 0.2889050920416831 1.0603998196988254
Ni 7.7914753308033 1.8739899335560966 -0.04143547880636201 -0.14722985165566257 0.5510496281600703 -1.491164243112877
Ni 2.5689446466159107 8.45749767721373 2.9703303224509643 0.5662507613805409 1.6893973252892842 -1.0090890852399912
Ni 7.463880949768808 5.203321941079016 2.3917793083757264 -1.097157081823517 -0.9723048265321061 -0.02861869217795716
Ni 6.426737247133231 1.498190230155558 11.437606662584239 0.46181152252784335 0.6019767540272407 0.14055398229738372
Ni 1.7845050772895346 5.433615874095115 8.242391860704094 -1.6426636686781708 1.7033982675540662 1.2851453463434641
Ni 2.6909944685151017 4.304042708441406 1.8718993544947793 -1.7547061737994232 0.026184628815167806 -1.0312838761694756
Ni 1.0679657546146286 6.862860109407056 6.447342155810418 -1.8542523462258778 0.16971620568363674 1.4702742870377452
Ni 5.106883776657656 0.3984805139714329 9.909961191683223 -0.35632404491628955 1.1187944575876345 -1.7002036718761686
Ni 4.420909655528643 2.6844631289290644 11.218535258851228 -1.0681434681999862 0.027005067833934134 -0.2943571162951898
Ni 1.8170608696924078 2.1783485236194764 10.413179808358949 -0.06356101258109699 -0.7777291386026283 0.3278529340597902
Ni 1.6987537255335299 0.6722619772902371 8.701827569078981 0.9033900058382635 0.4552729500783772 -2.432438939812056
Ni 3.6724933594527838 3.9022919380620764 4.305326043284223 0.9738369469059164 -0.49616171787293906 -0.14357040052620434
Ni 2.3190842145309674 1.934716714538633 6.571477970156048 1.993353655237135 -0.0242501307966163 0.7599229636591429
Ni 0.30418980263587514 8.607764353841363 1.4761029275498556 1.1818659321268226 -0.9516573254850836 -0.40255299397684213
P 0.27078732112655346 4.633049766858271 6.735731070192151 -0.7025840207283578 1.7272915292318962 0.8070170889334682
Ni 0.7110885895540865 0.07477833432227184 10.57356547473006 -1.6338039042946957 -0.4815282842304804 1.8550002801354957
P 2.486559870180237 3.8560405136339875 11.3067432015358 0.6206229083735182 2.544639310667411 1.7272645326487026
Ni 6.760945526821561 3.994758093999231 11.192810770647402 0.9726879209031377 -0.48755957802622485 -0.5165917035925168
P 8.03485946268074 5.917182680665266 11.642164182197831 1.069542662540358 0.6300830253451536 0.8855887159907846
P 6.949941579477633 3.212116477704966 1.6080928612122911 -0.6521389767039284 -0.16444878663711035 -0.024215935124571198
P 4.99175056999424 4.668972134581476 5.868012334528923 -0.15511131128626837 0.5359785927595608 -0.9925427508455359
Ni 1.4191995487294824 7.159146257285446 4.283267177690764 -0.6316822515114734 0.14315285337281153 0.18399662686205084
Ni 7.199701106035264 8.789128279340717 3.427322282418939 1.1851669714755975 0.18521095888512618 0.20744894434772013
Ni 8.4898057924132 2.110888591996278 7.553613483238773 -2.3155175093319476 -2.470586397416055 0.5318985091529161
Ni 5.721939658545583 3.3997365458976883 13.08965580613975 -0.7143216208802601 -0.32650927554770226 1.7243535296494947
Ni 3.096322798499142 4.209264898605822 6.952681623205652 1.2280450017860465 -0.8829669620972214 -2.4634958091178607
Ni 1.5911242208102523 2.950670256438612 3.3453842422723667 0.14717791537180458 0.0683761745815532 -0.07198111832399216
Ni 7.800345843977033 4.616547126527821 13.41730247458385 -0.4449625692913046 0.019858943707456122 -1.5860412921984364
Ni 5.781382187362326 2.9258566699495243 9.192465101144801 0.41231058758423833 -0.2542499638616589 -0.507386640054481
Ni 5.642407756563922 6.277011791061183 12.841074122282746 3.049209050098387 -0.49842351732392226 0.38388781346717116
Ni 0.46057502351053964 2.809072281930088 5.747567827836974 -0.16099348109865821 -0.015458243536599185 -2.100097373853293
Ni 0.8359876166153889 2.9022722962476966 12.701189707092581 -0.09132738406108788 -0.9561498140387985 -0.9489224430524239
Ni 2.477781089304061 6.1830137057548304 11.210103226059816 -0.6338813160453212 -0.5773867233927025 -0.9125960978175638
Ni 1.2798306690515862 5.209357926258248 13.006884836731363 0.04696042790993848 -0.44961138091722563 0.7318832839131074
Ni 1.7608106248306385 1.4554246330346239 1.5270409550601163 -0.07678522458085486 -0.15014342575803175 0.2872235905742021
Ni 3.0390543251344937 1.493218339627985 4.139274072893034 0.8418678780640663 -0.6749346344422055 -0.2274924932621566
Ni 4.54392266655218 0.3334258031901714 5.584321948428044 1.1973156910229896 -0.5882151814667741 -1.1680681070117818
Ni 7.022125724425002 3.859168584980671 6.358167354709597 2.1787199087532025 -0.7187621731501169 -0.5090133770246267
Ni 7.6482353481685115 8.32578844438182 5.773332678251725 0.9206238532180469 0.4946691924878126 -0.5387939507211688
Ni 0.5256444114594102 5.617484091317767 2.9124912741955127 2.6024423377188084 -2.4592429473787774 -1.1225636948220796
Ni 2.4239158841787654 0.5998173126178078 12.672068371910232 -1.5182060777220177 -0.9260630219557471 -1.421770425900087
Ni 8.722870040815511 3.5247951871567387 3.7357299360964715 -1.7033802698319374 -0.1446176108437961 0.16969049465202388
Ni 8.693479012678345 8.809832258899265 8.118845885031753 -0.568118410716899 0.23595373665563235 -0.017240532248002566
Ni 3.368896147459125 6.007566513447884 3.205230134127385 0.37742277456811774 0.7158483419374316 1.8683435342116208
Ni 5.705758081256581 7.351756562465252 6.455867755545337 -0.9371133662326376 -0.6195299324196556 -0.5230878528398217
Ni 1.0111926356567862 3.1965861997286167 8.396655313536273 1.2197105137784219 0.04499147710902574 0.30354341078014824
P 3.9256745007092797 7.408548027882606 4.807080612490942 0.46293895126406726 1.2878177509693047 -0.5299177312774616
Ni 7.413721729464804 1.7387031411194733 4.862852014759465 -0.035468110999622784 -0.6244769920122858 0.4371009071550408
P 5.469253871695894 1.6022605217336356 3.785271798037919 -0.7136857870684742 0.33515152460373243 0.39725420747174806
Ni 6.366414088259944 3.903557843768359 4.162178710269967 -1.203740620712727 -0.477502450900539 -1.0184394161066395
P 0.13584452480576792 0.6082062312293681 6.0878487856235575 0.14495365402697616 -0.27892149846640996 0.03841485233277255
P 9.266062840797519 0.3871662523907894 12.867604020059122 0.7247361313453649 -0.059350059823542946 -0.3659697955361697
P 4.3453681084907 7.375836290573886 1.3654590995288647 0.24057889413246955 -0.503591691788423 0.9958908413821623
Ni 3.2098415167255605 3.865819176553532 9.106163355603456 1.3919571991933966 -0.7172940732450228 2.6617890551082417
Ni 8.70565188856412 6.521680175104417 0.8731190160203904 0.9856305971067348 -0.013797825115040753 -0.4714205063725171
Ni 3.723294705839685 7.45021283743286 12.800245911286211 -1.4906289394346972 1.34250614365112 -0.3748267317061673
Ni 3.884853628296548 5.058751840129655 13.355918890350807 -1.6539937489790097 -0.8143694155334814 -0.17658825021312166
Ni 2.1862833673581306 6.658443857531703 1.4796199438381796 -0.929962099899837 0.7493873542351417 -2.635816285193564
Ni 3.931848084334846 6.288239824282123 9.000178610975372 0.3799316570329005 1.1777871340717587 -0.04427208244449795
Ni 5.254407657588343 7.505903515279533 10.918666047430273 -0.6779927045422388 -0.06569811352875782 -0.32136321257038847
Ni 2.268310387833333 8.951769642908749 5.8502768121193105 -0.9270030172715131 -1.0950366930464046 -0.4284087786976815
Ni 5.109617399124846 2.5041449516218566 6.403251026989788 -1.4005138305141558 0.5496715168656211 -0.3700948734481368
Ni 0.041294211068124684 3.4460980490828446 1.3280947000880692 1.0450814441742002 0.6401895176515361 1.5345958319339505
Ni 5.802471442570611 5.096591412871795 7.7345150779584415 -0.9675842811279851 1.4521937753869505 1.9307388086193908
Ni 7.961629569541226 6.466017016947011 7.271466951705774 -0.3846442320172214 -0.7827962687128905 0.8867480264062083
Ni 0.49032013831627563 0.288370567922222 3.860336337128568 0.22099223024979361 0.41629682592549594 0.850962898386799
Ni 6.629034482935025 8.84357139794062 12.915266287223632 -0.02342763489532094 -0.7427662493741982 1.3555498642089556
Ni 8.5200591041474 1.3018922866139728 2.0552575401430166 0.2551657908077089 1.4038907174061885 1.5918162470090007
Ni 3.0291105440793475 2.6843805698612635 13.308176816087421 1.3951744205791132 1.260997545452667 0.08247507587678055
Ni 6.232604185813984 7.777082533316653 8.676908490447703 0.22264622091344882 0.3631426105000197 -0.3417749434575211
Ni 7.506536468132674 8.29883749535966 10.860518778655031 1.043831373817183 0.01241122918015927 -1.0545852698995772
Ni 8.611552897730455 2.1399310374027296 10.923674630876867 0.1837927383813609 0.2916212054212655 -0.5452078246673127
Ni 6.832560931524077 5.95138965442416 9.959583778046522 -0.15404044681959278 0.011628585377863843 -1.2503128120453113
Ni 2.920407771474656 8.556385093979856 10.464882883230832 0.5915663573271941 -0.526513590691919 -0.11542581977118829
Ni 5.735149109393748 6.415399135155223 3.7602729123077667 0.6814922330550651 0.1652712825384057 1.1043464004831045
Ni 0.194932049630966 4.693813240759829 10.30618784310369 0.38699884829232706 -0.34234829946248785 0.9650085499810092
Ni 6.2400711948350995 0.7954483623561559 7.33341468956879 0.9940337335687657 -0.8393093733082707 1.053192760427425
Ni 8.016522176399155 4.160178946183231 8.423883294097052 -0.6124766251172999 1.375137556532896 1.0867829376780445
P 4.720241315685915 0.28213185436539073 12.123484464800818 -1.4572881591907225 0.12318592333258138 -0.05853244901825403
Ni 6.617329441766789 7.301459743714913 1.4130947643270841 -1.1258822176723513 0.5681932298188923 0.9413523440146497
P 2.166083915436145 7.72596929711806 8.420526809329452 -0.6913884091228545 -0.8665329849109141 0.22845768538890332
Ni 0.540451838931013 7.393990112260357 12.279520185621791 -0.42966373415070513 0.4250866563029841 -0.252728642121126
P 3.9570652929331827 1.9833164857841734 8.294578364784101 -0.1860779348711118 -0.8730219350693674 -0.5024557784117669
P 8.288380013438196 6.990129499037224 3.293250942924942 -0.9469542635824595 2.622315165383336 -0.18810756370663087
P 7.367158415225022 1.2095729023529087 9.375568271005832 -0.2321711296847485 -0.6691527376531057 -0.5440909374540501
Ni 3.3140769264392405 6.636547358104918 6.6679840164776 0.6760250392929067 -0.0864757123957414 0.08469290946370575
