# total energy = -340897.1120003619 ev
CRYSTAL
PRIMVEC
9.00390435293033 0.00000000000000 0.00000000000000
0.00000000000000 9.00390435293033 0.00000000000000
0.00000000000000 0.00000000000000 13.17812414912074
PRIMCOORD
 96 1
Ni 6.475238713037228 1.7699514644939522 11.401290886940844 0.035075503546894427 1.3243081325858546 -0.9696121101912915
Ni 4.7267885716814595 0.39336256501715255 6.067787739178234 -0.5261649491032486 -0.8873928590790587 -0.5930028326634045
Ni 2.9483824411796538 1.6804256454139863 4.728824354412423 -0.6875875473195255 -0.3858585640402968 0.3950320030094487
Ni 3.4388160969642922 4.491057356823511 4.952734343496453 -0.46187605721719166 -1.0177107654707311 -0.0972450350971035
Ni 4.957864768087799 4.425580965759495 2.7146410891414443 0.3705872397035231 0.510259847837218 -0.001027669933565972
Ni 7.3721356143943195 6.35175016745926 2.7201496777075835 -0.26035401987686774 -0.658682177139085 -0.09849896210886262
Ni 5.094273916137833 4.420484756003962 11.35067363891491 -0.2117203180295644 0.26720703824295916 0.4270733477157096
Ni 5.505626281670099 7.7542613070176465 12.38093997027704 -0.030946568980185413 0.24313868443984582 -0.16993500656266217
Ni 1.8928997758222166 6.417550699073099 0.45801329806953905 -0.36909291454618376 -0.0015940839599972547 -0.6322378669046272
Ni 2.7396629388068603 1.4311255469843278 0.36504168486688354 0.27267757443922713 0.09425972721653444 -0.2549678158642899
Ni 0.6027852723049765 0.032731892799094824 4.591323933177991 0.4574097939157219 0.015442302696999213 0.6233225666928685
Ni 8.481758755476168 2.168482270499931 1.245948552823179 0.7233886161785348 1.3746583029036326 0.8026811805622757
Ni 6.924929702490091 0.6870681179915737 4.803623387845484 -0.49399067836354926 -0.4373765294139306 -0.6058853450530275
Ni 0.8531037122953254 7.395284651994097 2.4847354002761275 0.5099726556141023 -0.20809377702057064 0.11034069193879706
Ni 7.4061523643172915 3.964229920417206 3.7233205602758535 1.3220085379184006 0.023014972837934557 -0.15444873800160494
Ni 7.4745370164255425 3.814422962974536 12.56640869093303 0.9669471617646185 -0.3933600146236645 -0.011975170084005183
Ni 7.8697904013166555 8.746635608105601 7.057096210899123 0.22152059194943785 -0.029279979911039897 -0.7257761425741048
Ni 6.818332481119508 0.6122897935380864 0.34135781535989956 -0.21624237426963402 -0.4192191417786135 0.49652989984563517
Ni 1.8615301737227896 6.392889005574152 9.138396378572384 -0.9106220048103285 0.5229302442160348 0.1011723951759677
Ni -0.008957083860077443 4.914033762628555 1.450555972165316 -0.08212180630241986 -1.0501622011312173 0.13864905196518704
Ni 6.250501265160738 2.1351228055807647 6.853824070544169 1.5682160910915572 -0.6044177593685656 1.4886504755520877
Ni 3.4679077113108043 4.350875572929717 0.5163495931333124 -0.30709153314272275 -0.2942491299624158 0.022907757836108936
Ni 5.799171565150442 5.61278174509871 4.776252419584275 1.1144554638926485 0.7477361917849639 -0.036698640972614216
Ni 4.9767369512107615 2.849159417317517 9.41930108100009 1.500737745733925 -0.3540684161128934 -0.21261043394400161
P 0.21020604694989348 5.582123451428059 12.414860378425482 0.35057171581354457 -1.2518865842903344 -0.6085500363693842
P 4.054602106488374 6.008773450131083 12.468204909021999 -0.5668326020259399 1.0524173157139811 -0.16154961071244434
P 2.458137867382411 8.484468930628847 1.3253899992420204 -0.5900033837154484 -0.5318077492113228 0.2265203591568744
P 6.336110385930356 7.735533186361273 5.796898979740024 -0.3860531965496061 -0.20142484964082727 -0.904028924973843
P 4.780460844389462 1.0170269906827378 12.51274722291002 -0.6530938844180301 -0.21344964201584526 0.313154451507351
P 3.885580817564596 6.106186689256715 8.126764527263347 -0.06148510388867476 0.2869086304369446 0.314222230650233
P 4.741879115056499 1.0136685344304168 3.646347083987739 0.8813913900799852 0.21329434738490363 0.9212853980614455
P 0.2662832624594917 5.661222749488754 3.707467386218316 0.5471932305284576 -1.3098500481789959 -0.8165545961102583
Ni 1.5843719958167748 1.2491656477801611 2.6024947616359935 -0.4342053307748006 -0.5668297738124625 -0.2174896164131738
Ni 1.905712331444342 6.847631185261739 4.815774156511723 -0.28850734238263215 -1.66066087658654 -0.5204951524119811
Ni 5.8464150502869785 5.487681500675794 9.091534658972304 0.34207344853454635 0.8886856097485533 0.7551836492019446
Ni 8.62213862526152 2.3069893282196445 10.057688690750917 -0.47394610100784823 0.06650929657614352 0.30427386118826955
Ni 2.175676389925144 5.372170414185109 6.8680430359963545 -0.4229778374900973 -0.9462955469525378 0.8218325566797459
Ni 0.5238849605262546 9.071793599097736 9.106241636030054 0.3257736829332583 0.20139656750605314 0.5178739127390501
Ni 1.5077577753047129 1.0690515489291468 11.420346749708704 -0.35710386050510756 0.5486117081425391 -0.6459534167185069
Ni 4.0889790125778145 6.700084207763659 1.5255918082778286 -0.033422027103871474 0.9141271897501095 0.5238576411263107
Ni 5.599068799060412 7.742106036399328 7.851420636045918 -0.5309276605992146 0.31670848740719654 1.1018316044810508
Ni 5.206084398018052 2.870876834155582 4.942376252148812 -0.2756554261206285 -0.2698730151108965 -1.7732420278200816
Ni 0.9666591508020852 7.556274458405622 7.068995770639249 -1.0355297959300231 -0.41698665290366893 -0.2791079034456032
Ni 5.035019222849565 4.562989547171479 7.044629405196807 0.1328535283293325 -0.6157923197540943 -0.35044367487611255
Ni 8.120089933108265 7.1641454282586245 9.089610524652944 -0.5274217043284852 -0.0476746803681437 0.4228582811930976
Ni 4.602894850416214 0.24239140276637197 10.365463744368439 -0.4417656596205618 0.23195567123983274 -0.1464700906715026
Ni 8.283888957618245 7.043844264753905 4.982806483006176 -0.2244205392050522 1.0298769685196199 0.1718813316557556
Ni 7.19875643585627 6.000823002756286 6.910067858280759 -0.16147402027950256 0.370953107683374 0.2288343520020317
Ni 2.2825707401330644 5.108779205742362 2.5606284080648356 -0.0799844482444429 0.3082292462915917 0.8491968076253118
Ni 2.3866018488175587 5.130595665526205 11.363825641723935 -0.8402848498476626 0.2605188275895062 0.11320618641205019
Ni 1.1226427864996944 3.380975016629413 3.9576012461733496 0.10519745717496078 0.4216251801169449 -0.6195397026116686
Ni 3.743733311400885 2.526315429694943 2.3776231555874934 0.06196435751793844 -0.08936666079029126 0.39261773714100123
Ni 1.0755163521172604 3.329067509137107 8.207888803370013 -0.37102612701315457 0.593733540181842 -0.5846305494393093
Ni 3.758148561963796 2.560845402155133 7.012356711509961 0.004685321290811286 -0.0737873182947955 0.4939353996455816
Ni 4.031363029846979 6.635958402323902 6.07498365938428 0.5491218150097381 1.9465760327619637 -0.580463048325181
Ni 0.8304012683419686 7.393186742324417 11.31074402512894 -0.27899503201682274 -0.45797106573583063 -0.0936380344721355
P 0.08940426637378265 5.549556330075123 8.024937574317642 1.039373080935513 0.26358229700617836 -0.9123122480285579
P 8.446931654178643 1.7324051841395864 7.769228496905671 -0.6115443431110178 -0.16803907509153 0.6975168906180955
P 1.6193161478684037 3.2024005853900523 10.394192501377235 0.6552618386036263 0.16520880473158644 0.501714272260052
P 3.992448156060032 6.11790076857111 3.7238085718814182 -0.934558718131584 1.3798210780514946 -0.539642157654077
P 6.820268320514277 3.877630370189799 10.245978334580771 1.0020820577945388 -0.49869194049396054 0.15800817321808916
P 6.278008192374787 7.793482313546092 10.21819858907062 0.19952763261811443 -1.5451419828809132 -0.10280041769769392
P 2.5622229994918757 8.604238863788025 5.840083504880457 -0.5302941407802738 0.7370054356310212 -0.725850447455466
P 6.7612027092134035 3.990701398652658 1.598599064782706 1.5156784262041574 -0.2842136001032847 -0.009182952050848701
Ni 5.304524082218119 2.9067213766233824 0.40417265235371164 -0.016084821377004555 -0.9012835010182219 -0.40843233557575465
Ni 1.471949248453559 1.1174925533191915 7.155945572738547 -0.04419134980523357 0.8213116511792693 -1.540330934645515
Ni 6.941577921285107 0.6091105149785837 9.123755130015013 -0.9558042577739216 0.6940872961112563 -0.12274549336105314
Ni 2.801726850193585 1.775930056857333 9.251951817079142 -0.15736565453808382 -1.4388713472464316 -0.13001657310116962
Ni 6.46985437834852 2.0023062152912567 2.5797364934768345 -0.4818946664309637 -0.5427837886068523 0.11533891648433683
Ni 3.9515974428783154 6.741988377732297 10.244792520402672 1.1066138563610424 0.7153567470129937 0.7117032094208066
Ni 8.137080300261427 6.991081386366235 0.3921740496678057 -0.45392389224965046 1.0680995023359283 0.14505495549153083
Ni 7.540112450435338 3.934273931271169 8.053915739471716 0.43090943363234824 -0.9959461201001301 0.3979856863211339
Ni 2.950966561674067 8.176283298981549 12.269611197269475 1.0823858370516133 0.11679158977046337 0.14853237251717002
Ni -0.051908407882722635 4.851501648225421 10.138523941533991 0.45655593055585886 -0.4755268152314068 0.2457498968104477
Ni 8.59467671756828 2.2695150790985728 5.504475582718231 0.14115047823080207 0.731097040566386 1.983406571326752
Ni 3.5215439684021606 2.720043431638475 11.584453707741016 -0.1585920707460172 -0.4200670916012056 -0.27057466916361145
Ni 1.2989932534111106 3.448243184621611 12.738765025958308 -1.4271774558482713 -0.17446991831853823 -0.6105295286932582
Ni 3.000668112646752 8.43083267353749 7.948780752136995 1.8448909596156355 -0.2968629134361791 1.1690831785398574
Ni 5.550636798574529 7.871861299273852 3.565459610560526 -0.024132631382145532 0.15807193657648905 0.3606319282630241
Ni 3.0623448561545232 8.430850681345813 3.5130902027847233 0.48851217174748124 -0.15979508991518285 -0.1914037179593994
Ni 3.2158254064951746 4.330274640207706 9.206356046404201 0.1978942107797495 -0.16440430655242008 -0.3222193899230967
Ni 7.23197183830885 5.936517119233294 11.375883670177307 -0.6731094083080086 1.1138617961727075 -0.31205273380274
Ni 0.479448892707342 8.981835592618008 0.286190894561051 0.7977706306345358 -0.6157121013354622 0.419506076891413
Ni 4.58888477554058 0.22931593314272455 1.5997974844266307 0.24379328730470917 -0.05829770729962863 -0.8645712331988529
Ni 5.887067677577138 5.527100593095797 0.408617879838352 0.6342317574062044 0.6044151882654042 -0.2198943691999245
Ni 7.9314851526327494 8.829759651326583 11.267928660059136 0.3579366408190481 -0.614791903514038 0.18672688130902035
Ni 0.07276325070209473 4.797577266200889 5.767405791267899 -0.26540855158163973 -0.5973138013339325 0.22914237016075376
Ni 8.075970802715846 8.8024958295249 2.505372348614786 -1.1496695498999363 0.5828675440016154 -0.19406069596627223
P 8.626928702275555 1.6964345870135216 3.4861145059162153 -1.0997510678029383 -0.40028630942985255 -0.3139625492309432
P 1.7938478261391526 3.1508352262558916 1.604410184528679 -0.18294093190402685 0.5637017697064421 0.543450989877206
P 4.817872066181402 0.9968132258396801 8.226140617496233 0.12211171643179615 -0.04505806868090304 -0.10207665215779196
P 8.585744844639855 1.6099430836360549 12.381150661634424 -0.7478498345446928 0.6268622044150107 -0.9896677432905858
P 6.2493577693321996 7.6903696030860935 1.3668214642421674 0.28333608259433785 -0.12093929339024978 0.36305647854411666
P 1.9717559684705461 3.2115125364017114 6.100298135934952 -1.4464666430951865 0.44836233900147293 -0.6951764154103769
P 6.86351407220301 3.9926282341432664 5.830489844996148 0.42820900398204964 0.20936698730603945 0.7647946899291473
P 2.406959676127204 8.465893876343221 10.10862287620334 -0.4383612619247031 0.13866370725320634 0.2232519728182478
