# total energy = -340885.0663338008 ev
CRYSTAL
PRIMVEC
9.16185600519946 0.00000000000000 0.00000000000000
0.00000000000000 9.16185600519946 0.00000000000000
0.00000000000000 0.00000000000000 13.40930235821232
PRIMCOORD
 96 1
Ni 6.6509752194311424 2.3131368672940336 11.256465739345039 0.935706458582782 -2.1693163560511155 -1.084742253098932
Ni 5.075076636349256 0.6713996937044755 5.813050827465097 -1.0293984862213046 -1.4076273016304854 1.01025868006806
Ni 2.8834328009993935 1.628953184887124 4.6662798953958635 0.7864300088107359 1.2882455825353427 -0.35009503328744224
Ni 3.50459476579269 4.16938224021752 4.097700165894654 0.3378954058974568 0.02050249082872598 0.8339604502915314
Ni 4.082268006624285 2.5212061091967692 2.299012379027252 -1.1595657259677257 0.1884459208826561 0.0118242463284377
Ni 5.532305535372053 4.5367338351164905 2.6057451245793133 -1.2235602265418153 0.8221061220561067 0.28900665061655384
Ni 5.602348917370341 2.7907650692110075 -0.18906150522297674 0.03675160569773671 0.7908559057925734 2.982578397453031
Ni 5.7048652173865815 8.018075037037859 12.419319018568572 1.2665447005231414 0.1330072802983774 0.42080962619418494
Ni 1.870343415960767 6.779480796715331 0.1937678441696394 0.7035232447131755 0.397963831944263 1.0934539219403168
Ni 1.1720799286058876 0.10427080420794331 13.051256046526714 -0.8880893709254511 0.28790339025004613 0.8354540041179225
Ni 8.138656164516487 0.1442359293147904 6.756311128054839 -1.2926521962434705 1.7243784693501594 0.9956887526736852
Ni 8.80990904160201 2.4990833068627185 1.328759706257465 -0.4340099269345429 -0.7632633408862856 -0.230460574751545
Ni 7.170724288611504 0.9486086202801461 4.729637193852796 0.5947406412901177 0.5547003375387802 -1.462106149404656
Ni 1.0488907543558084 8.100082605624058 2.604397329779242 0.25422913792605245 -1.8458543519701696 -0.17198931798852962
Ni 7.661347129162452 3.9344026975366377 3.8247881331606175 1.0857131016526334 -0.07962706490502415 -0.12068295440506956
Ni 7.964017340320523 3.8985922091748004 12.307713766744275 1.0867181458783801 1.1467143239263542 1.3322422998312666
Ni 8.423708381400285 7.241141551440664 9.00662233719535 0.6025583375623236 1.1359393447980373 1.3153828050717669
Ni 7.164651004870994 1.0091317196581737 13.337888593849298 -0.1663794280009199 -0.42328277032502587 0.33754882119131546
Ni 1.9820243558557051 6.758835279615458 9.185827067050283 -0.14411624572734535 -1.2199393419597764 -0.9138096585096909
Ni 0.12411566918707 4.742195030247776 1.2018536094058363 0.7832852925341671 2.3060607347944218 0.490951120206277
Ni 6.693479086570058 2.44569130040523 7.085372766350162 -1.219678632099222 -1.8293334714970106 -0.44512300612856887
Ni 3.689601943761867 4.088934028267398 13.277454861108893 0.15724558402045177 1.7168713623398366 1.0186654160745168
Ni 6.452025022183826 6.106796229618907 4.635475762549852 -0.9630483409308447 -0.9007052599172487 0.608869624492332
Ni 5.6296695751579815 3.0308421578542704 9.34928411868977 0.023030399456902273 -0.08025030031131986 -1.8251482297710695
P 0.2720812877659275 5.81136653991724 12.539892850811476 -0.28207161405961745 -0.4343575400819487 -0.36653466690070424
P 4.38307793267265 6.223501763118982 12.94559002848649 -0.3728557240227256 -1.2130793816151495 -3.163075752912572
P 2.6571801840537486 9.027015256758268 1.379201701768925 0.3940657824414375 -1.5916450115384586 -0.72171534224117
P 6.522360213611088 8.144428519783368 5.939469967332125 -1.8724272173626912 -0.08769544373545542 -1.0832476708312764
P 4.917298925721166 0.9974958186778567 12.164665137043619 0.7501707693683856 -0.14349481009326254 0.8789719820052153
P 4.239042622340279 6.563432390739102 8.294579061461665 -0.07249842428004287 -1.0867711106035025 0.1341380514687109
P 5.135180259673135 1.1109002580126695 3.6041145477351595 -1.16907237990658 0.6675023465338762 0.13941575492788247
P 0.32747218881188433 6.095625399916017 3.779409031241847 -1.1433088977892312 -0.4531379060132454 -2.402878195435804
Ni 0.6946240766329012 0.24151242627202596 4.672886643248716 0.1181506749015191 0.40372078903269826 0.029694698850955305
Ni 1.7168334182314138 6.980418945697528 5.044310803490798 1.4530712928958975 0.12461082870456604 -0.0024289211564667845
Ni 6.318166565686905 6.038914061203955 9.226013784942257 -0.6611838605150161 -0.1344787226375813 0.13054390635954935
Ni 8.892363443376324 2.49109502374457 10.06655899034227 0.574592705587333 0.8434933294826312 0.9661894576629877
Ni 2.73675296771695 5.469511793874827 7.021682622763307 -0.6601705887591534 0.3173286374896987 0.07149055184081882
Ni 0.5646156807894982 0.23188818654269486 9.04572753639119 1.969421312791253 0.17757066873104904 0.48811930718443675
Ni 2.0351427909735316 1.605726978149767 11.359155301209732 -1.074483037264769 0.3739019058990528 -0.8276519915750004
Ni 4.228017697351875 7.020415075556203 1.428450926239456 -0.07531301091070255 1.0342223899725091 2.526742375782332
Ni 5.777516646156318 8.328195507679407 8.090615213462799 -0.024076067112597247 -0.14184776140814281 -0.534991289145627
Ni 5.223954159393656 2.8330865554568154 4.9760693447164215 0.9322313555499879 1.1756793437001365 -0.3893303246389811
Ni 0.8834101867072841 8.287962282659691 6.917431880453606 1.700549999471994 -2.663281580493368 1.2509638153657487
Ni 5.491433977226458 5.250554412653519 6.989997590203582 -0.2403806620787344 0.006780513256943161 -0.1970848275045767
Ni 1.0514076106807044 7.37489057940172 11.17940251677101 -0.5461498768656078 1.1599639898474088 0.7078884636604067
Ni 4.7314072004204135 0.4559996518032469 10.01440079062666 0.49077705652225806 -0.3319731268757508 0.7041464801194712
Ni 8.295895851509908 7.6209132851603165 4.988828711998286 1.4263181931717694 -0.3096297261835442 -1.7845636234804878
Ni 7.526759149093098 6.591728786304873 6.983577782766166 -0.615199680475418 -1.0923048959375383 -0.09774460044134135
Ni 2.1278834751191607 5.546622435481064 2.669141634928264 0.5554007060399144 0.9214952000794064 -0.7026148739662932
Ni 2.564475976086741 5.4029792440688755 11.542965148615652 -0.26196738711057466 0.66040790158094 0.18366469744392885
Ni 1.309184765000139 3.4688116345648194 3.740744281902863 -1.182076762586048 0.22357001827929884 -0.14977987177102592
Ni 1.50262705927558 1.3605341054548132 2.4526062719674355 2.288599344784865 0.5943210372541958 -0.6921003475882145
Ni 1.1725358808386586 3.5137594056713883 8.153024131275568 1.8956635621828126 1.7201482333188953 -0.18215083190256373
Ni 4.113418663167202 3.400792680480036 7.195870054248827 -0.538584405813524 -1.1360997816353016 -0.028736962923376314
Ni 4.390044882789392 7.2194655822947285 5.778549833915777 -0.3375863592974702 0.2511183602112127 -0.20356015081627524
Ni 8.354330689661843 7.646446610195495 0.10870539562387442 0.3757746974417334 -0.38702070266919797 0.09646059152259516
P 0.2944594233503301 5.911685150171524 7.658384351553907 2.2830917847030743 -0.27213815699598937 0.7539014400554114
P 8.863182500478977 2.0397479085245185 7.815941381301336 -0.7592930433846278 -2.03668882768966 0.6133400015588598
P 2.030410006797368 3.782160247014388 10.180085624875465 0.3385721202495072 -1.5141128814892504 0.4153534881756202
P 4.34601813519302 6.042151322056629 3.5737636314085224 -0.40577535756888183 2.059985850544388 0.6557058681195804
P 7.245737549946995 4.335102638740482 10.328126931524961 0.3385170986418557 -0.1881823828086243 -1.5726175625933625
P 6.578597362001067 8.18108707929816 10.228627211480736 -0.21642569392503375 0.041865272775218225 -0.27301927404936205
P 2.5707681168989813 8.87841130505353 5.7788562338161995 1.4282866297520498 -0.0008008986347405562 0.20500562501355016
P 7.220933748484251 4.111813711307849 1.486269316972686 0.12046878151173446 0.6541642346640734 -1.5533887962707376
Ni 3.221293405482733 1.7991327962465862 0.18900040762378542 -1.3690854368015455 -0.40169758795508237 -0.4033973442550085
Ni 1.6816339058614895 1.5492800917327123 6.7638388994178875 0.2280445091108847 0.021270736453318208 0.7885300858728742
Ni 7.505010227589919 0.8067153735373332 9.067776474463534 -2.5966835808581603 0.010456419446633605 0.5135997108437284
Ni 3.051250579793102 1.8424938535831121 8.878013714706555 -1.325170737696466 0.5907813995320536 1.1348067738554908
Ni 6.386869448120845 2.3545920442975765 2.328589088462644 1.504348603013635 -1.7941345549983747 -0.38480184064100825
Ni 4.314785407248205 6.986519586572005 10.630855504568828 0.1418395338780267 -0.07571975943081798 -0.5838772162130526
Ni 7.5601895667998695 6.6341323439525794 11.324800212374901 0.5224257937757907 -0.9681722924209714 -0.0866196941727734
Ni 7.968832195898585 4.034821617282131 8.101719474139706 -0.5495362768393375 2.2716357203473327 0.5083783145437889
Ni 3.3601855746294467 8.52231261125935 12.274680939384478 -0.7571981085288121 0.06600304636368633 -0.01723256182820258
Ni 0.20833095848434638 5.154275539181585 10.250569456730608 0.29009911234978425 -0.4499764775661283 -0.1894082847959254
Ni 8.914112364879504 2.7661983629093037 5.757315226531165 -0.6973286858666894 -0.723487089429612 -0.5819841129553976
Ni 4.11250675870166 2.7811991913674707 11.262485220722082 -1.1511299364955465 -0.4546602561950428 -0.6298297716837669
Ni 1.3917941905335958 3.642246744866267 12.860638832285522 -0.6750685889169084 -0.20384914281160377 -1.0167072639068813
Ni 3.2044140538255492 8.475623102623596 8.24661106276522 0.6204673566322604 1.0467639740829457 -2.5381439327510544
Ni 5.764832055040628 8.239321298467678 3.5416655061259066 0.15985371106726018 -1.2779380299617475 -0.15459631932306278
Ni 3.266022319517572 8.580464759026968 3.6952986109581083 0.5899493905490614 -0.7783472318026015 -1.0094220430993777
Ni 3.97639589817485 4.668494911342665 9.735482043178097 -0.7387144479023278 0.68646088991425 -2.148390661642042
Ni 5.502385949857619 4.583578367511388 11.484506600947613 0.12814686688228252 1.7202083971328697 0.6296171414523286
Ni 8.25865367313717 0.11574803381125588 1.9615566601266134 0.40049302612402 1.500831848109628 0.9900333541601207
Ni 4.819260076630737 0.33784327829849436 1.0094025552844397 1.3903379184224185 -0.6423219906135067 1.2909436981927962
Ni 6.622742657177959 5.745964751648563 13.29499169588573 -0.5827808978250802 0.11207747212424568 2.136780073986307
Ni 8.19094476657067 0.025898086821394998 11.469078089295106 0.6709571378516961 0.17269637135788324 -1.056722113736922
Ni 0.4241194716878959 5.012684132816867 5.5957804695050415 -0.34523744808482476 0.13733804646324735 1.2250699783181225
Ni 7.584592130297776 6.203759031439996 2.4600802409670184 0.8561950933200158 -0.6414462728767727 0.5045442855096794
P 8.92899464575715 1.8155197194923773 3.5084721835801753 -2.494184496450969 0.6382244235053653 1.095073716931927
P 2.1771719114817096 3.536620850622528 1.5390147831641054 -0.06055513587523765 -0.14587693717219394 0.8347968301498977
P 4.820937980847335 1.2590209003506692 7.912704476044471 0.8880574892462512 1.201941362720459 -0.016630152357513295
P 9.039088871882045 1.9987669218430577 12.438778147958775 0.07248762564676549 -1.815847521195434 -0.5888836682887084
P 6.736083263200183 7.88247484301175 1.571353651225624 -1.9449197281054633 0.6870183050796168 -1.7484486229254854
P 2.2237884677602207 3.5988127351724977 5.9569274664204634 0.30630246158252405 -0.8666882795418557 -0.8893859782496877
P 7.01817179057097 4.204527038319512 5.875926640364223 0.1684000579753745 0.2650007746202598 -0.38258786370882497
P 2.462506818749826 8.896740584810926 10.12178757239336 -0.7075087117234848 0.12384952505850928 1.7798361360978316
