# total energy = -381163.75686643773 ev
CRYSTAL
PRIMVEC
9.32349795071896 0.00000000000000 0.00000000000000
0.00000000000000 9.32349795071896 0.00000000000000
0.00000000000000 0.00000000000000 13.64588168449816
PRIMCOORD
 96 1
Ni 0.6952299438870307 0.8559213658320787 6.329573677886519 0.4897473297061631 0.075747784455276 -1.3301563638365155
Ni 3.93420851888797 4.446348269016573 1.6601849581421741 1.232255183212652 0.1112698886212858 1.1383487255704783
Ni 2.8107736164349206 2.5450912148389864 7.196578818248961 1.767758121887375 -0.5005670460294863 0.5590537294114695
Ni 7.352128330996924 7.303086731039223 7.024981700587084 -2.597119125733682 -0.7349691219272826 -0.5652295192048782
Ni 4.772297762271552 6.158366282444838 6.464941546667097 -1.2442414090402507 2.298740804094241 -0.12721638464821317
Ni 0.3849401980253894 8.796729772184362 13.465237421359124 0.8314032310873165 0.7306581532567544 2.014188075483983
Ni 0.9900063212753609 5.425837684445492 4.067045990286701 -1.5031903210394757 -1.8852937889127146 -1.3021218262968024
Ni 7.046709180537925 2.9450599594369646 11.004039042341313 0.35937748703063266 0.1906637544695813 1.1678300228590468
Ni 0.936983587632882 2.890014026708778 3.4423511065061314 -0.12420150908128932 0.7853869122582022 1.0757799016993215
Ni 7.038933383130184 8.598474908781219 3.2123357468566196 3.1419392280442726 -0.7020713427579974 0.8884621808838375
Ni 6.356285499916711 6.408897999643194 3.5487620549162493 0.06170364765738405 -0.5384026288200211 -0.18069507329264364
Ni 1.2388971028097329 3.097070272309652 12.30496910734849 0.18926353168794502 1.4794649523980778 -1.986375938367721
Ni 5.256989134020787 8.58138493678075 2.2087227124675195 -2.601454262773926 -0.16715641537626053 -1.5161499665239373
Ni 2.6144300701403957 5.075302126725028 -0.2157998221104427 0.4744271544093249 -0.9473191031210458 0.7510192334116098
Ni 4.925035307995323 3.152013646558839 8.491982845937711 0.2298003154597268 -0.25246073317172 1.356984025552321
Ni 2.907299792169154 2.5205331208677735 2.474544034185007 0.44077141402809256 0.1320703703064048 -0.13331144180235752
Ni 4.792324636170628 4.078676121805187 12.858705644209275 0.2666624785933988 0.48350314856866405 -0.44145429902773
Ni 5.337954391441446 2.3679727216077273 1.7917721484469262 0.40832974855961934 0.730059343330491 -0.731006794845425
Ni 5.878018018352048 2.259242086872614 5.480172234269349 -0.6318072071251118 0.8190552510449248 1.4257690055365186
Ni 8.428507538585617 3.9378726536376614 4.699505483277303 -0.9892360550698059 0.12538061699105502 -0.8852925249066044
Ni 6.790350277032808 5.375556059241713 13.258406804412049 1.4150716737236726 0.8099118939827599 -0.19486930791049667
Ni 8.867448505203212 8.62894410054201 9.756041273045133 -0.28196028529273376 -1.5536443639249693 -0.4608527581589999
Ni 1.988226644368732 7.081215446972041 4.895569324629103 1.4587351760498941 2.8876805224318653 1.6058796670806021
Ni 1.3941986105084794 6.815066870471566 9.433138698966234 -0.5229546696960671 -0.2003241603774808 -0.3424295463223844
P 6.320166268312884 4.632407996916926 1.7348419367545858 -0.1834520672124905 -0.2877743208713496 0.31158196481390854
Ni 3.450915671852356 2.754413070475929 11.286359226280313 0.39736065114262537 -0.2191202100380613 -0.22317972481941561
P 1.2438572037940478 9.34279773186545 1.9720345252344091 0.5455654651170475 -1.6271033523460687 -0.24256224311108548
Ni 8.28642675117965 8.368855797800567 5.167012715695353 1.9378453377571854 -1.6538873053081324 -0.4860505975808661
P 5.931460309408613 8.177304529524722 13.69241470818979 -2.555768330701037 1.6248970887233691 -2.405009897066826
P 4.978887832967884 8.167039358126733 8.144380460716619 0.515486643453796 -1.2868651572480483 -1.0765797718927974
P 2.721090888299347 2.5169901915932624 4.822591508022848 -0.31952435958943676 -2.0929160256135053 -0.16074742652612317
Ni 1.3540795982236917 8.35087076998338 11.249446564988956 0.33296994357138143 2.501730427119027 -1.0684185762382439
Ni 7.241626231624555 3.2220704112132417 13.71383824210287 -0.111652211661369 -1.3351180787171653 0.21859827609632032
Ni 2.023982259547017 0.4681253803414719 4.220944311522779 -0.2778840583408311 -0.017305324047666968 -0.8439054773193855
Ni 8.44392860442783 5.474282580525379 1.9769470763784611 -0.5579185873657617 -1.231978789622814 2.2447121564836117
Ni 0.5924299862874866 4.525308974347706 8.508835068736863 1.3203707452046614 0.9369477871890507 -0.49100948424803825
Ni 3.828554638522826 5.579367727506982 8.754774963125493 -0.4956127873480045 -0.8646298543509302 0.08072261196204808
Ni 2.9222267126125523 2.8242553946742426 0.2117702062355914 1.592422770244748 -1.2612909083233697 -0.9799263476331059
Ni 1.5593643791873106 0.09323684560779275 8.445559284243913 0.3377835629099408 -0.6904887801267204 0.5217521647475337
Ni 8.355541842526879 9.336178048220969 7.615507828564425 -0.1018064292155408 0.4191016423641427 -0.04196708846040514
Ni 9.091454870333193 0.7527466036092837 3.3536529397689487 -0.9212280624609489 0.3044499817548176 0.16409474573180124
Ni 3.0887350650164613 0.05715304329671102 6.330406266266029 0.2556576428424629 -0.009007088594616746 -1.3698817074505958
Ni 7.568069870278347 0.22151139704087747 12.70535274761151 -0.3992825507556865 1.048594599533781 0.6416612171010562
Ni 8.570998559907581 7.707362931755159 11.955006944760612 -1.5591002448332183 -2.2493869362514616 -1.1636833476805248
Ni 7.703558944534105 3.6640974556988977 8.706714195166947 -1.0242372537353395 0.03254708069808589 0.560490461857996
Ni 0.32470946800889955 4.067441306605752 0.2768370347117883 -1.181472553343146 0.8500236744019811 2.545814561922435
Ni 1.044492844118098 1.8785543363264463 1.0761936699766865 -1.5514725530846314 -0.2985001919292859 0.019983642210778488
Ni 3.1218987477254987 4.504806602045998 4.894573575033004 1.0056024122429714 1.344108969361866 0.3800632975147583
Ni 1.950848740522645 4.606964170627085 10.39475030680601 2.788014022377463 0.7404771962297053 0.4067508341082736
Ni 5.799420929446456 9.29490292217292 11.385100665160923 -1.1306094479446915 -1.69229650121395 0.6872731014029002
Ni 5.437771762001738 4.594424065694936 10.412831366653533 -2.470495123253829 -1.1439231343344622 0.5207216666004902
Ni 4.689393217248003 6.286993262105756 0.4391190454311297 0.23243929574447067 1.489426177375848 0.16833680883760688
Ni 6.392647142470898 4.5762152739235695 6.370266085303892 2.391621648685378 -1.2605357753249 -1.9493515386245717
Ni 0.4297190946559676 2.0802495705251003 8.509108247230925 -0.5287861887761797 0.6705187647626969 -0.27100969981850104
Ni 1.6802155614404866 1.1022239442964399 12.48370336279889 1.7581249696729848 -2.427415004234903 0.0223858238943679
Ni 5.464725994982291 1.6316960773758724 10.04416067279662 -0.04374809162022788 -0.11088550869867353 0.14563885301945884
P 2.422263450990557 2.2290432765564563 9.349980554794614 0.7495907284951994 -0.38115704479956936 0.8172842751874312
Ni 4.043265476056262 0.7191391223911231 8.326007797624598 -0.46604715787574574 0.30502770863515855 0.5453397222594867
P 4.448380791600371 4.142075908822745 6.864083296984419 -2.328359655401939 0.5317815239590777 -1.9358486190421305
Ni 5.711630871423319 6.685255806553114 11.616480052581121 -1.9663084781938844 1.8505813251321934 1.9715347595898303
P 8.173687012265486 6.590379889980955 8.805810859324817 1.6871512095675847 -0.11660929855632822 0.7673621935460074
P 3.8069054759559484 8.502265731982074 4.018220695484708 0.5003942678970479 -0.7202888942072885 0.7136395072115709
P 7.721562619347474 1.3325982586224483 9.309984612684627 -1.7378075982718717 0.5647250687646339 -0.8195123931870014
Ni 6.261847787754821 1.1542210931489287 7.557048563185192 -0.13099873450878086 -0.40044186117111036 0.5598044915345649
Ni 7.274314415930961 5.696750568470375 10.60938655635472 3.9034033109382906 -0.5356636326223032 -0.6737858655497428
Ni 3.309142559883386 6.628009528275495 2.9234257144670317 0.02704080616787601 -0.28047855854088466 -0.44927868016815525
Ni 3.136723109689899 0.3644201110773093 10.585915582260895 0.2689975544844787 1.0787132732960327 -0.17475608210038934
Ni 8.082307407477384 2.6697557078113068 6.7171720052176 0.42780585500636004 -0.6847961006173174 -0.5954615786165421
Ni 0.3587905829300737 7.578437600155335 2.960146311697716 -0.18263754173099514 -0.03132246426236541 -0.04505935423248369
Ni 8.83719375389851 5.086369118958828 6.739004840696867 -1.369806888348602 0.664290781575114 -1.4567142889651237
Ni 3.9852267004409234 7.487757257724045 10.26526463297093 -0.036792743348317274 1.3888132542477758 -1.5665410173819796
Ni -0.3496861870443905 1.272657489396583 10.907672298424433 1.2302368672310424 -0.12379784588496745 2.2536590812642543
Ni 9.424098635217378 3.534286391780446 10.393113100541264 -2.4859736785054025 -0.5344690980935698 1.2154813061884229
Ni 5.2277040265175305 1.7791005821916963 13.03992274720126 0.10499254025300628 -0.8404239465286881 -0.4166135858349664
Ni 2.318381035262669 7.253122104770532 0.6203501336702485 -0.5226373955659643 0.5075691883789323 1.516637447683317
Ni 7.5162591913876735 0.9132515555925153 1.31817853647519 -0.367843872630431 -0.3449132319761866 0.05767884276870711
Ni 4.3670425942560795 1.3654729128906706 3.667521976547655 -0.4517952759424219 -1.326672004832341 1.5877004250684141
Ni 2.154371380347099 5.729019195362694 6.895755219998928 -0.5877104739162137 -1.947940517209658 -0.6546206054752016
Ni 5.6780569547982855 8.26624137781303 5.5936513265821155 -0.7691082297028368 1.0029120098950017 -0.6698075976282851
Ni 3.5311909904142946 8.345789463523884 12.642282080076557 0.9931101933132316 -0.06351370428292932 -0.46723449331562755
Ni 0.010063783839228365 6.395891719806503 0.19956667958452043 0.43766860673305263 0.2517750199586051 -0.5227919188659578
Ni 3.286579694503608 0.16237338100063142 1.0729173927475733 -0.5575948854777558 1.0969454800333431 0.12931389060719017
Ni 2.8609899771520637 7.585271724255905 7.763087615144356 1.076571030142049 1.1508041777250118 0.3047937382474815
Ni 1.5241122329059298 6.4593847418049695 12.143565370149304 -0.8749705741553061 -0.8509652123796441 -1.559044194784302
Ni 7.3838002540114305 7.340716369333763 1.0503358803716134 1.2098467336104648 0.35312147881859185 1.5334360072978948
Ni 5.614125728389551 4.109154637064068 3.9538400764679955 -0.024309009059009748 -0.2694513541924456 -0.8269282260350984
Ni 0.26968964107536764 7.2730184496963375 7.1184693482935195 2.1360020581697023 0.7999108169059902 0.35917642676342015
Ni 6.2632742829627155 5.583954888567665 8.354295290832138 -0.32759016731670676 0.6669415889343997 1.3405150813630204
P 7.663784901678678 0.8912648823947494 5.572691170524148 -1.1073926435085961 1.9229370531867853 0.009229489018067976
Ni 6.625501507289065 1.3959793986438254 3.597586417368433 1.7279451036554951 0.8398243652714763 -1.1029942573305842
P 1.7947360884899972 4.730453902839963 2.005917049646249 -0.5443094812227594 0.16436419734310403 0.4793970968200904
Ni 1.0744492434838946 3.2348715740919345 6.148643738635734 -1.73537302068845 1.5452923924158481 -1.2805631262894204
P 8.861220408478546 4.904178642766164 12.013479263037175 -0.12513636219073285 0.5797043157822855 0.5275939682402913
P 3.5211868769628474 5.853310748411381 11.451432692328043 0.7620050429991522 -1.4990423603093732 0.37572044716503034
P 8.18435309408138 6.201142491685508 4.757077151638292 0.39528885621526116 -0.8054140061124064 -0.1729208286638635
Ni 8.333174770607009 2.968722997591459 2.264711250852687 -1.205840183554233 0.11154628221112402 -0.32827330942666044
