# total energy = -340872.5848450897 ev
CRYSTAL
PRIMVEC
9.17004179255976 0.00000000000000 0.00000000000000

0.00000000000000 9.17004179255976 0.00000000000000

0.00000000000000 0.00000000000000 13.42128308543700

PRIMCOORD
 96 1
Ni 3.844778526307817 8.030856845522099 9.830459246400892 -1.2854533645021862 -1.0439897537719183 -1.3947267915187336
Ni 8.3115885110703 8.229947627214036 7.9079278475961035 -1.790480246075239 2.0900140214753615 0.5959104932285028
Ni 3.205718299873698 4.76711968996396 4.18082388515277 -1.2038678903192106 0.478794173128769 -0.974174018530361
Ni 0.9759033789323902 5.64607738495516 3.991945779227508 1.2182115606353923 -0.7956798095437779 0.46534421827145017
Ni 6.146633297139589 8.810420455360202 9.354997154128027 1.806048275716825 0.164496094935278 0.5946341976192404
Ni 4.503884464536814 0.8936893674516169 8.554994437693583 -1.8503851499609874 1.8213388833273085 -1.2126019277580986
Ni 3.688062508661683 4.633081186164455 13.074826522258974 2.5127810285062337 -0.33843945132638487 -1.9429165816325058
Ni 8.103978760367639 5.965451607458354 8.065439824887157 0.33885468448693257 -1.1245745546045214 -0.9987499080975123
Ni 0.4787972365454148 1.7217395743233022 5.693536937285621 -0.1313237219483674 1.328735315119273 -0.06593722612275742
Ni 1.120230669847107 1.0871726684653447 1.057789102909844 1.0162089841142241 -0.4547620718802297 0.8770048309765154
Ni 1.1430182241976419 4.724717415792179 8.002292164716499 -0.491582840253005 -0.5906633858969506 1.4853342666946612
Ni 2.413353311414531 8.83970039944119 2.78862077386838 -1.3636274990107677 -0.3694538974300282 -1.2094880647194655
Ni 1.290564199851609 3.466569314382881 2.2683043381950303 -0.5428789194238198 0.9383516095151129 0.271737579123461
Ni 0.41115808980699164 1.0961409695336841 7.817977988690738 0.3980407079287855 0.527397535958769 1.1975910561715633
Ni 4.544672811317972 8.149214577514998 11.972335298645715 2.433118482377584 0.6289550823882974 1.625354230865446
Ni 5.998335378042264 1.2888585720410661 1.9505550471328497 -0.6517445694789872 1.4066708512544872 -0.5688714868328396
Ni 7.620809247800358 1.874099822023157 3.7897142581532526 1.3238106241241459 0.6047327195058231 -1.9754261242244362
Ni 1.7162742292959705 1.7558062803242027 3.8077792408778217 0.007871175217960637 -0.18734368895741285 -1.0017370157502943
Ni 2.1561794837442068 1.2804404734922568 9.761916850526239 0.2924732690089156 -0.6346634456269844 -0.9545765560144077
Ni 2.4358199142953394 9.068978959371343 11.811655071846367 -1.107316281744706 0.8153549193752022 -1.704895163814567
Ni 7.612666250511314 5.6289110663458235 11.621475736962417 -0.34145201290046356 0.5949938949515042 0.7257614872860856
Ni 5.4966423806508065 2.2099801201122506 4.679974946903998 0.0745812749510006 0.9685983242147963 -1.637053521580245
Ni 6.6447866583220705 7.26235230632655 6.279522794677476 1.7731001029255786 -0.010517868812188337 0.5276934699326331
Ni 3.914195744188522 6.850113068568681 0.8580224891230832 -0.4507321247852302 1.420664851540734 -0.9553134341804322
P 5.526820988847029 3.4352627910216227 2.675666947621464 1.0451205249422515 0.16704997170538327 0.14447234351518345
P 7.743174288143835 0.7888501113635698 10.7706333907192 -1.4890579954031515 0.7083813441364252 0.8661856288738243
P 2.1836804396787155 3.320866517169339 13.680582990185941 0.045344489573070294 -1.7068957391843638 0.3448885493858383
P 6.651985141285921 0.4671173540599916 7.015385652397707 -0.9733453519814785 0.08773452450350695 1.2269761942018997
P 1.6353852888830653 7.018108237865181 10.181962545032038 -0.2910365365623891 0.35551363319985224 0.8375875055211573
P 3.956625528486278 0.5274654004104428 3.9241956749809797 -0.24494231330748786 1.2316139500842271 -0.4872464176611802
P 0.22943720165661635 3.4650745975381576 4.287656708369914 -0.33274677181698176 -0.3754013732627148 -0.7989142573206758
P 7.843797158923884 3.7022577336655575 7.723317479213997 0.1732247330575275 1.5270691845396025 0.07043177155900128
Ni 7.43703243623534 2.4653382794681256 5.981006749689667 0.38755137836168735 0.01786916697093697 1.5886738447252768
Ni 4.606185453001428 6.307219072506418 5.680504473606353 0.5038171775356679 -1.8502977324535037 0.4256486994540411
Ni 2.841814353456542 2.9526159708478965 8.229407511740698 -0.054617173124247874 -0.24195314877217688 -0.23855672149611817
Ni 8.009316416882498 7.394098299628014 0.5580071422695542 -0.7582987977921585 -0.47045068626008013 -0.8158771104272595
Ni 1.8620687269294338 6.110943493706075 6.239353425730788 1.2213737604134578 0.10528873133718641 0.4002865665401687
Ni 5.248051712285151 5.716384096909105 8.167696797150212 -0.14988991498632892 1.1275500922930775 -0.17660316261145714
Ni 6.884005543771731 4.647560682470087 9.620791738275187 -0.5875088994283688 -0.9375594526311208 -1.0521890017532587
Ni 8.986723682701603 4.756409080917109 5.964122868373688 -0.7705483045834729 0.27006867606147034 0.18010526222744463
Ni 7.302471240042281 8.621205808893826 2.4928694965412084 0.6624699263162913 -0.010129889345150295 0.291296217981679
Ni 4.316072834495241 2.2284210745584985 13.260550133738931 -1.8907260156718793 0.09222444195406053 -0.13939158655816639
Ni 9.356835747547457 8.971024570811014 12.646123391108372 -1.120648737187554 -0.4695783109574558 1.0344453046165927
Ni 7.764274554767812 3.4795265837178126 1.9447577465854016 -0.2093063092714331 0.30503850726843595 -0.04603328810997879
Ni 4.063273116855181 4.961460389903955 2.0204133440333774 0.11625525765101914 -1.7947408211238056 0.33737887127235444
Ni 6.2708231758395065 5.8643152143267425 1.934154427029859 0.8266708586086537 0.04806934470340108 0.5384527653316662
Ni 1.417275840099373 4.350167050622118 11.78200740908149 0.9973265453874243 -1.8244553174691032 0.27035792516711504
Ni 0.619521617961409 6.273959330200828 12.536754134276192 -1.1308989541606522 2.352308195797736 0.1695969064969531
Ni 3.9334069821621114 0.19581157467553914 0.9870266398688887 0.10230805144230767 -0.2839359209618659 -0.6732418201208148
Ni 8.921194562625578 5.962067861963243 2.1543839895221404 -0.29901492678217534 -0.7534054742555992 -0.9491684976249589
Ni 3.003500533862431 7.408586965975637 4.700630466491354 1.2513597652525867 -0.4964926188497965 -0.9597406167138504
Ni 9.24881265287973 5.398614631754541 10.179626935336634 1.2319096269477752 0.040740158031839516 -1.1598693732510734
Ni 1.9737048181420753 5.434772107329656 0.7932324744316264 -1.7149363501006532 1.0303978740200965 1.641304326436799
Ni 3.46191093305086 1.9085791799137053 5.614927669311968 -1.2317779864659173 -2.110634525939191 1.2039789619757781
Ni 1.4345338591286312 8.199521427884026 8.18823127218327 1.2477419659943416 -1.84143256875339 0.24444429062514675
Ni 1.796246165509659 9.049043288080371 5.262968619593809 -1.2792179251154354 0.7123251592755216 0.43606063881598445
P 2.0410312664485653 8.200337561621328 0.1701189510218856 -0.1509774916235529 -0.8020170646157155 2.0235093528849086
P 2.4316383751469117 0.5855044301872662 7.19811616217142 1.6065337557248331 1.9200803004642801 0.6484224470842899
P 8.144657066644891 5.070235428015041 0.29391910293713636 0.0023389325458217786 -0.3036115450139223 -0.045759208512985705
P 7.920467880020392 1.0199012404108074 0.708979045611795 0.22895699362282504 0.25088027605847757 0.26733867872481704
P 5.849010414241817 7.925199621688351 0.689191929001097 -0.23970857571237428 0.4575622603331862 -0.18544364372122257
P 4.20422583231678 3.900880843215895 5.671807605780982 1.9129544880527767 0.23617922240287714 2.053152115452006
P 0.9973796172780454 3.281857158534661 9.877715223799125 0.7364549624441896 0.3771867472979117 -0.4624154746604294
P 6.257939266840512 6.782520689044419 4.071279480518542 -1.223883414209189 -0.5204897530953423 0.9396451315155561
Ni 7.854856229566437 0.16816940009435088 5.210853436943926 -0.09652178377783377 -1.2394126201930398 1.6705830207962584
Ni 7.673610349591256 1.8817476370446244 8.827486820511822 -0.029530405358949137 -0.712158037570038 -0.7847893878835194
Ni 6.445631686336187 2.98733374983024 13.268871029842623 2.666479004384743 -0.6285228799468853 3.1486644625832483
Ni 5.899335604694829 5.904782609638176 -0.3916689995610391 -1.0251494811369635 0.1313923704027737 0.7016201141531917
Ni 7.810445716198372 3.312402568410569 11.32376482166152 0.7720860813842381 -1.1073430212175834 0.02448384407397719
Ni 6.607354546910044 4.919571638083737 6.26234363800935 -1.1888500767541397 -1.0860835976181746 0.35992693177619944
Ni 1.9625173669116316 3.6499609841842293 6.083894620841781 0.06862582869851407 0.11027692858039717 -1.2292307945640315
Ni 6.025166920911345 0.5833357152561187 12.68068344536845 0.708595002809128 1.8009520921408404 0.9763579135555572
Ni 0.5070024517049221 1.6760635951603182 11.326073838235146 0.03856706163992068 1.5785442124904427 0.5846575460225027
Ni 0.24990748639573077 8.819397926470533 10.235191887783971 0.6064219342827879 -1.5310590224252858 -1.0934176693857427
Ni 3.495464116700199 3.174301736008534 10.91581166153079 -0.034737403481185335 -0.9987378239126542 -0.00619558728775062
Ni 4.920011800099361 7.876543378877912 2.8612300833665576 -0.8240347065373873 0.39900949959995796 -0.40507730306059275
Ni 4.619298613050228 8.063181243544488 7.384094700818759 0.9002504317680172 1.0874568238166176 -0.71080640863815
Ni 5.491277906085389 8.874830830313181 5.091431063075735 -0.4715449477655234 0.18539247876831297 0.1927949418799712
Ni 2.9212819373606616 5.269812221932564 9.78400839868957 -0.6148189000972315 0.036735150637504474 -1.0382279115874764
Ni 8.29394535027737 7.066351828785972 4.185668418337231 1.0712992402201487 -0.07766891273738882 1.3492198082258697
Ni 5.09033616006187 5.972072377776698 10.752649104364162 0.8404807679085526 -0.3909766019931525 -0.10115953966016127
Ni 9.182146447596676 2.8089947731665768 0.03653528130519182 -0.9413073497093274 1.088951663194589 -0.6351452703594094
Ni 3.525340113510679 2.4330138814457367 2.308098652424238 0.7660172494823388 -0.7197006258039863 -0.2707651879078627
Ni 5.862031873870694 2.4460170009906292 10.044810811976195 -1.7037631070926529 -0.6571531420890683 1.0092024708894038
Ni 3.040336592544966 6.607180316112193 11.883218079553238 -2.1156324933744144 -1.1900790640652343 0.15573634646477694
Ni 7.153779009139292 4.699472290187743 4.004052068665567 0.282112751710198 -0.6057153951340665 -0.4706193506274604
Ni 7.141757084087561 8.009664878478201 11.77285479016911 0.41047173460328656 -0.7877605546967015 -1.553449474305344
Ni 5.420265100898048 2.893524220250372 7.278187134838623 -0.6488911591905921 0.14135513804244043 0.21521907521144226
P -0.013721133832879505 8.97524279012741 3.6380536846574 2.282301427591295 0.8394613255051028 -1.3591350104570528
P 6.95204725535361 6.876779550681903 9.597573191951021 -0.06188516754057085 -0.6288491529380524 1.001530813276759
P 3.216346378542619 6.705235575134435 7.893956371616839 -1.0380924144508767 -1.7775949054721383 0.3297702056871611
P 0.03721019639581531 7.076448045019348 6.41668828279631 -1.0472658534200288 -0.23234982135445792 -0.9046441899603387
P 4.568450730203661 3.939660950800769 9.100019551514828 0.5312261656762399 -0.29086710086406037 -0.24364390621103846
P 4.080687026598306 0.8332349486140566 10.753897147079297 1.2395900263111683 1.0712298204347936 0.24812585324179207
P 5.444290610917525 3.749199178623461 11.78980561279163 -0.9458047233590485 2.2644500012321713 -1.679661328948443
P 2.705015667017395 6.580284582949168 2.830656246360473 -0.5375752478227194 -0.9398341075979104 -1.2460139275596411
