# total energy = -340891.65193142544 ev
CRYSTAL
PRIMVEC
9.06191066490050 0.00000000000000 0.00000000000000
0.00000000000000 9.06191066490050 0.00000000000000
0.00000000000000 0.00000000000000 13.26302225004991
PRIMCOORD
 96 1
Ni 6.480453082440348 1.7525281715917098 11.184480829239737 -0.944485747437309 1.326765850097728 1.6386460628783455
Ni 4.721916864219898 0.334558484307395 6.262494199900685 0.13765017838702745 -0.4937636499544077 -0.6256465868403547
Ni 3.0233886170032487 1.4919619984954664 4.928685193544128 -1.2097444037046456 0.9450830147016757 -0.170128610630707
Ni 3.4402999311035085 4.162969165717101 4.410697330277994 -0.33946917814247984 0.28572463743117243 0.3185684234340707
Ni 5.277266984273809 4.48173998963748 2.6017143627701587 -0.235291163370969 0.20049976672339662 0.20155751856394966
Ni 7.390513563261675 6.114868429132225 2.701054649893699 0.32477455224478263 -0.8907134388118595 -0.7485314339927496
Ni 5.035631142108846 4.600641316659661 11.271393612371337 0.207670573440223 0.27591382198833775 0.36398978899166345
Ni 5.719270728411751 7.70477155577766 12.45901769172108 -1.125686042501145 0.696512360612981 0.39643479689424627
Ni 1.7369416856166964 6.442266191801565 0.38960415314845437 1.1289544288397717 1.3488989345513416 -0.44105474959646623
Ni 2.5171993611437835 1.3997570596607205 0.34825737433555076 0.6729168326812281 0.6119143248559268 0.7083736308269413
Ni 0.7478830942513118 0.2250933246374119 4.895142532011271 -1.1725428549536838 -0.8361651712523341 -1.3222188541569937
Ni 8.525970942720509 2.363110635841964 1.3066830836137633 0.6511704421430721 -0.05823677215470615 0.051994390789420135
Ni 7.094433763109572 0.6022926285700546 4.89619008885936 -1.6104657437893877 0.1708022396589639 -0.4507609211406366
Ni 0.6214078224745276 7.361288902058525 2.63633086069141 0.11148817527967897 0.5236617230654207 -0.9116861844087848
Ni 7.402158118190682 3.83492800740577 4.0699178444462705 0.9158128049826485 -0.2539956817590077 -0.1496664861216132
Ni 7.72875843274037 3.870550377387036 12.458659746258283 0.632575195639388 -0.4297827762270727 -0.005299814946358615
Ni 8.18074840219486 8.850641070344222 6.9313483731124075 -0.07202868373247595 0.17054307246030626 0.7591619171234023
Ni 6.711749284781187 0.6897310025077905 0.327838171517238 0.36311329992398106 0.17776941500541643 -0.09834983812550803
Ni 1.7913222102306823 6.665814460707151 9.203993050735093 0.46535424557377925 -0.2857423780429853 -0.08338087552050155
Ni 0.35146891539923963 4.926362625895641 1.450006259300283 -1.5642504215755897 -1.0197699619926053 0.057989432030590454
Ni 6.339948160903961 1.8479500886364146 6.9963902353715115 0.9520265358990443 0.2403768054239925 1.4035490177960537
Ni 3.3800019789652875 4.395869326207696 0.7165914112743821 1.0006345267147347 0.029267381505549594 -1.0573528053423853
Ni 5.9628005098608865 5.761988574275829 4.84661328297523 1.4685884146948902 -1.2370032394205985 1.2130793816151495
Ni 5.4857181103687145 2.9289363243767568 9.218688750912813 -0.16778145055476912 0.23840862595402812 0.17840859125131212
P 0.17191078458499368 5.759623415648225 12.195083206510352 -0.00930507945100978 -0.9576973610315764 0.21027972892829588
P 3.9098790687425935 6.241182398902988 12.604552879748589 0.771320149752491 -0.5256993223207399 1.078911762460084
P 2.383989277520121 8.386598759990447 1.38821399812876 -0.2942056783189901 -0.2619637875661488 -0.2073376155808365
P 6.596708331610958 7.826445827397722 5.985110933390238 -2.000243954599065 -0.7025331128857644 -0.5503909115301489
P 4.685460798477177 1.0937363437443213 12.888580339001408 -0.3222805821783353 0.038120975241437566 -1.5440276667708117
P 3.8707588013274 6.3907492308899645 8.260130737742024 0.030079335883883684 -0.8227370707718863 -0.9715031565664172
P 4.8004292563638025 0.9225115457804373 3.8982272642852256 1.3869270929686566 0.17900817250852397 -0.43111923565030913
P 9.454291173099774 5.42690631154439 3.77840977811649 -1.4734660545021656 -0.10033113022159494 -0.9195604449505389
Ni 1.376032978101078 0.8863028701930177 2.6344342028341017 0.18327414687372953 0.9736937364598327 0.42880164326072606
Ni 1.8070446248624548 6.698618576538284 4.61038558896718 1.1629816936278101 0.07377806232341487 1.490622254566478
Ni 5.873060410668701 5.384052537023553 9.095846399035672 0.13307644297341598 1.0763257469004626 -0.2239099181172208
Ni 8.658791364194796 2.3177557740367645 10.246281304087239 0.6530082666827594 0.9607286916587324 0.07252747774576541
Ni 2.359594614587135 5.24175335721795 6.976018154487543 -0.13571388059626305 0.3234828300165526 -0.2666038574413215
Ni 0.5284715874664193 8.774385093902513 9.110090816072951 -1.582076136903101 0.11083280108386719 -0.20655420044759265
Ni 1.5404250955852177 1.162045024720863 11.340706353025805 -0.3140237414861818 1.0954786656798294 0.758963685069667
Ni 4.454155534225886 6.947340832675608 1.6079027993734403 -0.5920263276827482 -1.1522090284923383 -0.45781294289141156
Ni 5.555884482987627 7.828847233667128 8.024048940492227 -0.02712668101346296 -0.16814860408620075 -0.03933942102957096
Ni 5.270153384570096 2.7341143115995385 5.1009448616814685 0.2060366373812258 0.5015525498712071 -0.6227926623313275
Ni 0.9974988547590633 7.450340296056465 6.8252306831628715 0.0957620227936738 -0.18913471941956458 0.2711148579377976
Ni 4.792626951465845 4.820138911593834 6.761395867375786 0.707703087122478 -0.3743150821770715 0.5499705361632786
Ni 7.91745459405299 6.9755324360873905 9.314938926572703 0.862096032185483 0.46190382513133355 -0.10716589375524126
Ni 4.445347357267913 0.47974116401837563 10.425159791617691 0.09579981801014469 -0.27260764043324015 0.015262839696341457
Ni 8.313668504684104 7.235355532526686 4.804795284818896 0.19227429348981082 -0.14334542899959185 -0.24890258350681652
Ni 7.333468836975215 6.139562135110081 7.172801164686269 -0.3692286687930996 -0.839958062635863 -1.1388413489361806
Ni 2.436303686551373 5.606241519361551 2.484110701324502 0.5435934289923412 -0.3716946138350889 1.709995718265926
Ni 2.3034742031666355 5.28710821902315 11.536893089516884 -0.30984312774593087 -0.7145915867121951 -0.7277612913249337
Ni 0.9076862602832731 3.2737329551112277 3.48845311085585 0.5345328614519698 0.41919214519542 0.7119220102998319
Ni 3.654124770095613 2.4692709167706166 2.578622802559967 -0.39076885685772056 0.6350550246384482 -0.14436744250620298
Ni 1.069713219139809 3.4143828672148238 8.093361681146694 0.8898354070822805 -0.4468086213611079 0.29798854240019
Ni 3.4962481662254468 2.801897401769946 7.272419652460641 1.1794079575046332 0.14114173648005368 0.5489971165064158
Ni 3.9625831399232205 7.037253108166354 5.872521226996891 0.8969607052731521 -0.056363980612025515 1.5384910532232987
Ni 0.7794411973954889 7.838815335162777 11.805866903129182 0.5645546046250407 -0.9942653899635973 -0.6490839919276886
P 0.24874309853135976 5.728595434265407 7.926631590766302 0.47486218506421446 -0.7483990221799434 -0.05188743289791064
P 8.59442461426426 1.484576541478236 8.25592601129295 0.2869320274757123 0.9408442940299796 -1.2225788364651526
P 1.9862167182915056 3.2742585459173617 10.299704890957644 -0.4137033541667069 -0.28984868690187504 0.09704268927831029
P 4.113119596328409 6.215500944686019 3.9661345026288064 -1.076630422625075 -0.805680886620548 -2.5551921464825926
P 7.131587595956988 4.04116802735073 10.338565081542905 -0.8293365783662751 -0.09146596652148119 0.28170086098376
P 6.12540743098626 7.782223704398846 10.200404476240086 -0.3780565514973747 -0.10636345245860392 0.9996870751998009
P 2.591298602898252 8.607718436895276 5.761947795678801 -0.5065638870428695 0.20648066689717987 0.47132974643092374
P 7.217014225774693 4.064139970342975 1.5243991069533505 -0.8821835469639774 0.5413624827792933 0.5306098722484797
Ni 5.521041437305111 2.9328057601391584 0.4283719122471203 -0.48643343484158164 0.3324089288615888 -0.17433313563035785
Ni 1.3006378831521752 0.9968826448484231 6.9324095228261715 0.7684009192231669 0.9426162983287378 0.6617703291461056
Ni 6.893304660658743 0.5078249306957968 9.204086388412735 -0.45246504831593687 0.4039444750077301 -0.6712926668142439
Ni 2.33890627302844 1.3304878161764162 9.003005314087295 0.1061330816153527 3.031571539522282 1.6446848128732576
Ni 6.283057487095162 2.0170906471966634 2.6064890833865744 0.6195199051173266 -0.051906716171620286 0.5194466565428086
Ni 3.7991062753945903 6.969578760921354 10.51439333001569 1.6372124157556125 0.41916591994317487 -0.34887221662393464
Ni 8.201545486678963 7.156163497098986 0.2962710064626103 -0.6168909521349117 -0.2033642327553852 0.5216081829705017
Ni 7.808630111451864 3.68867783464371 8.232517284216987 -0.5452263366100739 0.06505456640748797 0.452777180239717
Ni 3.0978412732652902 8.490257953634737 12.441709442760454 0.999471102534253 -0.9093120277496533 0.2584244069543227
Ni 9.430639586823736 4.985826882272408 9.99225420557214 -1.0662331385511508 -1.2317036815845561 1.1636445240227895
Ni 8.598511535877476 2.4293894488775734 6.054052135716231 -0.19721466821422162 -1.8905144138817056 -0.43926320491368215
Ni 3.630482245730026 2.825104954433905 11.758982390839924 0.08880538897018254 -0.5748269330853261 -0.06701606100923296
Ni 1.2238472539938818 3.2906334181015766 12.632736327440966 -0.8139904349275078 0.47834808673028584 -0.5212325447986379
Ni 3.057932619640895 8.513547063492751 8.171865011380149 1.4679186423213753 -2.0094212502229585 -1.46397739828544
Ni 5.81966763429383 7.697105179536462 3.6419192829097145 -0.47906850983607824 1.99500430346668 -0.11560733965437509
Ni 3.2163801238694485 8.369544244522437 3.406766331481103 -0.5048679873976853 -0.8422885105412526 2.0606844192733087
Ni 3.549332837644999 4.495124431372999 9.259366760734464 -0.6945714348365264 -0.29006131713331335 -0.03330324213782006
Ni 7.097641679409081 6.151043575650978 11.438520614429466 0.8897860419015837 -1.1955997367731475 -0.44265808952784413
Ni 0.46323217555949214 0.09672683214958976 0.5947667119408403 -0.3577502358398548 -0.0162650557086107 -1.2085303287918863
Ni 4.446525405626489 0.29019137074130996 1.787099359960708 1.2131835112931815 0.7313346104984889 -1.8826288404860414
Ni 5.954536047529949 5.331883118559511 0.23671884955447287 -0.38344609794406226 1.0609214965302503 0.31584871051006247
Ni 7.9124796052156166 8.906879286600578 11.338968278601383 -0.81746168130556 -1.181970833135803 -0.32527951690565915
Ni 9.206266684067145 4.555938912406904 5.894258937785764 0.49791006802261345 2.375797794279244 -0.2793110205953448
Ni 7.921559639487107 9.042454528851843 2.3449686911198837 0.4081487428970648 0.2306099558452157 1.2350715696155246
P 8.530112235796429 1.640803877646395 3.762361134708496 0.011893151893160162 0.5246040323740321 -0.879475404004195
P 1.7742858185835746 3.1795072102460002 1.4697286012049455 0.3567613895640243 -0.5975716829810095 0.681532085154065
P 4.551924486077294 1.2502264753155472 8.298195292589723 0.2403194698234958 -1.3322500131407506 0.2989128539866723
P 8.58288880226066 1.562327733144292 12.353855127133036 -0.005040904858017124 0.8337902432622544 1.2469014723709169
P 6.426135991199516 7.84516773438864 1.4538394474208822 -0.3467988790346737 -0.6207530061934793 -0.3433150342511313
P 2.041476248219199 3.273252673857346 5.907270028810721 -1.7807756171929652 0.054002679468700535 -0.8515411394877721
P 6.9439969877193395 3.9548623922193187 6.297017360144295 -1.643747645770969 0.7025500821666288 -1.2612857661170473
P 2.2315588818307592 8.552948250131914 10.30349820667226 1.3512982880214535 -0.5137040976320765 0.24245425677831148
