# total energy = -340859.5997574743 ev
CRYSTAL
PRIMVEC
9.32673420987267 0.00000000000000 0.00000000000000

0.00000000000000 9.32673420987267 0.00000000000000

0.00000000000000 0.00000000000000 13.65061827688367

PRIMCOORD
 96 1
Ni 3.6501479288730363 7.935045394226976 7.697815251329698 -0.33030756624786983 -0.6701755224906653 0.8253063741609593
Ni 7.222436282235212 7.88088504983412 13.414339339605055 1.2376809822139136 0.2537550265031113 1.1749699763379378
Ni 2.9975936571680997 6.671981767731688 0.5831978795904893 1.1807958389910953 0.6452191096556437 0.806134943438831
Ni 0.8243387220579279 6.969663137111192 10.553811365439781 0.09501357466342346 -1.5864953490167193 0.3521228623507484
Ni 1.8259600041674156 3.0076945101003303 0.5583281433543001 2.287542878495892 -0.5500337853010463 -2.1043000990807306
Ni 5.912067460844011 1.5561002823380892 11.915392350603453 1.384236433510371 1.9195640229494941 -1.021613185848931
Ni 5.788021898518373 3.9628639934757697 5.354754998823339 -0.8991952510306256 0.9031946019980059 -1.312349931782714
Ni 8.769368385042016 8.543708055683457 7.300978574675564 -0.6504369064111573 0.3457802079621722 0.16994220565151377
Ni 5.259783664425348 6.979661395969319 9.657156878566209 -0.5416080231311963 0.22916756697173432 -1.2944936203275836
Ni 5.898487736126257 8.6299430383348 11.213764535234413 0.5317722679876971 0.0978055355862638 -0.45271367399163326
Ni 3.0010352220175855 6.320671677797865 9.380376720101872 -1.2435847492928582 0.07253030595924283 0.2478720853597731
Ni 5.133434398799376 2.4565498172801057 9.641868496177924 1.7451318998474268 -2.4284349608589855 -0.556861349745841
Ni 7.678858664455498 6.355945385821591 8.329197836833192 0.07015177842473726 0.3236517514942491 0.5302398905035707
Ni 0.7261459337330738 0.6420066682136536 3.7960590864104216 2.1711156140433836 1.4907736925426776 -0.6554073630425551
Ni 7.543938130274844 2.94045808462623 10.371507291797535 0.9873254683106544 0.4074224062540015 1.0619193416671453
Ni 0.7681600724254276 6.667523588875173 8.06574091790135 -0.08541693211392386 0.19356652993867307 -0.5368411978701721
Ni 3.3150103957115937 5.666914257405709 3.997256325135603 0.6291119196811359 0.2796637759490732 -0.7257236920696147
Ni 7.166401264306458 1.0112511349742412 9.136508740610072 -0.6083003822524232 -1.6041827389941534 0.24794176225544395
Ni 4.556482632975013 3.226014699793455 11.878085414565668 -1.6169636928089055 1.6259604969908772 -0.4053544679813793
Ni 2.571893536774931 6.308910666211952 6.351891987221086 0.2582958517962584 0.17411433475133242 -0.6583875287168015
Ni 2.1539159521415843 3.7847327006293496 10.937953424433658 1.6883187475131247 0.7404825955463441 -0.07140647676744477
Ni 8.701535048591312 8.260072747722178 4.203093614030485 -1.3794914626262178 -1.2990704410649887 0.7054986232719914
Ni 2.4316381107408738 0.7055058713701685 7.335637650928068 -0.9466141066342212 0.7190195405765617 -0.3612672478541778
Ni 9.144620201178087 1.5459341422677926 5.69809539454609 -1.4979640396435299 -1.1994687328102502 2.0461322324907467
P 5.198012705080784 6.368806952020618 5.2472979656069025 -0.4807654379225269 -0.7281009340525396 0.011922205358882693
P 0.5353647915496418 0.5162076798942387 8.68184724577077 -3.003711836997536 3.571164074885347 -0.7861893535548395
P 2.7192839143262146 0.8078322682080094 13.52153802228943 -0.35692105507034017 0.6126499174703707 -0.5723902986193756
P 0.6991497021427306 2.55320276182 10.243601394265387 -2.0676559654951356 -0.6471032140522339 -0.14106563182647963
P 8.860126833687941 9.39332689027399 2.2154136381796716 -0.878567547477945 2.646263962889449 -0.08259488928409647
P 0.20581303938645681 3.083511530863121 1.6353299550749367 -2.3173306512812863 0.653081800233172 1.3144978313636522
P 1.7860788895430222 1.8947353407530743 5.175495171161777 2.719587454173949 0.5158638242875567 -0.8265333045895249
P 7.740144633631571 5.537207367536336 3.130919319833138 -0.2750188209778941 0.02337492728051458 0.6550240115612074
Ni 7.437482788291021 3.0371203559001336 2.369883939517526 -1.9632473227700575 1.0681681507903344 -1.3866064764044441
Ni 5.856461472679691 7.400222485923282 7.111493848519445 1.634565722161385 1.7197404563575156 -1.3113947669582962
Ni 5.295738224031766 9.353128666693276 13.380513140699593 -0.609615501519421 -0.9947955514354544 2.596776654792599
Ni 8.491664879910745 5.499359480926002 11.36535474111015 -0.02375827876186231 0.05669102493414107 1.2092260693073305
Ni 3.9594504088283116 1.8041914069893674 5.784108400928008 0.9442368646512964 0.22559296224659856 0.4134909810455847
Ni 7.725193879014429 1.6322530655252203 4.0546157392937 -2.4248873527170436 -2.685461973245149 -0.7784984126684851
Ni 1.1506764816814576 5.257358713582893 1.2687622609750602 -0.9631421861962315 0.027023836887011522 0.44487720866634994
Ni 1.1251492106976024 2.9384994704842464 6.868049302751673 2.0599015183606975 2.2093913696951306 1.9209341638241435
Ni 3.5207115142899372 3.9944629682997745 5.787070571649409 -1.2906148540984677 1.1386282044841098 0.14076044188123502
Ni 5.152106520286288 2.1387133757061867 3.4069617336373264 2.028035008669404 2.4245358829148955 2.354691865538564
Ni 5.773313638985475 8.468926302395715 4.65073860687448 -0.013670041287924843 0.348510976629774 2.14735142174425
Ni 1.876016585596115 9.27487736835402 1.5901745723682013 0.16727468612167964 -1.4485700625914342 1.6115623192876758
Ni 5.547774557169039 2.71969429062263 0.6639459446240747 -0.5329475192427209 -0.1804060812973151 0.24016623207508314
Ni 6.9744384249240285 4.141927959723134 8.377261295204072 -0.9360211616097235 -0.6982915640005909 -1.4486906473296985
Ni 7.7046284305235995 5.438875610874741 1.0889493579867375 -0.21306500498291692 -0.8637865325140285 -1.2291508332557153
Ni 4.440905745129952 7.731004434302314 2.669146190311633 -2.446501588552709 -1.3865596823269086 0.6038752566015342
Ni 3.7649973314653606 0.6380362775458321 11.640469144880397 1.1443589363203002 1.2976869304539005 -0.024634253608912415
Ni 6.74927241246797 8.306184120664883 2.539710708401935 3.5247170962767163 -2.150133355364762 -2.0055838787547393
Ni 6.327620094634902 5.094579224916022 10.459267195459423 -0.022813912570722003 -0.9014719628799442 -2.5479730030263346
Ni 7.772004757007841 2.9201724381556837 0.15281200803097497 0.6224303938959023 2.9023517512907953 -2.9122263300920297
Ni 8.700173345425933 3.6662551985073506 3.983059170626424 1.1650159504490194 1.0861483894178392 2.4428776186468766
Ni 4.0907428434792905 4.2925547139756945 9.479754003645928 -0.5608869259654662 1.433771821236337 0.2592433033111922
Ni 0.1689621806417326 3.25878884310265 12.340704478861829 0.49770386554907836 -0.18931263975832557 -1.1007735955301818
Ni 1.8823867449245673 8.39131854870311 5.3085885981499805 -0.6088210306425837 -0.14805980375612565 -0.49105884942873496
P 3.5235934750988562 5.580268898457951 11.634571850966225 1.4803357850388053 0.3359992173160084 -0.8256185060847394
P 7.323025108527093 7.248159414633267 10.315894774919409 0.8803552355059869 -1.0105160474945047 -0.027176046194159646
P 1.9755141840088908 7.279888963733404 2.662102640787699 1.5158743442650473 -0.6881413629404665 -0.274928575256933
P 5.332895932325401 7.2374709774584405 0.8770711434739376 0.5347148955557888 -0.9319485342022467 -1.8103013945662243
P 4.000963701904358 3.7506155076227943 2.64569411764488 -0.31382628076339497 2.325590320186917 -0.4964003162463063
P 7.02345973887768 0.24496480341131152 6.553771010202358 -0.4019251305848562 -1.4530977752584586 -0.08616023803785161
P 2.14707945611266 4.946480015580021 7.924538828365334 -0.16905800327434756 -1.612168071192475 0.16690547570771902
P 3.8981830931202577 9.019772539727636 5.930961558600348 0.6749965980283923 -0.7766433617376173 -0.1628629302072292
Ni 7.385579513528452 5.578086442699741 5.223259241370955 0.768960905491695 1.998864557753035 0.4196356604907418
Ni 2.8762901546412376 7.807520960115813 11.258401351530221 1.2877077077540018 -0.7009580550891606 0.144155583605713
Ni 7.482428319482544 1.0219582256170858 0.9629796904349498 -3.3596052221343107 -2.8363900996880056 1.3042573845825667
Ni 6.082317663452448 6.177748805837106 12.401313327148815 -1.4658141943838625 0.29053645699751895 1.3467335514689063
Ni 0.31976521016707277 4.727423013900149 9.384745362311898 -0.07060197858827841 -0.9958707867775042 -0.3902644064174763
Ni 3.486267885593051 1.8985313214949189 1.8728650821743231 -0.9492744270752038 -1.549422869644454 -1.5887401791868379
Ni 8.600657093545138 2.336085720814094 8.087239972466525 0.808642283241717 0.30721366054288385 0.615931930655752
Ni 2.704417100315157 2.3811524995477398 9.2268754664276 -0.464829997639193 -1.2435590382612456 -1.0036170063818264
Ni 5.144710420216797 0.4626535732119966 7.851904089246566 0.018295970095710424 1.0196547765709796 0.016081221832578756
Ni 5.714331373109735 5.217067222662083 2.0621576776098474 -1.9431631504256726 -0.2112310370979717 0.7227615241174971
Ni 1.5408697257006632 0.6874026806578328 11.445933992258164 -1.4600135285416855 0.8993996537319477 -0.09939190623677721
Ni 3.425047203555044 0.37500465768482183 3.8968419087696993 -0.7321640483783196 -0.04094276096094884 -0.6395038044384213
Ni 0.24434271025288143 0.9715379015620178 0.20444387483387008 1.1856973900577708 0.573840915022973 -1.4398396246969718
Ni 6.759848928834684 2.2742028406614163 6.3387739358368 0.19397996332700787 0.3299301283037931 1.0770220016365386
Ni 8.890615927164822 8.774665969959381 10.884757464337378 -1.323422644657108 0.7876636241075209 -0.2108991076798497
Ni 1.8178550723132065 8.525091894600601 9.080760053415409 2.696312028585776 -1.949262064234559 1.9661305578551238
Ni 3.8888283789087827 4.306582121925903 0.18994733216298731 -0.6125270187392612 1.0169371205295001 0.8762916069595746
Ni -0.12869773724955094 7.513598264542115 1.8401991289796376 0.4211569822312747 -3.4791604906928404 -1.2124954840872215
Ni 1.7399115561962617 3.8245298746476584 3.32198679275066 1.5959073863592388 -2.7312201533168703 -2.6681252817389147
Ni 4.728047905078783 5.546804576832057 7.58186715947106 -0.33116554337279097 -0.06066286509769552 -0.4870641264470451
Ni 1.335383122004537 4.6590300734088785 5.224787893075104 -0.8082350205009693 -0.13572673611206948 3.8099647940714707
Ni 1.820373290495757 5.089067125116439 12.659719819614542 -2.018293098791292 1.5940160828737968 1.6017941841573187
Ni 1.4120768557642158 7.961197556389465 12.978352764272866 -1.722978246568523 0.0307683915311083 0.48445188563517855
Ni 0.5651776968108377 5.74189187210765 3.5723666979278557 -1.0386737408756435 3.4518682306357906 -0.9917675632424081
P 4.820298631166218 3.411252963955073 7.394239386056223 1.220964697900497 -1.6929978981563487 0.98971993668476
P 9.00928929070102 6.34451080992601 13.496980731642557 2.6098933946802143 0.9771978929583494 -2.387218891631992
P 4.118769679177677 8.974808355068095 9.759659550676828 0.41669817512897267 -0.13037267088900772 -1.0138461403090022
P 5.350579420007311 0.2968298385644428 2.746176619169053 -1.6072544359409418 1.4376696136288465 -0.6785830298280701
P 7.581664769343055 0.47177978244024005 12.34976913164561 1.5769275028226262 -0.3771188701744537 0.8580354889628642
P 8.449909091750452 4.047877173971875 6.334446331256416 -0.009125102229719769 -1.6002625780041406 1.0238122503827787
P 6.534701569846644 4.060953255053119 12.251156640290331 1.029057300831802 -1.625204849771775 1.469704016356572
P 0.14811413211041677 7.121306505370784 5.8318855285648 0.9009991370085837 -1.5666693154297278 0.8681414670486146
