# total energy = -381166.06130452204 ev
CRYSTAL
PRIMVEC
9.22272697350363 0.00000000000000 0.00000000000000
0.00000000000000 9.22272697350363 0.00000000000000
0.00000000000000 0.00000000000000 13.49839317324993
PRIMCOORD
 96 1
Ni 4.187348569435811 3.2044825663637897 4.295661196128858 0.0017807460495066106 0.09238847833575056 -0.08369532143712682
Ni 8.800574997779913 8.028678871974218 1.82469898904376 -1.82128231905776 -1.1735702677769335 0.07407579606949179
Ni 3.0488121594401463 8.437457795256204 1.2342959831391078 1.1870636742776781 1.5470659393765034 2.319427128798999
Ni 1.517959393634427 8.400437769579831 10.59673794759964 0.7245289004305651 1.5058107893814583 0.006226440525686051
Ni 6.157083239043616 1.8429037296223831 1.0743102623106378 -0.12987439109635052 -0.033201426452633145 0.20527533373516907
Ni 2.9629024585992356 4.393817755987122 11.757060283019502 -0.2229231287239193 0.9125156222886156 0.46273017768737085
Ni 1.5917965449959224 4.613217205617228 0.38989262318729756 1.689637209214232 1.1446466427640478 2.917343339603621
Ni 6.007684286394993 9.275480872755868 10.098053115921795 -0.3782596686471163 -0.4248400875098167 0.10418289986751733
Ni 0.3974718601331978 2.7008386744452384 8.142473487521785 -1.1344583893771367 -0.29297129169125674 0.4024658335796746
Ni 1.177317976505168 6.460437171417125 6.9701514621648215 0.366318180014524 0.46154618468159875 0.7974564418282266
Ni 3.604822694555122 4.824021073799805 9.64580286951435 0.6297706363110573 -0.951698206025348 -0.43578167412298496
Ni 1.7999534905653654 7.067652286142271 13.590992143937855 -0.679668806693081 0.006145707886421674 -2.3689110944617395
Ni 3.9695999879163355 5.974620810548009 4.790174588441129 -2.262145007248078 -0.630319823946308 -1.3920168487867381
Ni 7.559168292220157 5.197956534947924 6.991033560355266 1.2068467704418764 -0.027705950555700673 0.6082507599614106
Ni 1.102493993368044 0.653093569564986 7.104258211381955 1.7272732743994512 0.1862694820566276 -2.7700777496140163
Ni 7.904716200046932 1.5670796369708404 2.8460283745480965 -1.2311472948604538 1.4258086005252024 -1.3972117627241163
Ni 8.21538375483234 3.779731709740079 1.6068757034365977 0.2507974865366842 -0.9090402621455054 -0.6854375908560583
Ni 4.586508188587139 0.948317668198156 3.128320365557099 -0.6319249636498988 0.05042370386819058 -1.843396120237664
Ni 0.40039177546183247 1.7905094182453338 11.256728272321775 1.1401222725311333 -1.064080353874206 -1.0969087132581365
Ni 2.752688844936661 2.7495254496185253 13.192721595657279 -0.6516712930388906 -1.5496038753070085 1.7223856072898467
Ni 5.398384835396091 6.706204397182943 10.524966687058152 -1.4806340330055145 -0.36371210985024455 -1.465364508440954
Ni 5.552957737821606 5.87298636038517 6.170425758013722 1.2150449899819524 -0.45233649315787255 0.3744225542892132
Ni 7.319303611654358 4.463523125708605 12.630608382169097 -0.823618444935575 0.06302828000607853 0.12162423527241635
Ni 8.652707017792546 3.80552767680954 10.26710754408648 -0.7800750131269856 -1.0178256937820407 -1.8187389838106163
P 8.908646911301524 5.898708545639631 5.2636177389347045 -2.1529949931832726 -2.3362542276586664 0.8039525910755316
Ni 1.906208526892594 4.397008819485883 7.714493769158674 0.8721035370201562 0.731180858529444 1.0171034709040354
P 4.073936697053558 3.9950823822720456 6.3798803412544824 -0.3918906291669896 1.05671028666238 0.5837550888128914
Ni 6.2348769402345 8.581203216330433 2.2953070732959513 0.6871211492060683 -0.2506419347954264 -0.8633471309837648
P 4.894787057111914 8.104157668719472 6.8352220457104345 0.34859659436504487 -1.1939742853545825 -1.5494781483624216
P 7.743217029738269 0.44947420561805834 11.528032306531864 -0.6989543943955705 0.7900781470862844 -0.2989534774166206
P 2.524269568422776 8.570431071340398 3.545771418919675 0.04438521098359453 -0.9981989206900486 -0.2561800910048362
Ni 2.485903024622648 4.290135860458027 2.873726990171876 0.10588702704281763 2.2709366373977793 -0.5531029111446734
Ni 3.189375739742489 6.818509542340191 11.651921196644151 -0.3003133338786247 0.6689581051437963 0.01702455958245455
Ni 8.919087038124058 6.016593440556273 0.7876070410373086 -0.7501113768853597 -0.7206136245365589 -0.7319681303174297
Ni 1.593779431274054 6.740808068418058 2.236292688568005 0.33144245118326143 -0.02475329568527995 2.787092281894142
Ni 0.7505150780913101 0.42308060584709556 1.0741940559520124 0.7932879122728338 1.1363710330188173 -1.0102735924663955
Ni 2.7902622342255357 8.287404028999456 5.830401341312403 0.22826768086528426 -2.068824017661308 0.16346585389855076
Ni 4.381542306516456 2.24158376697621 9.000012777361702 1.0030824740345952 0.25518790229489596 -0.2037146741162685
Ni 9.394085140368764 8.31905642763456 12.415079711008442 -1.098691259079856 1.154755963283908 1.3879372794007259
Ni 4.231958899330333 8.313449009694542 8.874963668208535 -0.4768763872807658 -0.6607421449919073 -0.29833358444443464
Ni 8.174729974767205 8.068438047532476 10.268267763127358 2.158179622708006 -0.0888786654102792 -1.3897815316983162
Ni 9.381726686356222 6.024165299320673 8.932804922077977 -1.670327453142027 -0.5284087508321029 0.4228803926802846
Ni 0.3878922137281034 0.17145694851563312 3.4678449104617908 2.631346422347668 0.2990347242765172 0.6085644345470873
Ni 4.991948484740363 8.455423667208764 13.177900673569106 -0.6827970679094176 -1.0014714207937332 0.4488724458686721
Ni 8.239842426504921 1.9171466809663802 13.028297898656547 -1.225011357166045 2.639101897923371 0.7663491789004608
Ni 4.681815848113706 6.725258550906757 2.6784182254120386 -0.4160314880792512 0.03601241353886701 -0.8070093756239842
Ni 4.973115676461551 3.5456496789249248 12.983901536025522 0.6967630431712064 -0.2360542667892386 -0.6641511706734562
Ni 4.909248292851963 5.931716685125366 12.77166630063194 0.9115195769239334 -0.5503641720572715 1.9894396648947095
Ni 2.119059840441427 2.522332795779019 9.510023117642087 0.00013909668102556687 0.5440981365429017 0.19173796137036656
Ni 7.710937485675662 5.858396006468872 10.617525051703272 -0.21724998959854197 -0.7269706771028382 -0.3122944174999009
Ni 5.3309021428514916 7.888696323465003 4.466388626948676 0.6108645434351738 0.12636534950182754 1.2242263993709044
Ni 7.015829783831474 4.643034281604202 4.535918764859534 0.16858106363792902 -0.23493069470775668 -0.25511693984764444
Ni 7.559186737673906 9.246521510368272 4.398397762153263 -1.3995884904864089 -0.10559572105464395 1.809411021541471
Ni 6.712337510554838 2.3282405086939986 10.235669112714877 -1.5625406379733346 1.3946709985801335 1.912811534717009
Ni 6.852864199949681 7.419923561860943 12.001907080643191 0.5456837358624667 0.6622369843698788 2.675522088423618
Ni 5.8812407009383225 0.6779137721310686 7.497183267165763 2.6055006649291577 -0.0012063616032753418 2.1278418909564127
P 0.6490355697399726 2.5350048225053117 0.675181078157997 0.7841988054873721 1.3556611929758395 0.6823671794608506
Ni 0.06012387877101259 3.686010359236017 6.107955617525702 -0.4646237951656578 0.7184747238166852 -1.0490453139179545
P 6.859615236022203 6.7281637098723905 0.6482331925018449 -0.5335730686418617 0.5130834333289421 0.4033441224195699
Ni 3.5019339535372795 2.0866972918369444 11.279473361340974 1.2891490681862183 -1.1561302179236155 -1.2176654583239352
P 3.8450747296496712 8.717754910442137 10.89077323673862 0.21991159559110512 1.21314443052513 1.4137655533177393
P 1.3837963857833553 4.625123746012893 10.256551210905322 0.8921249744474056 -0.10278267708588107 -1.035917775397061
P 6.010404990823128 4.494677497092458 10.547495964268476 -0.4080476985428263 -0.737263317278098 0.39214362571806016
Ni 2.387616424315446 2.47910587491575 6.518482247550506 0.11799846559437098 0.6082713287867009 1.5962935660540638
Ni 2.2041671640442106 4.207500227657753 5.141943225545112 -0.4696148206223461 1.436150862991475 -0.3381509735516886
Ni 6.277891738379643 5.122311729118922 2.2046384453875247 0.4201961609799022 0.038249530399501866 -0.6189478346639404
Ni 5.353802173682193 0.7853124265908009 5.260863832689821 0.16837383272312936 0.7676007919193748 0.846405875143736
Ni 3.7449620294212127 0.781414902213413 7.173181493864434 -1.9270109661458426 0.1852371841373713 0.21948067870127358
Ni 0.8235341735789907 6.29072055146281 11.683641843458132 -0.6163569340083126 -0.8066471071885591 -1.0655741648109132
Ni 0.6222656827125084 2.9406664641035367 3.4491227749054785 -0.023068194673373173 -0.5100662437691731 0.018530968924651958
Ni 8.263996748190628 8.855044422703845 7.410469344541349 -0.7822607079243947 -2.6687883692442105 -0.4320949693000171
Ni 6.891184630115434 7.2496351328403765 8.550462945383268 -0.6363811996490395 -0.3371420726712 -0.9401274704686132
Ni 7.488559095264922 9.20235387136375 0.170514385829005 -1.0522144556745556 -1.7997349319042877 1.140877405529603
Ni 7.701945326972507 6.994101039313901 3.651463868907527 -0.765665779680191 -0.38174119943781354 -0.9616139224771633
Ni 4.410409441635303 3.3781741816012425 1.829639603830714 1.1950675184187611 0.6614070322694158 -0.2182951430336047
Ni 2.242810389650589 6.668999916969069 9.436874903978156 0.9636918880521146 -0.479165954645891 -1.0793424222395993
Ni 7.934311930588905 1.6532291287105019 6.612133505330318 0.013768257428685964 0.31150174639527645 -0.3685393560355588
Ni 7.359118123573866 7.263967250404174 5.901942955954704 -2.3697667575938155 0.5604290124924411 1.0780517284526339
Ni 0.1323885552003156 7.988698350970961 5.515982903506919 1.09696296353484 3.5047375678309964 -0.27374098270673497
Ni 3.7972733362563873 6.226807054218847 7.525219434593168 -2.312140622439915 0.4966078042714222 -0.18206495705697676
Ni 2.484178374697017 2.204121050409835 1.9726149272108773 -1.0690202143779848 -1.907822823253166 0.5750789011951322
Ni 2.3032100279551653 0.38480167795228065 12.639233476342625 0.5607673696684665 -0.4315378112449665 -0.2514603169316637
Ni 6.125052708606634 2.9957445890012195 6.235582478840439 -1.4712441071501823 0.9380011681542296 0.035545244094461366
Ni 8.090295910226299 0.9881967392057887 9.131527940326952 -0.5936751761400808 1.6205084727373704 0.6281557264154537
Ni 7.309675084796827 3.276161599636528 8.243954840418498 -0.20340048530995936 0.08114504421144735 0.20767494431559716
Ni 1.526462747813205 6.485172524895958 4.78287203330148 3.8100419271663086 -0.38575263459005177 -3.400338181077299
Ni 5.569862996183536 5.24323090117745 8.48279487602848 1.5938219645851197 -1.1831347715369172 0.4847809868398231
Ni 0.380263174057078 4.070598069924797 12.240626298531112 -0.5061774502377283 -1.4989251180052188 0.05560987605482035
P 4.074351719762935 1.1134782610762057 0.6787963870930089 0.5109489034844427 0.552882310493435 -0.01271410513255875
Ni 9.234624192699483 5.19976418941543 3.2118616701365013 0.3081927366267015 -0.2525028992635651 -0.21863452865089444
P 0.22539883346231263 1.6806667411637182 5.1520670128358335 0.7800634431627599 -0.4813462501266613 -0.5691283400386521
Ni 2.814637901356242 1.0593408543197755 4.844383932467184 -0.6100916698248912 0.8446405557131969 -1.7132131967619593
P 0.615107924384797 9.143190078460428 8.866392065850881 0.7730695283434299 -1.2893591273144955 1.9596472641236249
P 3.440233910743324 6.089416091961516 1.1285721758798808 -0.03674260683667221 -1.3669087408652008 -1.0458635737558633
P 6.1604310888992515 2.461757925663818 4.118238065597768 1.3619043456720739 -0.4156669056509809 -1.5320167583528648
Ni 5.568064564442905 1.163161090751996 12.176805950828587 0.3799483692034489 1.2421256482488285 0.28412746814738166
