# total energy = -340854.0994136489 ev
CRYSTAL
PRIMVEC
9.43600690655871 0.00000000000000 0.00000000000000
0.00000000000000 9.43600690655871 0.00000000000000
0.00000000000000 0.00000000000000 13.81054991394297
PRIMCOORD
 96 1
Ni 5.78735785686355 7.616593863199481 3.450994034658615 0.7077462816555876 0.3489519208219345 -0.3719833487201013
Ni 7.317463005727967 7.533217305468862 9.104908824323136 0.7627825445951251 1.4812140738787005 -0.16831675423294884
Ni 6.407369567909914 0.4884596196473824 0.9855541292878938 1.00139660169174 0.3087648070800876 -0.751707517727886
Ni 2.136359161724809 4.213545123638765 1.083279079241822 0.9920526985829948 0.911182505299489 0.3028659250971493
Ni 3.4383299696823517 8.984814876207574 3.563328754229374 0.4846981973180297 -0.3969958116040389 -0.05914051491589814
Ni 1.2469117071926998 2.1943151166344346 1.5680775281785346 -1.7903974565534453 -0.09727768810725183 0.2927776876232119
Ni 6.618679508360281 2.6445353179699875 4.992486556754053 0.9757588465189777 -0.9746568717040504 0.6812019555081559
Ni 6.029334820019271 9.061642845089725 7.499018385348552 0.8458769992234593 0.03406660266640584 1.6410091637938833
Ni 4.497295289722671 1.9471860936642145 0.843878145993351 -0.3711500541855286 0.6711671969799731 0.5167991916176325
Ni 1.6700977485126098 2.349461943502566 5.529330245824196 2.2732670853031687 1.2986053285031118 -1.2275492930965504
Ni 3.376061759580004 1.6000070886186504 8.938077390003915 -0.10037303920312392 -0.9010659856907772 2.601504142175255
Ni 5.154362200204088 6.416928242986998 1.3529092044714848 1.2413574026242362 2.2766794534188275 0.819599553584169
Ni 8.236841474420501 5.908846446811682 3.320553504882615 1.7320295581375138 2.3486564579777616 0.9874555661306156
Ni 7.590059811554109 3.087933286254472 7.5088648586387166 -0.33193327477675094 -1.2031639222736503 0.2680141075252868
Ni 4.977729585428237 1.627965977318947 6.530816129307696 0.713139684757017 -0.5798850643345239 -0.2992980052402329
Ni 8.110861345146908 2.330797521683739 9.94153822974964 -0.36291763897340723 1.5692357906053231 -0.33509290345165516
Ni 4.1480403631401295 3.8268386853277465 5.332915986002343 1.2064233097512127 -0.7071585274729176 -0.2709724188226624
Ni 5.664680330035149 5.730968279113644 12.944089806788915 0.7280014323601978 0.7144653455469759 1.4694031972867017
Ni 4.740376265695785 0.48222619343225726 12.830719013651064 1.2385582426125443 -0.8648250010808719 -0.40647032675337735
Ni 5.367965090352118 6.014897729330289 5.181566208345484 1.3931977564687168 -0.3801468583675002 0.8835757993258138
Ni 2.6398550585048013 1.4783958305796967 12.775780693775644 1.7748227420436402 2.8831934331947893 3.5404679313530703
Ni 9.147085888350334 7.904241100168712 11.259948449078651 0.4663500338281452 -1.2353448778815694 -2.042493093076263
Ni 7.912893918575116 0.5306027140494289 11.426586445254651 0.9484113077439603 -1.4765953441597668 0.27064537450054676
Ni 4.431422524951571 8.008924161674312 6.299710389800849 -0.25107722256063214 -1.369990465114318 -1.1772212342659598
P 6.097274070320363 1.7624951289220943 9.077343417114166 0.39166102965468674 0.07932650294546983 -0.7546701999006358
P 0.9590851860907282 5.889493196482857 0.6912563945947433 2.4239165041633415 0.8978683046890858 -0.8743450247561652
P 5.9431557682137335 4.222877334548179 6.703295957408893 -0.37561246083225636 0.49646716492849985 -0.19442964926991677
P 9.192775034177817 6.574358583545805 9.389364803729615 0.7546817698648616 0.005113409967165387 -0.5833647953530082
P 3.460061093771715 1.6281735694726447 4.272874017564892 0.2741865548845859 0.41298164550933386 1.348070782223091
P 8.323464018554393 2.3178418840916 2.9544081257946635 0.6717464665222108 -0.5378495845300285 -0.11327971996246297
P 3.08122428528724 3.900873596141964 9.460005582830872 1.801473254751633 0.1916320319201216 -0.3418957853061015
P 2.8464092514340917 0.9302411999351203 1.7052166793140824 0.42762253535096034 -2.062437911629306 -0.0705487567528398
Ni 3.02850531425499 3.482933974706416 3.106269335030178 -1.638570472445404 0.13520197395685102 0.21458478406155299
Ni 6.7427535642226495 4.364766571600611 3.193068332494713 0.22452852553782623 -1.139987803835798 0.08417483217670664
Ni 1.2891944544981428 5.7922174004614755 7.873380639320141 -0.36362906321813504 -0.8272437003929882 0.002584215787408452
Ni 1.5422964698906678 5.228953835430495 11.31604739781338 0.26105798792242785 0.3637943851514057 0.3794158937387465
Ni 4.788849033584215 2.046745403376272 10.888624589356636 -1.9429780309980602 1.954220950901731 -1.2831943932646803
Ni 7.944995214342382 4.600421410075536 5.455553881601403 -0.17702765174338542 0.3855353763729231 -0.5928866188005144
Ni 8.311140593430332 0.512971534995597 8.17855242846426 -1.7063277824960357 1.167924382345066 0.2359082281296776
Ni 8.890511422386863 5.670596706415535 12.744403139744225 1.07386931494017 0.4659664252364814 -1.5436995940074318
Ni 2.684742143738453 7.4356395572239204 1.8393721650405739 -1.1292552479096423 0.5766938110907358 1.2988017607846343
Ni 8.896220206613554 8.001498024176122 7.160618641203006 0.10841236456783264 -1.044357678634298 -0.2973905038048749
Ni 0.9586039497344289 3.4072760706905614 12.97208360871506 -0.8352948528322388 -0.7032905598770791 -0.9084512224112546
Ni 9.085478198737025 4.128215312461991 1.022067701921936 -0.9017067045985696 0.028425859440860724 1.1382029440212333
Ni 7.26117722405491 7.865676139615857 12.968106331770349 1.5417437558326417 0.36906206130824826 1.5253362610088956
Ni 2.3730897049961683 8.91077052938637 13.169975547230962 1.2147287442931145 -3.569902177453787 1.5380827620412865
Ni 5.945590258016189 6.338109276630746 7.619736053525906 -0.0005885255136183413 -0.8071968090444421 -0.5354517737218133
Ni 8.461729828924101 9.153247600912362 3.7456559992214356 -0.7252215556222156 -0.542921085515665 0.7925044971395899
Ni 4.030703616265952 6.020153585221637 11.287942251004797 0.6316244016903444 -0.5188948978043967 -0.97734727405202
Ni 5.6788626485355005 0.7024965661167795 3.1784293112562247 0.280531266155691 -1.1676248488267762 0.3022138933354473
Ni 6.671983511825679 5.964254679835017 10.625588345808975 0.26269038131952827 0.005284645437707028 1.1509489308329919
Ni 5.123600817428872 2.808117935083838 3.3154297530890746 -0.14356628676114627 -0.16632646327579742 -1.1063654877956626
Ni 8.338448397648579 5.323002517062576 7.626447885295235 0.0944402186584567 1.1848332422852628 1.0525489561958388
Ni 0.5310867812078242 0.8277019992168008 9.94145519288816 0.546256063426169 -0.06046154772016683 1.6888509658675108
Ni 2.2232270420403437 2.389649897257059 10.995227878283941 -0.007552358425961187 1.5801205558386269 -2.743040800100882
Ni 3.6498003222514854 5.81866652804397 8.543012536704465 0.24215189504654422 -0.5024133552096057 0.3384587346000945
P 2.3434700790662895 7.256345988477943 11.402956796559653 -0.7604590386682709 1.0211077069674221 0.32883201014360786
P 4.8026067317701875 5.271406430861692 3.299092250593059 -1.8613007684322267 0.1022679422329916 -0.06660365606216272
P 6.955941270063283 4.960791952887895 1.1311139730579822 -0.09343183199860038 -0.3092458604815642 -1.3828832619165863
P 3.1324429312086735 3.6870631138402366 13.035791753483512 0.16749605810386636 0.19200741298166935 -0.13542951658662483
P 2.6141513754742216 7.493453972028752 5.270106149098984 -0.4318918521502756 -1.1201620273591224 -1.2930481461303085
P 0.9864401703439037 7.425014613357389 3.522269857030049 -1.5204424232517042 1.7555965468241765 -0.5848544925246572
P 7.078439512758946 8.033957888208867 1.559721943992199 -0.42255720501291094 0.05065818847649985 1.1954953499847993
P 0.5714511882929602 4.041130403985773 6.321240526941404 -0.6257815697563223 1.312391840764243 0.23833329263140243
Ni 9.193963971058087 1.4212230642499308 5.424935926132377 -3.1153756186231316 -0.5967324749091658 0.22412049146613014
Ni 4.6465729202453465 8.50104023402887 0.9462767502075753 -1.3754887692247277 1.3295279862238973 0.19852953037090323
Ni 3.077468754506707 5.6792117807939935 6.159422443133985 -0.4032857583778086 -0.13753756406856313 0.6273764250472679
Ni 4.595061758107339 4.420372960770657 1.2855993358363769 -0.5098736681423929 -3.4750415834284607 -0.8034980200366161
Ni 0.22118000375799796 8.374588304405965 13.343918900015728 -0.6812207245612333 0.01609639134123034 1.3106815429413556
Ni 5.075543233847836 3.674220708331933 12.173626625950783 -0.8766631313663805 1.483993693506367 1.531329502477853
Ni 2.9259453543213003 9.28855994109537 10.898954186204499 0.22685768789163513 0.43884848597376674 -0.9947613557634094
Ni 0.577895037463879 2.2855046881496777 7.7116455923742 -0.06156712207951977 0.5585654769211412 0.08081594300680275
Ni 5.808051020184424 4.303328730113055 9.342312154892616 -0.7573300061209861 -1.215681595124687 -1.0243097588444876
Ni 3.148163318847787 2.7280722878193715 7.153961538274198 -0.9140372011394645 2.459397984899403 0.09127210534312023
Ni 2.047575771991063 7.715426600373596 9.042167870270777 -0.2561214698527589 0.7899177102490202 0.5139038723477085
Ni 1.0461134785250292 3.749699328215049 9.504406713704732 -2.399410548602177 -0.07752647362225358 -0.9358650956478334
Ni 4.94984618478383 7.806842636056509 9.305452280802179 -1.5202912423858206 -0.7932015232066146 0.07952344944762434
Ni 0.5467939584371571 6.431346461662008 5.548568376867789 -0.09599573607103468 -0.6083039817968492 -0.7301948404670909
Ni 2.267349810708108 5.807928352093603 3.5244939238767112 1.1952811770914642 -1.4132459333688434 0.4504755286897338
Ni 2.322861839808292 9.367275111374774 6.052763481765463 -0.6159591843492617 1.8024523308354505 0.5154426775897382
Ni 7.292344355130535 4.022616958278725 12.471147700630441 0.9129941045869309 -0.009291966824887223 0.6464799786459383
Ni 9.132016585193272 0.2467402594823864 1.5775795872137013 -0.5904790378002862 0.34427714105408447 -0.22390914678627244
Ni 8.529027430750126 6.530282994912972 0.9595871816623974 -2.6101384208114853 2.0327735517956538 1.5350599160545628
Ni 7.828979508446281 2.1525136056852907 0.41304044660828043 0.5401970017162826 0.2691109401338914 -0.3407768412103099
Ni 1.389197256538555 0.8140329994965007 3.7904845812117722 -0.40411288226479436 -0.47685144758010134 -1.3845359670286608
Ni 5.4940678877165325 0.16599257329814185 10.593935260373557 2.1963610188737333 -3.5901421586497464 -0.38110176608160173
Ni 0.3709539682481515 3.9249165419429612 3.934625249531127 -0.04032415354034346 -0.39100539834855885 -0.36456982986484954
Ni 2.9258132502234924 6.5573454629495735 13.690080703508173 0.39689810968391 -1.52745253602095 -2.171410776686299
P 0.9877989553499257 9.672756401548043 8.007481396206112 0.6449892530330247 -2.081283583580899 -1.432040183257211
P 7.164259996299005 0.4620567284991207 5.9782416729907535 1.1407614487770288 1.1191621253396984 -1.1218514992464035
P 5.634919164000476 7.625057961466158 11.86221291818525 -2.1469086777798765 0.3250347478847047 -2.6244322117263383
P 6.712360185719898 2.0287603740604556 12.105678883243403 -1.0860889969348133 -0.12067087022021154 0.9263682119009916
P 8.85151240551264 4.271095330247981 10.967427514501013 0.5409714179884618 0.2936778308399781 0.10154366247245739
P 0.7078222484598261 0.8779836496444989 12.308058586681973 -1.764281733303 -0.3480119255061684 -0.6833367424629715
P 3.7760069156927494 9.348761665667727 7.7477600219127245 0.6105907209484968 -0.18052898002842457 1.0125952986210367
P 7.642939194705126 6.930879235507769 5.515063946861665 -0.19059382046359433 -0.533569726207752 -0.2641656803134741
