# total energy = -340862.7927551349 ev
CRYSTAL
PRIMVEC
9.45107401128604 0.00000000000000 0.00000000000000
0.00000000000000 9.45107401128604 0.00000000000000
0.00000000000000 0.00000000000000 13.83260214471871
PRIMCOORD
 96 1
Ni 3.8393380303907145 9.298901981777437 12.059801617693038 0.5029507157703144 1.483846369295225 0.5676998351222416
Ni 7.089552831535221 5.500052351202084 2.2323048632000897 0.6099363751939496 -0.06323731069309109 -0.10878157498179329
Ni 1.7001536514438405 8.576991166768897 6.85036127740658 -0.3769892865751249 -1.9018951449148211 0.09027246043401227
Ni 2.0223691077709005 1.9343985135875703 1.283232765800764 -0.3450842103364122 -1.9461461443133965 -1.2599413362740108
Ni 3.500110641368124 4.864770077908671 12.39015161317068 0.5962352235577731 -0.11539188120945933 0.9127015130471764
Ni 3.5483016662650733 6.115855961559115 6.940175776072631 -1.7045172116498581 0.6787295827082632 1.0353490473777847
Ni 3.0794717033237022 0.26534267511115905 9.481182950395299 0.17278198909315406 -0.7475783260508609 -0.2431721087809425
Ni 3.277632366005469 6.9382127880610405 0.44071774416200704 -1.721398560786229 -0.22522143783979276 -3.3488091599600716
Ni 4.0752746347302775 3.496462526912305 5.417192897686388 0.6058701755443759 -0.3153455456213988 0.44911824333089106
Ni 2.3059769279528273 4.534766936836546 8.578523185818867 -0.4942521595550521 0.10413276335587227 0.05966296307827144
Ni 2.4980794523802414 7.544073868864907 11.507507332517909 -0.30172898327922876 -0.23445915438797685 -0.08170863002440121
Ni 8.40091766337016 5.604930916270027 12.873476687876014 -0.9001319039122821 0.43213919227439124 -0.1690016961151154
Ni 7.513395683570634 1.54123384684643 9.748733396327388 0.6830109836924366 -0.8032979882106681 0.03114094437917863
Ni 0.8599097228199366 8.124747838205668 3.0820140421543125 -0.48099143789040383 0.06848904601033365 -0.13440390353558787
Ni 2.022425814213219 3.594971068293144 2.7120196277444837 -0.3304073250505278 1.1848586962065595 1.19437692010964
Ni 4.017859361882864 3.4402191872061385 1.0260397515581359 0.7719726957348253 0.057974005411622745 -0.10246154630103645
Ni 6.706708737296036 0.6734683915506463 3.1656324168897028 -0.3057933831565895 0.1844339715097856 0.25883321235696716
Ni 4.437420877523235 4.89814181921307 3.058554586967176 0.4055524429247983 -1.8315721310195425 -0.7362415608818029
Ni 2.7202647444575843 2.195049675704251 10.932998298564534 -0.9406393771080253 -1.246625593001711 -1.040072163885067
Ni 4.432629183147327 3.5267815714052273 10.656567623765376 1.4102688530183904 0.5899473336665324 0.633358867882948
Ni 7.692446275191088 3.544455079261139 11.511947446951442 0.442931912014521 -0.8784829581839386 0.7096093030062554
Ni 2.8943440713014557 0.9807946263396297 6.817204075475619 1.235184183933989 1.2062186499395744 -0.046403269854887824
Ni 5.673791439392045 1.4761064978437086 0.9539857106262182 0.4948982777794831 -0.05750092242994614 0.20117056753817608
Ni 1.0897749574019395 0.2019930730751208 10.615318412515578 -1.210126983855045 -0.5158409414694213 1.2252221876252705
P 4.9290184770554575 8.073409605760046 4.355513147131117 1.2806207190002332 -0.2495636141295831 -0.5635670439007907
P 0.7139435598628003 5.610582658354431 6.85794103852981 0.03532670032575207 -0.45909900869268677 1.502185276813729
P 8.386665444200794 8.758678607957158 10.191902749012295 0.4004359476338394 0.6796739488994037 -0.3123558668654556
P 8.312276042952728 8.030463926777552 1.7341652304390651 0.12799080092039247 -0.09574171107869962 0.38604574035043837
P 7.141429775182868 6.353248031251518 5.323310656891361 0.22143060333879286 -0.37977250574721694 0.5017111869362585
P 7.872942881090663 2.8545266977201957 0.2745499111289287 0.3622614934466471 -0.8975656858470027 0.2663305491752768
P 3.8721710604930872 1.417018384947901 13.67601650300239 -0.8605819095338016 -0.1581783802473663 0.18771084248884445
P 6.883103577201243 7.831981927589314 11.85828865916288 -1.0041574522663288 -0.10354783738667973 0.6066011401731295
Ni 9.038420938987711 7.807947847120018 5.596947594298963 -1.6477868488373493 0.599590256072935 -0.0823290372172195
Ni 6.260636959871796 4.121944036758348 13.730060577853973 -0.7974723826678266 0.9673662515799082 -0.7265582721557682
Ni 5.158783530256031 0.7098087151104145 5.463656266307369 0.25281965917303556 0.43690473198383467 -0.5283701842846835
Ni 0.7299801417504533 0.9426746655984346 13.01593839269787 0.015924384539740318 0.1849854731378814 0.25074940690756814
Ni 6.254985217787392 7.691992623652541 2.5237721962873514 0.6485875119072443 0.6729808531499443 -0.22139460789453483
Ni 7.506449144386626 0.38612739724942285 7.133168591644444 0.02373462461277848 0.44276350475745685 -0.6585654490555626
Ni 5.037545156579219 0.39950161167022546 8.1435705966259 1.2616979139538014 -1.0422408894016115 -1.5528300955537901
Ni 1.6043953725154452 2.999770798645144 6.444899818648687 0.3182382937881616 0.629432022024716 0.9889426921991031
Ni 5.281193837074089 6.5105422511691335 12.75064297295531 0.5229947789053832 0.024462761028054645 -0.6400583913903106
Ni 0.677825336535446 0.6820839903535603 8.337877111444756 -0.22890120068422515 0.7146229541707627 -0.1681583742782136
Ni 9.54284364555762 4.574225169616456 1.286897892189279 -1.7829625975419552 -0.2500868336229048 0.2142610821735471
Ni 8.666152596240915 8.520180762639546 12.850265795927704 0.8730394185708642 -1.7731281279500364 0.4255401989006349
Ni 5.975989521580698 8.842405670040327 13.809805902579013 0.19435945815361366 -0.8665016174523463 -0.6868951492381912
Ni 4.584300014201698 5.3025910679755786 9.160018453465872 0.40614688197568766 1.5812058184830058 0.840249625734353
Ni 0.5073591551746304 4.550625838538268 10.925362776106356 -0.04402577076164676 1.0616282927892877 0.804339542101305
Ni 6.486668838953073 2.7008711411846797 6.57831495570601 -1.41310272292276 -0.37393995822583986 1.2988781225485242
Ni 0.17589487810543364 6.9252931702861575 10.916952265603161 -0.46449318312506455 1.0450256512356002 -0.5962653054647602
Ni 9.22818904820635 5.307354409130326 8.875398423288562 -0.09449704003832111 0.5225988290185452 -1.2562841991373976
Ni 2.511925275379659 2.1768847120149126 4.266029436045257 0.2810166904325418 -1.8680159756688732 1.149801190381794
Ni 1.4888938005865158 6.654453750699599 5.203935089844711 1.5102300014950765 0.7038464323805491 0.007304246970897099
Ni 1.8862736462066598 5.827276876600607 2.7017283535710606 0.6973163445715151 1.4719064233245296 -0.9564215796429463
Ni 6.603843250930397 4.06794060152376 4.761485908977248 -1.4588537039056293 2.8879682288756134 -1.2775906739246576
Ni 3.133579100369208 8.95128203929172 4.854495815667943 -1.8529002030733572 0.21699853570936822 -0.3955009722260672
Ni 6.652450123071015 8.035350131890658 8.624779575925386 -1.5143985310504693 1.9712460247048178 -0.2572463274858215
P 4.9376095030666995 4.4330544814647155 7.301123622717925 1.4534870402770774 0.07945094433847608 -1.73374525527704
P 0.21133262412496684 2.553122505724001 11.636676102152954 -0.34659267656113857 -1.5701737290385602 -0.45018807935630206
P 2.5334737234606637 5.526647672649429 10.630437295145043 -0.14394809558059726 0.19838014927723255 -0.9615020794896473
P 5.3255760792619835 1.3549342816829355 10.02313114516943 0.2505727721203878 -0.07535774810570893 2.4622729924543525
P 2.7627756740489695 5.093920811317462 4.575077656465977 0.7057742455308812 -0.894311183465447 -0.4493247029147423
P 1.6577466836633719 8.509028495650254 13.39015176641619 0.6276319927014996 -1.0651458190242429 -0.027017923349740566
P 3.926325712907192 7.95271939435898 8.130139675762779 -0.10613025340187529 -0.012890997030055217 0.24744605356594804
P 2.0176246687635917 0.4485073191218159 3.046769098038662 -0.7980603939608126 1.055468443835479 0.5983412141571824
Ni 7.594589857896911 1.040771140165093 12.555216505900663 0.39854310148650074 1.3919101480055447 -0.35117823904929196
Ni 7.046919037985479 5.778017880373327 7.6306579905335505 -0.44167078591391035 0.35010866013419706 -1.3347408978834046
Ni 1.9431596589257685 2.9927675530188176 12.855397728957525 0.4492912785736456 -0.35253243908434123 -0.47254562111589576
Ni 1.2555940458147594 5.725611676597374 12.6218068811152 1.3709636276608648 0.15370311808483206 2.4784449742285255
Ni 3.102040867366439 9.255313629782002 1.4014363997061672 0.8536440447633878 -1.2243590682940269 -1.719505200418258
Ni 1.871709541604542 7.090204955621883 8.9008643414264 0.4220288433132668 -0.007905628000321869 0.15805291041309555
Ni 4.8478904602452175 5.818959931727236 5.147747511473491 1.7155205047388973 1.2404423470091346 -0.28017208304405944
Ni 8.32923126920594 0.6791116276687024 1.0701649245408533 -0.6333125880260448 0.2900212079239973 -0.0709274802484972
Ni 8.011523975043195 2.468119548688669 4.938349522138955 1.779011583314007 -1.8169680079531225 -0.0576868131885071
Ni 6.667713607128392 3.687147390281758 8.79291417739954 1.482440232976318 1.072645726945714 1.0570046779743474
Ni 4.668253902054139 2.676733098904467 8.503563884825502 -2.1944897699929498 -0.3144795980766778 -1.6016617723445123
Ni 0.4790475187397803 6.969845531801007 0.671812563434948 0.07347492926069925 0.12514896059622319 0.5089336728266267
Ni 5.843334250850443 7.878660780691105 6.5080452774923785 -0.5757671855114084 -0.41062728634454443 -0.946665528697447
Ni 0.28620592034748277 1.0947462221785222 5.989723821910223 0.04982643660382386 -0.6057871289122664 -0.25149502682434105
Ni -0.030030786744470527 1.7320888295428383 3.1075215450165157 0.7487024123529751 -0.21180902108862878 0.11348515110504971
Ni 8.824306863867026 8.058987267263724 8.106582874516329 1.6110833227687287 -1.1762133618267354 0.14862030424528597
Ni 4.0313082397860525 7.014671974453729 2.3753478090557114 0.16404332366857557 1.639458788587628 3.0430869963610494
Ni 0.5497056360832927 2.9500203465844383 9.513012276468634 -0.69579450861035 -2.3070688643439623 -2.109312721803974
Ni 7.340412681278252 6.561389027781329 9.994912129257033 0.4345336606484968 -1.5833123233030475 1.8041240621109187
Ni 6.607188931027184 3.154352560405194 2.2203681570920595 0.31207278840739805 0.039263830596629155 1.320554064860061
Ni 0.6029907897151809 4.266536013596635 4.7305147403976635 1.2814468144459543 -1.1326532178475976 1.3458676039241853
Ni 9.250928331576041 6.029567658497899 3.632510733107947 -2.6051113999105393 1.6746600190791097 -0.8695859128046249
Ni 4.749287408127181 7.797882453608496 10.301830077661323 0.12185152079187402 -0.1333654349687445 -0.18325434937938764
Ni 5.531231443403503 2.0888101560206653 12.337339013224776 -0.9448536722996888 -0.2123438105461762 -0.7577092438372757
P 4.814074518475992 2.1905604156873753 3.491237973360033 0.5791481861684994 0.49611826622951327 0.3249838400421112
P 2.0116326880252773 4.1021345862417755 0.6720365538821058 0.2711251423504427 2.8834705981155757 0.3268041810803017
P 5.341463334184864 5.8976306693703435 1.00757896926137 -0.4447262849107824 0.020689410028551465 0.4106910497029443
P 6.246479251439627 4.8457923218794345 10.80457616375335 -1.358617704501002 0.4910274819701672 0.07957975660685648
P 2.4643202170533334 2.2753649001745924 8.553029859567243 -0.7188904711978652 -0.171848164424975 -0.024387941926061224
P 8.125135332228178 0.2220501417231508 4.7397408785628725 0.3092666864171706 0.16296577433368065 0.2656849451714779
P 8.443220669339711 3.9885988376465518 3.389734386717409 -0.746792596924772 -0.6530545465396623 -0.981656185840019
P 8.391315372470906 2.4885811232919033 7.724622455669939 0.19970092497118508 -0.8387252186700266 0.2925069504603285
