# total energy = -340870.0351415508 ev
CRYSTAL
PRIMVEC
9.27235559219494 0.00000000000000 0.00000000000000
0.00000000000000 9.27235559219494 0.00000000000000
0.00000000000000 0.00000000000000 13.57102967324264
PRIMCOORD
 96 1
Ni 3.7080892470765767 1.4498626359809803 2.1785984015396 0.2807570090132519 0.32650619022390864 -0.16783492950052387
Ni 2.5707606343258473 0.8866541837345148 7.272687861539066 -1.176554290105922 -0.7475323033042739 -1.667862793651618
Ni 4.6081753653643265 3.5896163575372393 5.152146461116525 0.006215127671776393 0.7311361213344376 0.092787256436066
Ni 7.893973714085261 1.598878665392164 0.9646792029796911 -0.004906693272998002 1.012910258758294 -1.7374381307475948
Ni 7.7779858158894735 0.5816789849194216 2.943176458286629 -0.2794688863294477 -0.7776095823056285 1.4595435308838025
Ni 2.8816719952981824 2.815393196329161 8.514721769997404 -0.8004314652961505 1.994678030475513 0.723012978006671
Ni 3.3987263695160808 8.569733729483037 5.556712324202277 0.4342932625029166 1.2295426693774953 -0.23935427769674908
Ni 1.6185638766696167 7.058358285393426 4.7031215066350445 -1.0948289479109725 1.123241951836027 -1.547896662807915
Ni 8.150808696268099 8.226702928159737 5.345981349326904 1.6833197516366365 0.1389691543087671 -0.003859997176038513
Ni 5.966566211777681 8.873681551279976 4.726843901610191 -1.2476216383663932 0.08173434105601408 0.8258252227789068
Ni 4.969426345755075 4.611151791563131 12.480407259664675 0.04249982103542358 -0.6070485121231932 -0.8130617524656515
Ni 0.3400228491149122 2.5507045288180143 8.647704969064808 0.8621027170537022 -0.5996421923567931 -1.2999099062471484
Ni 3.7511407948680104 6.256475686954712 2.906833459887206 1.044975000503323 -2.8201394421570978 -1.3495748775724434
Ni 5.099730761243555 2.6118093532732254 8.414418988804414 1.2082143402133645 -0.06534381551313262 1.9111482880819732
Ni 0.2673053263064829 4.124807459620751 11.407780218168272 -1.6294165738602775 0.0790933038887412 0.7770552524640553
Ni 1.142994022119794 8.00512144257458 8.727420338764944 0.1831741309607555 0.5435949716542381 -0.14702879138845001
Ni 4.541980017597141 4.567970430791065 9.806304365927867 -1.359735105934897 1.1723001428152584 0.06457171323379847
Ni 7.453490453729446 1.6843605131391433 5.433351975942098 1.0631979512692527 -0.8188631896387769 0.2869520820803703
Ni 2.8436553366841664 0.5564387053064428 13.00161657649841 0.34211818572955277 0.1092862825323537 0.4109095934716536
Ni 7.491599835901058 4.457564490762507 13.287883870333104 1.7148191077964983 -0.14520356525425315 -0.9735325282916202
Ni 8.374495006610665 5.997665692995097 3.9246469703112283 -0.33106681301139756 0.6759710461265197 -0.3363108350191563
Ni 1.836213883412739 8.81205747490223 10.906276511794658 -1.5417226727867188 0.03398921246125114 -0.9489779788807076
Ni 6.496175355693963 5.336472548495521 8.669431953080506 0.528968737100631 0.3383659177759721 -0.1429484506714893
Ni 6.330014740483434 6.485215431186215 13.486264994572375 -0.8977829440641313 0.9731193520136014 1.1199396269356712
P 3.910068972586117 7.9767016721716635 12.470813153160302 -0.10478376667630984 -1.3898411812916582 -0.41289499933279855
P 0.3076845811680238 4.200979862185176 7.0497294311236205 0.6884614652840465 -0.7853791989487184 -0.197759227863782
P 5.5993160172105245 0.2548636793483642 2.479535489421424 -0.37766625803749154 -1.208531614343467 -0.6297199855787801
P 8.491280327401771 2.374140330445308 12.374159971194258 -1.1634208380477575 0.356776816182992 0.7691092581441012
P 0.4169592937939214 5.61589498930854 13.214750018751074 0.01111539318687118 0.012085727519940477 -0.16801362117023325
P 3.9770895600158993 2.479706100767399 13.290665577060958 0.42968970229263426 0.7101111823433384 0.07279307270232624
P 3.3028687556742033 1.6709897761339212 5.345574292909062 -2.508199065562506 0.047303155961337884 -2.1173947274811598
P 5.952073519725557 1.128102618770011 10.190147441126678 0.04626982960081709 0.6516697503769938 -0.5526146586543451
Ni 3.059209791025638 8.178987385421268 3.2309505099322435 0.12663377267186576 3.235755182855169 -0.07945968608922443
Ni 4.561062525750225 7.969645409438671 1.105506815019646 -0.40652406280944825 0.2741796129060504 -0.04471791173266492
Ni 1.3442226868128129 0.49855787894881526 4.529100715447173 -0.08363001541683017 -0.6292307046471873 -0.5768367644265034
Ni 2.4766091339437204 3.867100875996519 12.330149661817291 1.4696991312605656 1.5217233468466569 0.8397734574288829
Ni 8.897298241399463 4.862275002598106 8.995353403556347 -0.4343194877551616 0.8790066918978925 0.3610340487974492
Ni 3.073331588847381 6.450499731222587 6.431406096242591 0.5003137923680997 -0.07631985490866211 1.0358342145443193
Ni 0.690669963459078 1.7338748928949594 2.220559520293714 1.020835684252958 -0.3403274123777171 0.5362454732677023
Ni 5.697584443549877 1.7461329472090399 3.937444675730512 -1.0403732400652534 1.6621402893455437 -1.022117122068543
Ni 4.355494398561753 8.741875014158454 7.773459051807677 0.3011386579933975 -0.06153215507652628 -0.03706476606278133
Ni 8.869675893591864 0.40479118133070835 7.247472617286637 1.8591045321118562 -0.6661080372895108 -0.0717062673960507
Ni 5.01437872647721 1.7182602457959342 6.331034699616981 2.6545143758236995 -2.310632927546137 1.3542866812258159
Ni 0.6926783557165892 2.2890664663517475 5.9302825564551185 -1.5418448001868803 -0.012164403276675824 -0.018122163522007496
Ni 6.131215432999409 1.5816599007467427 12.960116293825545 -0.4031926844433701 -0.4723548452613285 -1.675865095130804
Ni 2.3453682105235294 2.880308959001534 3.8003630954174015 0.20066560287729956 0.4754049449415619 0.010787834644123357
Ni 1.994057195506982 5.486276728146264 8.718789630023986 1.031420658857656 0.412711936787715 -0.8282027218721477
Ni 6.4575281768883 7.4502729462808945 2.7864170845806733 -0.2381080639944738 -0.13706370975593812 -1.8709755725178294
Ni 5.518451802631785 6.69514156558166 6.926612945819917 0.7055683001676623 1.0986046129033207 -1.0377334884495613
Ni 3.214058132209557 6.172811220936598 11.170722243584907 0.6535538547735841 0.9203140352871119 -0.4540115668674503
Ni 4.293861049828249 4.710143461651726 7.393334191268434 0.18180039054168043 -0.2513423032965607 0.6468790138565699
Ni 9.326877211382087 8.815284254706544 1.291410130113337 0.5012692143028336 0.5535068314513113 -1.347784361330924
Ni 2.435402784948431 3.6705918403850935 6.334807621175528 0.34198037460010783 0.6753095012831208 -0.04726870317897666
Ni 7.795454934140402 5.176366781595957 6.300649189793047 0.712062135422122 1.9023216909292788 0.08740722307107526
Ni 3.9177372107992365 0.2567218594425712 10.761745520864352 2.4506986573531924 -0.8301734724452735 -0.5601477338065965
Ni 5.045172219954562 4.0033581438826085 2.88727713435481 -0.8264723694446023 -0.41058203492890577 0.7553831668072604
P 8.484168430534222 7.329880679099337 9.969224292800446 -0.2263218699928231 1.071638111616806 -1.3632521179492199
P 6.451111706702715 4.557548302917369 10.72107325956081 0.979660495566229 -0.30826292774300457 0.9988365542740474
P 2.345405299946567 -0.05380840770804806 1.484684040800267 -1.2020331511033169 -0.3389948096092226 -0.1702952181155583
P 9.168088119000373 8.128564314801018 3.2568296548570537 0.4415993092460266 -1.1036208351709897 1.1326503896341205
P 8.515963338433602 2.5285435985527704 3.7048773030414806 0.5680659602124087 0.3193405257134049 -0.17808874601804814
P 2.127356581905786 4.2017401953574565 10.291237445323649 0.4397069773193201 -1.4266683774223365 0.16555384677583102
P 6.718582080941717 9.308425223420649 6.95897995806966 -0.8103299553567851 -1.0354585763724555 0.13780418746638848
P 1.2702014707845957 8.399715814276549 6.346831084888893 -0.08012277359452007 0.8344877835499112 0.9986889729525896
Ni 0.9193114207195305 6.2593872066632 10.892868685366398 -0.31067899338366495 1.0990537846255977 -0.5979673757575314
Ni 5.907538395012601 3.3838535108778167 0.7244945900342169 -1.2692469299456528 -1.7317806753515015 1.5548139587530383
Ni 7.935319148416943 6.354030141900582 11.818317478363154 0.42610198494137586 0.30849381280688803 -0.26834346584024754
Ni 0.8841005769583441 4.940246242179878 4.825804045689202 0.4929864054687509 -1.9712323978580633 0.371532891446244
Ni 1.4825662347447937 7.690964757086415 12.786651843983245 0.12227703836506683 -0.9830636077105069 1.211792544482926
Ni 6.917928457415554 3.8169467036932963 4.575269629244956 -0.038229218684527715 0.25511771117859294 0.8050013440550201
Ni 7.880556615301241 2.65483308399738 10.223654025899265 -1.8286901814860568 0.7210080317615002 0.5817084906965079
Ni 5.628607389054836 6.621528333206863 11.126195463992133 -0.4966689965266608 0.17840216349340887 0.14568770397952327
Ni 0.7747118143566044 6.386093948116988 6.981534963454683 -1.10965572851116 -0.5680140239285508 -0.8997693783665407
Ni 1.6883847155387732 6.97933926961083 1.4688060587976717 0.14165004357503994 -0.03138571340013305 1.1001835273546665
Ni 5.9897100117534325 7.974967741644633 9.203302671703863 0.7958245626517585 0.39413288823394704 0.08913886105020132
Ni -0.027955225379365185 3.7797831018091554 1.2871810086514217 1.6340530441910246 0.989827923017534 -0.7907597465343414
Ni 0.9906770340582225 1.9472874330559826 10.912221019072083 1.299601116757478 -0.02478492025416377 -0.7597764107789495
Ni 1.2612258304093842 2.315919208631306 13.27515478034644 -1.3218388451097558 -1.0187849723715166 1.2480335290928313
Ni 7.312031394262268 1.948353753968327 7.804264599347518 -0.5107154473173978 1.2988164160726534 0.7707035992144147
Ni 3.291343217465124 5.902327331075752 13.641463830804005 0.15002001280629002 0.38346152456302995 0.13876243761459975
Ni 9.321128350811186 0.41003006233483497 12.401383607704199 -1.0566511512896706 -1.4187838324679372 0.8076876326379315
Ni 6.864992578384477 8.942463886304067 11.509373711282988 0.49833738536801914 -1.0395075496308483 0.1860807630845892
Ni 2.462301889006787 3.529448041013739 1.3084833187733342 0.8538224793227811 0.519315273171267 0.4916463465010888
Ni 8.584736401101935 6.487691150174006 1.5478028209264454 -0.2798128999324278 -0.6196451178412813 -0.8148224439105
Ni 7.431709690050343 4.257365057558793 2.452352651276826 -0.7195543300341092 0.24635153495018863 -0.7587150593939708
Ni 8.658924519533823 0.4452084528508632 9.841086826852964 0.03382029098355466 -1.2736933957527805 -0.5074028380043971
Ni 8.03119530697034 7.351559446865085 7.708087089231936 -0.9743308558231994 0.09133098360551367 1.221418497608464
Ni 3.8196635039308346 2.5609968437110773 10.731061441184961 0.1813969844556747 -0.32177870284125226 1.0595071326812269
P 6.593720538284073 6.833976548368895 4.745803087431673 -0.6912547117584676 -1.687531989945771 2.2035374820175146
P 3.306086263122755 5.180251898659193 4.676645221999322 -0.8272349586422398 -0.01709912157413184 0.5875978595977494
P 3.703026540831881 6.854663174068376 8.813745970886039 1.1849376290736109 0.030164182288206113 -0.3591630570269814
P 5.084959898518647 5.309619806215963 1.2557968661121877 -0.4905986219628648 1.3771216768424606 -0.45007597925847004
P 7.71327404504381 8.1492509405005 13.55458185733734 0.10673883352015165 0.49768252539283964 -0.7956247879361266
P 1.3667081495296396 5.094250798989681 2.6001410207854505 -0.3417677443686694 -0.5822203973359199 0.09544783398736464
P 2.132966357140293 0.9930971189114562 9.270384456681658 -0.6010244174163003 -1.023619160535366 1.749623617070193
P 6.260768787671368 3.947260391537536 6.92936776271607 -0.9532182422143003 -1.8802132890660135 -0.15465802579893365
