# total energy = -340856.82841068314 ev
CRYSTAL
PRIMVEC
9.44166435309881 0.00000000000000 0.00000000000000
0.00000000000000 9.44166435309881 0.00000000000000
0.00000000000000 0.00000000000000 13.81883015882097
PRIMCOORD
 96 1
Ni 6.038860237909042 3.5084280817524487 6.333749854399685 0.5546057209424449 0.14420494878640971 0.659306183876329
Ni 8.692959314636141 1.61335384939727 13.737644390799563 1.767845539394859 -0.9775498769811293 1.007645410814929
Ni 7.769479559400194 0.8973008522991747 11.910795625541839 0.9761527395232865 -0.1106757066807126 -0.8865611072063827
Ni 2.9860679977271682 7.134990268725401 9.039076569769277 -0.686760937653172 0.09005828754067716 -1.2771559003800843
Ni 4.8566127859197135 5.902003312144083 10.059859286016328 0.48235078013177574 1.1112420991616734 -0.6576933308632544
Ni 3.5102219979922107 3.7999866790357872 5.612449180217067 -0.6173861466037754 0.5593771741891592 -2.6084852014787785
Ni 8.525501954486618 6.164575999658643 4.264339065198718 1.123894240708045 -1.4103012489182227 1.1199010603882518
Ni 2.6307403989525193 9.360787122377237 1.794098463884774 -2.8347049986760986 -1.448895307141337 -2.5296515790093275
Ni 1.0914658485929785 9.049297171503708 10.160253447958473 -0.5660224474198187 0.4808220021920751 0.22936014259851467
Ni 4.055723601510414 0.45577085737177736 3.1327839094792806 3.010534516346325 1.0058471812639258 1.722322615262395
Ni 2.085852503621602 1.1431872862846277 7.296480496961613 1.3357230592910156 -1.5023387716724577 -0.7024127852578161
Ni 6.838106572709298 1.3181413279834702 2.416775288203959 0.013657185772118415 -0.3344174746511854 0.019453223628605205
Ni 2.975040133684845 3.8908154907542367 0.4138517556807617 -0.35321403853239813 -0.6199834750173064 0.4285489038199716
Ni 3.316592344071009 -0.18456471191175408 10.174003343853025 0.8552769523811206 1.3175358468590277 -0.5078126718483061
Ni 0.03312796794974251 1.650081923990281 6.120705305932056 0.6969304219870062 1.2850157627441354 -0.27431896669739203
Ni 5.000947509905155 5.863575737955507 7.009850448505409 -0.37090117139951606 -0.7408006410073952 0.7065743728346735
Ni 1.3986598421555008 2.1559474202741766 1.8754638953552605 0.32534508003627194 -0.9239791428435249 -0.30595330577322144
Ni 5.49889144974084 7.648966154745902 8.26848285398378 0.2229313562540354 1.0850317593148926 1.2180123001403926
Ni 1.3126368376267286 1.8721026628218127 11.284608390391373 0.3238664386082164 -2.289200982924606 1.3339747091413414
Ni 7.774549733193625 7.707485590819806 2.862860886213908 -1.3785314127057937 2.185795841763378 -0.6589212897330846
Ni 5.590957119498282 7.614390779640606 1.444095019676449 -0.944562109201199 -0.5127926415614008 0.7071664978927176
Ni 0.11574253162296819 1.2586210754810685 8.359508052322163 -0.6350496253218095 -0.32655529829428925 1.0577631534069267
Ni 6.167550123950879 0.2758165101962103 7.260399176381358 0.7497503940015152 0.0761254795096689 -0.17798821588444186
Ni 2.241422808266601 4.428810971058702 11.219231473449371 -0.12504097426344918 1.9042888419579782 -0.6428835195439315
P 1.4401937239381888 1.9663871237179078 13.505252927769325 0.325195184721969 0.4575470908245346 -0.07796741781441412
P 4.275997632424284 6.156031293358726 4.950568676894 -0.7773445015696999 0.039951600692273125 -1.7166286502014112
P 5.059268671026242 8.094036773830723 10.51344911890713 -0.012437197322088258 -0.7481614522478406 -1.3703879576630529
P 1.1844379181347218 8.649282175030159 8.134965444924102 -0.42553197137051874 -0.8430014774478771 -0.6463663358862093
P 3.9396761041266872 9.257882421865867 7.383967903641896 0.35203544484326466 -0.7036410012379625 -0.4538099923796055
P 5.887009949045444 1.5197775133326596 0.34156826121567807 1.6515139199799496 -0.16343962864630562 0.9494682882535648
P 7.095089794887338 5.977489419180361 8.127959729924614 0.6461920150918743 0.19050048941883965 -0.23271388956209596
P 4.497329129753171 4.9879274546702534 11.875142956526242 -1.207801935266294 -0.9063750566085164 1.696797474408097
Ni 0.6312913989358077 8.667920020594838 5.991042928454981 0.20227665611816134 0.6183767926518189 1.4866964371495106
Ni 7.468800314287331 3.7999772373713676 11.2855761609944 0.9737330743382004 0.20995268460618038 -0.40368710758128534
Ni 5.356218458693284 5.683372130839257 2.911199375543944 0.08678424477509569 -0.1990910593013281 1.2000189488867656
Ni 8.325414202102273 4.473526693750862 6.583414842485941 -0.13961527253319825 0.2092605436351622 0.3253144839086526
Ni 5.183351024831216 7.230804279257503 12.488518797225485 -2.0644562276109157 -1.9128341604248282 1.5308685036810343
Ni 8.900458773590024 2.740698022785478 3.8409436751224257 -1.8430667619227032 -2.6868606533648887 -0.9367318145235028
Ni 6.564562671138932 8.825388099788217 -0.10430112267905792 1.433147814499093 1.811364802833732 0.7684978498123475
Ni 5.996174473067139 2.3934619304185953 12.21878932808072 -1.0200790085925917 0.24018988622416698 0.19248538105935237
Ni 5.0082647998304965 3.116429058371308 1.9470874174774 0.34794096305891686 -0.4844757968945785 -0.1945587186486133
Ni 4.674841862509778 0.20324787746564882 12.134204289043081 1.4714945325980917 1.0408059567272978 -0.25158270144214095
Ni 6.454661697292493 5.937116862121307 5.246581851450598 0.5006187252030282 -0.618362908694748 -0.3254646363332717
Ni 3.7973713379915037 1.4162874296272623 0.38212398656447505 -0.8839097856264647 0.5051415527740462 -0.2620689456854454
Ni 1.7751178859016556 3.5328536676064646 7.3956585725264885 -0.12032737083786374 1.1454197734846467 -0.06432977242632147
Ni 6.49291932152151 3.564955326633775 4.011012599650465 -1.252971589824397 -0.6900056698427148 0.26591685867662584
Ni 2.564875347960014 6.4811455659900234 6.414852807599301 1.0124456604170498 -0.04338967983954463 1.5730777900592328
Ni 6.950519029291403 8.137109646913839 11.57918454362328 2.290187772317908 -0.9276859022711508 -0.8978256243766085
Ni 5.09565684570014 8.042107619521838 5.674730175395817 0.29969112691359356 1.03737096290382 0.03425969251381842
Ni 1.706552518885088 6.165878949348575 4.264324902702088 0.2991295979831687 -0.43350907603872435 -0.6952134392958995
Ni 2.999324094572563 6.172053797879122 13.263410358654873 0.15269678830750474 0.13711718870169287 0.43767400604969137
Ni 1.1260789903559552 4.199104717389456 2.768644405301636 0.0013680839921202245 1.6205431826300478 -0.5519963083440558
Ni 4.452084673853502 1.9577007924516943 7.354975384708024 -0.34071436340349065 -0.7912744813872308 0.9538103672723446
Ni 8.848756219227214 5.9737033117480225 12.274023064936532 0.04145518182099312 0.9602324687486045 0.8669639018007456
Ni 3.403389565082205 2.710144796723014 11.912964375859067 1.8342465925279121 -1.3056406380833385 0.8481367417919135
Ni 1.143819877800754 3.4529016532996217 4.914210715546245 2.2217961711173864 1.2808469760784262 2.2233465463236417
P 4.863930075845056 1.718987190925961 10.30756229623615 -1.2411218895746625 0.6896236039129477 0.20629709013146408
P 7.160275046041618 4.961188661033388 13.207429786143452 -0.3060697767464277 -0.9662797033839488 0.25166677651551494
P 9.080001464196888 8.319824736765755 11.418098418624234 -0.4583482465695913 -1.1563125091377506 0.9742652926925867
P 8.935836690171003 1.9465501867719137 10.223046181348776 -2.2313197943371055 -0.3411277967918254 1.7803315876770112
P 6.064768165076967 9.292391705320226 3.931028483684595 0.4896763672589115 -0.28896679851755397 0.14200845535572318
P 3.680049215911103 3.0544917397774385 3.5907263496676114 -0.035266536511777975 -1.0427126868317074 -0.16426161032696873
P 0.7084316855784349 5.581930888312956 6.030289094948751 -1.09552777375021 -1.9144110179936447 -0.1990884881981668
P 2.3090912171632874 5.845683783879992 1.6833411310754587 3.3161283818975984 -1.4737828144116363 -0.2462934280187436
Ni 4.208725773433229 3.710404167020751 9.6812787561086 -1.4482311911947767 -0.35446667999257664 0.010508612840807709
Ni 0.832751969326789 4.999153593665393 0.4954862745872124 -1.7282875745965784 0.06238164756101514 -1.3589126100336015
Ni 7.838318734684936 5.839650560315741 1.303721073915114 -0.36347094037371597 -0.4909693750387222 -0.39292472685845875
Ni 7.702132167093781 8.213190578808565 5.792563091521329 -0.5687282763867559 -1.745644063597155 0.11034300593164223
Ni 5.064404936470611 1.6561717975410504 5.0779084049238055 2.2465178422337826 0.06393767919422537 -0.8982511419498014
Ni 8.014953392650503 8.473431175211434 8.590157528266946 0.35722315969179125 -0.043889502294098603 -0.01759740136678905
Ni 7.6083481144119345 0.9131524626935721 5.250174404762331 -1.9177015158194584 1.3144142705109103 -0.9534121033926614
Ni 5.078473016456109 5.2083336688860005 0.7128475520275741 0.6416198223401596 0.5113602799902484 -1.7944106914778968
Ni 9.403057453984669 0.15796376657541739 2.2363564111389374 0.5518782947089528 -0.5483777377548621 0.3724078378520296
Ni 0.22409129583879317 6.501520677807946 10.063161980230372 -0.8977909144839312 -0.1279326939889474 0.584635948755948
Ni 7.234071095146754 5.917119416880177 10.32330155082395 0.2231650695313963 0.2933289321409916 -0.6678805558089014
Ni 6.508592484458374 0.3955887441935479 10.083779742823884 -0.6286956580793237 0.23003454295771997 -2.106400176142869
Ni 6.369327934266366 3.221665849994368 9.029872835292858 0.775552956886916 -0.48611256116705315 -0.6982504263500103
Ni 2.0862396118628137 6.935846682783039 11.2509601867321 0.4176361135622098 0.7045840818775221 0.8737986653343919
Ni 1.292299492466485 8.968259365788589 13.590791574913363 -0.7496462643234831 0.12745652568347726 -0.5950214057553301
Ni 0.2501030813153345 3.6296590529026456 12.03465326773362 -1.013277412289726 0.9806840517347368 2.0277375320336435
Ni 0.01120819983274128 6.604104361729043 7.829583306763739 -0.047676223030040474 -0.04991256855972695 -1.6476660069887687
Ni 2.737667248506723 8.28878998581788 4.885329608252527 0.19756176714099524 0.3366828736465943 0.6363788856561944
Ni 0.6826880433714159 6.893812392786101 2.23754511668939 -1.2975514333173008 1.25442117778673 0.3867221975921727
Ni 2.2970719783568856 2.1699022002866366 9.363708373348723 1.7295697837431117 -0.2486555004930169 -0.3400646456346337
Ni 7.774134299959154 3.253172684163231 1.0050585683223203 -1.2504215697090337 1.8124377241829366 0.5276657020184913
Ni 2.9506051061664094 1.0737249611481796 5.112469617532473 -0.5985615576981046 1.0628899331105308 0.7926708475141252
Ni 0.47685220568830056 3.6886977805196373 9.54969594408854 -1.089914798438807 0.5701742648046632 -0.1299309553658988
Ni 3.342783521171527 7.391831865937145 2.9423191014715955 1.0407177678888657 -1.364635885670624 -1.4743618268435577
P 8.0410879197645 4.426696038228667 3.0397835149442787 0.6878739682116927 1.3411498867335419 -1.7718235502060002
P 3.5190405125603013 8.653087165791337 13.524198571594091 -1.0995592635071063 -1.47840951455037 1.4637436850080792
P 7.607970447835143 1.8604138822701037 7.610098598995365 -0.718444127689066 0.6185621691897477 -1.002332226132132
P 0.29935741209409067 8.048754551273376 4.07444075705622 -0.6718878771960816 0.02944350207209768 -1.3579870128955387
P 4.11510222904652 3.992237849951698 7.47829485202788 0.3547207049849117 0.9968295511463476 3.6949860891400297
P 1.8447218360044007 5.2033579117367665 9.132174213447803 1.0233453380486892 1.3734208309521057 -0.32647636542723774
P 1.1123791352828294 1.1790844944086967 4.193061107994343 -1.6568566723491014 0.32014888054731316 -1.2180768348297408
P 8.892046250591985 7.691991819506918 0.7013192797710017 -0.9212136642832458 1.3339055464663025 -0.7269357100998448
