# total energy = -340885.85636299703 ev
CRYSTAL
PRIMVEC
9.14173137872835 0.00000000000000 0.00000000000000

0.00000000000000 9.14173137872835 0.00000000000000

0.00000000000000 0.00000000000000 13.37984793314086

PRIMCOORD
 96 1
Ni 6.785185125867898 2.1730718628076167 12.034812578862326 -1.0062014792795508 0.18513691111408115 -3.251706821088419
Ni 4.834723567807801 0.8250312156432374 6.101999759329582 -0.47775699011350625 -0.979860527392177 -0.06485659146406894
Ni 2.892370725624303 2.2879925700057226 4.757191628437993 0.24240977669362118 -1.1907904883099623 -0.46675523968636384
Ni 3.643336546497965 4.682861123453738 4.778947121158544 0.14601757651511627 -0.34891669670862485 0.7902910344280389
Ni 4.1686844329472175 3.340443555360041 2.6706709373382362 0.23795662601827408 -2.1437775883500625 -0.17022374144767458
Ni 5.482369538808502 5.349265927575949 3.1017703141223616 0.5274628419790658 -1.3668784018478974 -1.0390663483283715
Ni 5.707886914185964 2.9588311139251724 0.6109730007520395 -1.0362270791073638 0.6346775866943715 0.3696757836328472
Ni 5.583559365232481 8.413053261319867 12.842058555793136 0.16998025797830082 -0.10550701799557959 -0.11162392952659486
Ni 2.5605350124285313 5.634972463417362 11.631557088004856 0.389826033328477 -0.41811613852242185 0.8598355182860804
Ni 0.8517415268588467 7.410607547493163 11.684728141165012 -0.38061402781190584 0.6764359015780802 0.37038180856093633
Ni 0.5928495179726072 0.4176573747266839 4.729642106266947 -0.13687704766642877 0.1954596331963279 0.47653340211905026
Ni 8.960432720782201 2.563899169635508 1.6722265594068955 -1.6942914201567916 2.168531141145659 -2.496049060463534
Ni 1.4772032579297376 1.6409956619444113 2.7165240344000656 2.1608039477047303 -1.3084243714760628 0.7432239057369071
Ni 1.9283751346577718 6.8666470956270516 0.7531223553441123 1.4963288180329521 0.3805816319120736 -1.0190253705170966
Ni 7.683323682815245 4.463614975913194 4.162858407436331 0.5357333095179742 -0.29419925056108687 -0.9751075860882238
Ni 7.852025196667274 3.890446691774554 13.087980275969434 0.6427014854401124 1.723838023465657 0.2949201878875114
Ni 8.358330856317254 8.557812580266809 7.3101737422676 -0.18411618315905065 2.6874304098254296 1.2797151764668284
Ni 7.192056171549712 0.8573051846745151 0.4879298650800241 0.43453417486912904 -0.20153180753233677 1.304056067205038
Ni 2.0158980724284077 6.8957726523157135 9.549786440613644 -0.07303218529632584 -0.9478628914396579 0.4580726243107014
Ni 0.3888362376983275 5.394215821561557 1.6224672004577259 -0.35948778735625186 -2.058944296653751 1.570087082862025
Ni 6.470928962424886 2.3407677861901677 7.099026254698961 1.2536791574143828 -0.03967392155085425 1.156917232601285
Ni 3.627996720972675 4.449966370722933 0.2946380075566743 0.08896891113124034 0.3234792304721268 -0.1782772078797704
Ni 6.1354548400759175 6.068674491171124 5.1255119922126875 -0.4281701803243142 1.6234035348969782 1.2350813398075373
Ni 5.659810548013436 3.1978508267882444 9.420724388895234 -0.2382276202914736 0.5173704907400702 0.10469994871325194
P -0.05627924188399484 5.869403027047004 13.057420381602036 0.05491362131874414 0.016472029513094212 -2.2340107109057077
P 4.243472938681662 6.626548658442177 12.947157386623916 -1.4088241501520642 -0.8895240464894487 -0.5474783658690442
P 2.563597492494665 8.85136272177014 1.4948367438985886 -0.8812538360608564 0.24717068841737427 0.5804895306877421
P 6.5874677561056965 8.28957589339967 6.018817315694469 -0.5037822105326742 -0.2574576721656792 -0.028062305453854897
P 4.83181649717786 1.4310283719176755 12.762488924462906 -0.6238622412464223 -0.5059365378715158 -0.44556215054851644
P 3.802868903614674 6.72097360352604 8.323469777259957 1.1039514790375309 0.7452867018032068 -0.5733943144038577
P 4.608593696417112 1.3343179939486387 3.869626398190616 1.025094716639628 0.3776577733970593 -0.5716503351295574
P 0.33120859041207984 5.978856978783773 3.730649224443165 -0.5442750284403981 0.5097068035472253 1.4525015364353564
Ni 0.7976809832197792 7.937153000774247 2.8074266703212976 1.3129184026916745 -0.512145494895705 -0.25839972436397435
Ni 1.8936914051923661 6.983185889307861 5.013348431247256 -0.13273705735612623 -0.4351684660190183 -0.2970549748423271
Ni 5.7339134238823295 5.996957607234354 9.564249574084181 0.9332986204722378 0.9804110005790083 0.10106312329161304
Ni 9.012257196886413 2.589834262016466 10.2214011175409 0.1498166385462323 1.9519010445193026 -0.5536932364305045
Ni 2.6306429516141394 5.465301926022019 6.869789108757589 0.6498476095665905 0.13364748498553758 0.42238776931458216
Ni 0.37573979309312455 0.3277831836037805 9.717208112049974 0.5054434002851812 -0.3597814073372707 -0.9927463822159096
Ni 1.7304109381439716 1.444055339363169 11.557606879052692 0.24974436268182146 -0.6568631216524752 0.8557304949787714
Ni 4.545607166101708 7.116847146164396 1.8540053202278912 -1.6979675834567982 2.6481660650081684 0.7677054358180391
Ni 5.70167967846983 8.403015640088181 7.983808741865349 -0.7729769686296236 -0.08603913907895505 1.2390884040844015
Ni 7.101260493887508 1.0979128163062062 4.987284440451575 0.27631619963307896 -1.1244429141226635 0.4428082419524632
Ni 1.1105009806377464 7.240278805426891 7.500140752029599 -0.24472325531814632 0.37296756701024153 -1.1646891632372198
Ni 5.11735848185154 4.9942467831929696 7.523930280017955 0.6498635504061904 -0.29043721241549336 -1.5034626008642558
Ni 8.323811678019581 7.370063968110171 9.58901635317424 0.9217587381534385 0.08756740279802337 -0.46183311979439823
Ni 5.052168794234826 0.8905481772491068 10.633901641505476 -0.49100331360045113 -1.4862976590491952 0.1833481946447746
Ni 8.446594274342687 7.4473481665552255 5.331828988835223 0.4796701479758191 -0.7383166982432768 -1.7163185751601602
Ni 7.140405388344774 6.512450707082734 7.464456917133641 0.5468718426332969 -1.2971955926397787 -0.3690227234298806
Ni 3.0406039025567098 5.3286330394885955 2.53726107809907 -1.6579982421527124 0.885683846807752 0.08259591772536097
Ni 3.6325127363537795 4.892938114258961 9.37473782255291 -0.789439485061021 -1.4912652874671157 0.664724526678423
Ni 1.0711458263550444 3.8440706876685966 3.9799826388304513 0.21551243808214499 0.5866028426743317 -0.588337051756619
Ni 0.644422596459451 0.6030425486404846 0.4976648949977127 0.5921373993393156 -0.05581453586645871 -0.4829022817598716
Ni 1.4441284732154946 3.891635116874845 8.149277739444587 -1.266432600425309 -0.02788438511509391 1.8045462372500018
Ni 5.535528707717657 2.972159758511509 5.085680553716715 -0.8736407996002888 1.0973614845248392 -1.1797455433497104
Ni 4.031275066158996 7.450913441856097 6.196355227253735 0.37331029506164093 0.5873880575797884 0.26905334742307857
Ni 8.656470147054016 7.683936178828472 0.606218386177723 -1.4591750918007902 0.3767995391618221 0.3090167751898936
P 0.13584704486791607 5.6944120018949755 8.655945411663579 0.11743847932584289 0.19313998392421575 -1.4323019215590302
P 8.665474752621602 1.9162989072925107 8.06165332845385 -0.8454566238565892 -0.6973685379656892 0.25908980845246343
P 1.9216102533176558 3.9420974749794935 10.409990468359714 0.3642985784813339 -0.8685271325228073 0.8545426453182574
P 4.007954508998677 6.710734864200458 4.114076299588862 -0.34062360346189724 0.16556567385037294 -0.48235283701430476
P 7.080481338095502 4.508080358127145 10.456765966134 0.23571153873783923 -0.3107219308064584 0.9744247010885865
P 6.530158241077064 8.096703641354036 10.374373368104004 -2.3191725895860316 1.8190855685167575 -0.4211001608514103
P 2.025012378774483 8.856006721392815 6.266692623901014 0.24837087937306257 0.005884740915551155 -0.9906406487268166
P 6.97452866953882 4.1780547077764325 1.792271207133562 0.37132540342112824 0.4334088030154342 0.7610779031991924
Ni 2.988230922560055 1.7766863832029813 0.5461919485351961 -1.6613743577137967 1.3903453746215861 -1.2968348668662506
Ni 1.4746435730983423 1.650667613914469 7.21706337817929 0.4813205390950485 -0.8772367444816634 -0.03005079663879341
Ni 7.039334404430823 1.0666023857793179 9.38087923780195 0.818375451369081 -0.6092977131686861 -0.41424791381626724
Ni 2.7328932188968387 2.049813896444395 9.574003801638105 -0.03908308204439076 0.03927077257516463 -1.5061689440518253
Ni 6.698859754929093 2.0327645671209944 2.828619946552096 -2.0738808633589247 1.2647431285380284 -0.9934626915566439
Ni 4.197974540803611 7.4117411222042096 10.805739683449117 0.38388472814337754 0.31715097426125377 -0.5654403496641036
Ni 7.1588168356677375 6.585392583045957 11.621173909320932 0.4739425014634225 -1.7871324126489287 1.726191354189182
Ni 7.875729706552302 4.065172606711902 8.276827748766166 -0.134780055928084 0.07110668613883883 -0.2463736464373757
Ni 2.979573702791015 8.634292306336283 12.523725180082973 0.1600303458544405 0.16805501593112993 0.7028786691506411
Ni 0.04265440519573957 5.213291812639617 10.845637856585338 0.03476902805006915 -0.885865880911571 0.21243842714251157
Ni 8.892573647555604 2.58673521502417 5.844143508626903 -0.3233766434559915 1.1550464979411332 0.3515415359259817
Ni 4.06280489824286 3.0035250394276414 11.232074389754231 -1.1923771160707917 0.09335829844818762 1.5040063891828679
Ni 1.278370596919571 3.368161285391435 12.932479422462173 -0.36696815489369705 1.1602709795648662 -0.32835661316908615
Ni 3.033317942518774 9.259294208310678 8.204335645994744 0.8309877408164527 -1.5599168271972426 0.1081717093119363
Ni 5.638811990664455 8.338502440605481 4.012081086616148 -0.7703194764021185 0.4879799533930951 -0.4703671254073383
Ni 2.8979746070587504 9.016672653220569 4.036191489381583 0.8075945587034931 -0.3681927713294175 -0.33676926271281354
Ni 3.9209892168520235 2.8699826250811356 7.3806455223685274 -0.8482742958110423 0.43945372365793356 -0.5680718737496797
Ni 5.420141772210975 4.687971351384987 11.921110464478595 0.44225776876563183 0.6752511372413597 -0.166349603204249
Ni 8.13870989778354 9.30509428332957 2.8186390040559632 -0.04168580977456047 0.2275644841506726 -0.2156728749194092
Ni 4.579111612198363 0.7124882728188668 1.5636090761061003 2.122774503735834 -1.4462892369770575 1.8843046855265677
Ni 5.91891464507142 5.912661700697584 0.6876035653919348 2.4300475567617443 -1.3242078595625646 -0.9860761692845856
Ni 8.005414310188634 8.99492447388525 11.745499629928107 0.2511178459905804 0.06419684639288298 -0.0959851945480734
Ni 0.26111984886270756 5.235231968337291 6.062409662546283 -0.35447490752269273 -0.47513343644773004 0.18352971452796135
Ni 7.476830250773975 6.860915229951034 2.7790617056968223 0.5187825405962485 -1.0206713907609517 0.42654318624385246
P 8.607013379418841 2.267944752736973 3.6705871340476293 0.6718397975669654 -1.067281634420323 2.2695215022178075
P 2.024957528385239 3.5648273560264565 1.6086723275628136 0.06795991297974102 -0.23009342122011342 0.6461506203309775
P 4.946216125678145 1.331228088687883 8.457870600198136 -0.2199622463233825 -0.034390818775044 -0.3376040999092831
P 8.867177917335548 1.859236219015478 12.218557726137725 -0.09912451150800348 -0.438544838690419 1.7802035467395794
P 6.4116631168465466 8.429627220603152 1.7795194058074435 0.17597915587421306 -0.21866512477851374 -0.7498365259574182
P 1.9866445314981764 3.4889327007755875 6.12489339762695 -0.4475940933768807 1.4916923477022053 -0.4461537613859284
P 6.852523120396674 4.3782586285177025 6.19490991949715 0.7611542649630827 -0.09226120872926691 1.151759085439113
P 2.3562447376885682 8.783622491053574 10.365663126292027 0.3047865391586299 1.5471461577951355 0.8363474624664694
