# total energy = -340864.5173499221 ev
CRYSTAL
PRIMVEC
9.33563584239610 0.00000000000000 0.00000000000000

0.00000000000000 9.33563584239610 0.00000000000000

0.00000000000000 0.00000000000000 13.66364671588087

PRIMCOORD
 96 1
Ni 8.608408468681219 5.399433022826345 8.195345792942986 -0.3914532845192549 1.685425742236046 -0.7622968632079581
Ni 6.670862601938162 2.7823182172232586 12.391287459271863 -0.37511623792212817 -0.5278734471539231 -1.169312006721212
Ni 1.6342870724918344 4.081007852954135 13.192060024529018 -0.1784769825954023 0.552246476681649 -0.006719578112020686
Ni 7.376524642938698 2.3146402047614543 2.5907640399137173 1.2498885800236992 -0.24381719856410916 0.4488205095848141
Ni 8.649709321586261 7.813749811328112 7.3551413690736425 0.06285884430774981 -0.43974040166041684 0.9478397515112063
Ni 3.791164367388389 3.8065214883261818 9.131250753253306 -0.2663634592957413 -0.31755540878852406 1.4543817841772049
Ni 6.65561750863031 4.143995387888657 0.9621063558264354 0.27617016097351793 -0.5974284725349259 0.1583069354054306
Ni 6.16876410017688 6.932671173111086 8.614655876177615 0.45112987444428115 1.142632697657813 -0.284214114323917
Ni 5.045967179089744 7.087698741678252 4.512829555326046 0.3003827536639795 1.073877799580602 -1.2861136237940045
Ni 8.278179022521616 9.212974909295518 12.180211533881458 2.0410519897543624 1.1658603007271857 1.2452845055927844
Ni 3.789082520598645 3.4229295477711856 0.46292150600721094 0.49028700425971694 -0.4113723920406851 1.1310665900867682
Ni 1.642810508003205 6.683381689584107 7.9178104096534625 -1.7033157351425892 -0.12129179163366209 -0.42040107790185666
Ni 8.176131187280879 4.347530920220424 12.98849835241693 1.2620244440552846 2.4894166427486804 -1.7711398938754142
Ni 4.5812392275497285 8.306858095786602 10.3361938011221 1.2556198260805214 0.0787415769762773 0.38137301746511737
Ni 4.668994204337116 1.3214965940597692 5.218256338303705 3.911819560026444 -1.7615051989991275 -0.29817494737938327
Ni 1.9195000826866715 1.8184885030228917 13.463010050305156 0.7268680900867031 -1.846117375823569 -1.0529513338405803
Ni 1.5013662895664277 1.7812486517032229 2.0345169832202856 0.5585173972920252 2.165073778724677 0.8933465055593325
Ni 9.0396494945046 2.7394769844065223 0.5969840371944364 0.14682901667281809 -0.9437493834919166 1.1124911410774259
Ni 6.59172441702043 6.143305821272708 2.179023290208793 -1.5863439110405195 1.2399587225044968 -0.16729731182949897
Ni 7.64411197268943 4.431066189613355 5.920116908394897 0.20463512904800887 0.964030759448772 0.5634850257099456
Ni 6.241815450534465 0.5347050770192938 11.557983003843324 -2.0429864877729136 0.1577466920265864 0.22027823490190454
Ni 7.899628325313983 4.837875856473694 3.4205433592534353 1.0431644296571454 -1.7880279278800046 1.1535588576520133
Ni 4.414635470555291 1.472509839220703 9.462430567140245 0.8596941076122097 -0.06624447295053107 -0.5305851896581313
Ni 7.686943869870337 1.9461253160693983 10.193941116622579 -0.2413360840134683 1.009816964544951 0.5591434609117983
P 4.932464518687504 4.2287722968467705 2.1365844232962625 -1.0631146475268274 1.3866874661540247 1.5900054190525068
P 4.586448512342001 7.931173438778299 2.370902347645164 0.635054510417816 -2.8103129429849796 0.3930959623290004
P 1.222034729943511 8.439620172902924 3.2131017968910456 0.012871199535713316 0.16547414257783116 0.4956364414970883
P 1.7723517907587143 6.09020472468051 0.29255642133749254 0.09991641128167954 0.328426290064757 0.2896375993323334
P 6.244924217265337 2.7592685323628268 6.594622198381579 -0.16563920740078572 -0.1935539315331828 -0.768269021630993
P 3.7362521574454726 4.77910802893363 5.903105512788303 0.2353361576762915 0.5039359625017192 -0.26535173020177527
P 1.3156338147595052 9.059618419541644 12.405115403060956 -2.9149684116135415 2.112653870362065 -1.582192093655675
P 8.674831517600607 3.879442139782169 9.62950950799835 0.5286514629705282 -0.186360241998221 1.2195853010544673
Ni 5.230103260170002 4.745686452667796 12.63395424274214 0.9347050139014612 1.5767374982990072 0.42670439441206504
Ni 1.959409925853276 3.7736973927533675 7.285429375651892 1.1735116466248565 0.020041234921591294 -0.9099481186717555
Ni 9.230451219566367 7.11989734965056 13.054548909466764 -0.5329094669159338 -0.595988911874922 0.8264080918655703
Ni 2.461209687268048 7.101814223050861 2.3380138361851333 0.07999910353246223 -1.5883843385093162 -0.5238910654674075
Ni 3.7870006738089024 3.1010181531347296 11.907307559526426 0.5316457697121618 -1.8569337497127827 -1.1468367084368314
Ni 7.6815105298181825 8.01182399670024 1.320409926049338 -1.0206220255802552 -0.1731781960903082 -0.9461618495881511
Ni 9.096008728000925 0.48462032436326674 6.17980815736193 -1.0051061893328432 -1.2923243805904066 0.35833001960272487
Ni 5.859353121914712 4.603775452439596 4.461700145020815 -2.111120978657306 -0.7458127495100059 -1.113954870107146
Ni 1.489005907729566 4.811381321992566 9.31965882128866 0.15323466308884579 -0.5706833432305977 0.42110504594741677
Ni 1.9650113073503435 8.749003144257607 6.876066412392473 -0.45728329564018666 1.2595695547568888 -0.4660697835835651
Ni 5.016503912415169 8.837607663905382 0.2614043381415529 0.8988458381110068 -1.1035627282395446 0.212513246244505
Ni 8.886143634577472 7.171093976533755 3.3579367182607145 -1.8681956957798471 -0.5903617954961317 -1.8329075620015145
Ni 5.195001269455047 5.768162631142456 10.42014263918223 -0.6078992901592628 0.39125710934804875 -0.6628057123891553
Ni 0.35596032562996277 9.213348334728657 1.3551468934034008 1.48679542462122 -0.45676213302939406 -0.8523320108201838
Ni 1.246410075091582 5.180428341926843 4.340871811183995 -1.3013674646292814 0.16051628435192353 -0.2952639443801754
Ni 3.246149947723743 0.06187846139810222 1.9510461297145718 -0.7927569794700283 2.392432060401815 0.6727283708195059
Ni 1.4177283281793849 7.241101909611268 11.264857108720296 0.5132482410415806 0.7645740892779089 -0.5906608147937892
Ni 3.482276184732614 5.363593516880943 3.765891867637204 1.3958760746318282 -0.22722895518812478 0.22785784702137532
Ni 0.9763954800254541 0.9104289436980756 4.107469712709864 -0.85875102697265 0.8117078095409183 1.1762020489728258
Ni 6.938347239694781 7.5928593319912645 11.095878365971101 -0.24698119811438754 -0.11761897076776519 0.0946335656161854
Ni 0.6844150674185767 2.450436363522022 8.852745397401208 1.5311019598480793 -1.3879786741616225 -0.06850395840866913
Ni 3.853601099809032 6.867256372861169 12.11343746505492 1.3468729052602482 2.3130009135576812 1.9257632097816706
Ni 2.141464160143791 4.48009694898435 1.9605012616816213 -0.07259535486922336 0.18630881993499526 -0.3244907024557766
Ni 6.180041548257642 0.6856006931687891 7.742615067006106 -0.4130389811098306 0.20658093992047002 -1.8755228255688796
P 8.993643481142021 2.2265398094484143 12.024036615670978 -0.14310451663337934 -0.08838449938268003 0.46608161065810694
P 5.593464877884756 3.6893499230433626 10.58433873569651 0.08590929836931012 -0.8220796396935454 -0.19006340188142104
P 0.4121020388114852 4.901003425945642 6.3835191996472735 0.12072692026912756 1.6233423426417397 -0.4899211362798659
P 4.406830879002711 1.179613600739055 12.788093992342022 -0.19950474979997898 0.48856719335513277 0.06723331922636162
P 6.863466104714821 6.293665571925651 13.511461066691204 0.5486675010811389 -0.09177372756988712 0.1525198964100083
P 4.726725776300223 8.527337807146997 6.344004253876212 0.241821508290319 -0.353499688093617 -0.8179121385794172
P 3.2263677354032665 1.8661282526554488 3.5824848997151473 -2.2864853837656556 -0.7224748461150139 -0.49292778431667367
P 7.4768267142795155 6.310843141849991 4.948125981353304 -0.6420880202258297 1.0950194666552238 0.01814041835445263
Ni 1.7348412060000205 8.771884787673127 9.432944894939682 -0.6353247333600671 0.5032813596368558 -0.6593336946801548
Ni 4.2832270606340925 6.214023262673183 1.0193627439258743 0.1087581779430256 -0.5620230964524384 -0.6466481287926864
Ni 0.43087413533532337 7.704756263031011 5.282297866523257 1.1234116446446716 -0.1112457202515697 1.2780781550840377
Ni 6.075080994638429 4.37278381513637 8.312142999229085 0.0600411723532966 -0.04543550662497982 0.30268131989016905
Ni 7.563237359507606 5.4906048423269445 10.45738995901056 0.4146207237746537 -0.3300373433056187 0.2419788598037897
Ni 2.9907362870933034 8.462193740336106 4.6881882716004 0.10338560077720259 0.7376039884469684 -0.20278676298536044
Ni 3.050596384025295 0.5855357469780137 11.083021328308165 -0.8963850352753401 0.3575975123120745 1.8453085067690285
Ni 1.6225895207987922 2.63896019344165 11.122399973796131 -0.7365801751681443 0.6579846368514282 -0.6032137117581354
Ni 5.637706456075759 5.99532665775602 6.405736145791807 0.6932408889505609 0.29348268411003653 0.9418156568043135
Ni 5.0549573963925365 2.208522032299515 2.846233714359127 0.22423619110838802 0.58019745336862 0.002535364827344021
Ni 3.0303473899133975 5.146474634418787 11.311244949588259 -1.8155801264666604 -2.440787825997383 -0.8311078113340847
Ni 3.697163850231772 8.055169353851712 8.235776564588818 1.4093571398373985 1.7631746162817505 -0.960371822539946
Ni 7.000270512144859 8.349988733314019 5.572403683455783 -0.2973375390797524 0.14784023154615183 0.062729260708421
Ni 8.703631954131362 0.5325112025996092 8.731875986766742 0.0020918495320222034 -1.9580328684486539 -0.8816716403245655
Ni 9.12294203736599 5.447166128817187 1.5702810196884294 0.5326490141656955 0.7654906875549075 -1.9825323962519144
Ni 4.189880037985466 2.905165849089772 6.977450483925808 0.18022816095855412 -0.1780596925523256 0.8329345801301784
Ni 0.6105533838710818 5.190426807899109 11.44656965873949 -1.4797534301727742 -1.0356691497213646 -0.06502705560366219
Ni 2.6479504107444427 8.297681165767239 13.61049535868652 0.9171880880636204 -1.7433292994210492 1.4901746255060981
Ni 5.913154391194042 1.7983048583617927 0.7205439780746606 -0.2871256315437571 -0.6142355167899356 -0.4255530544164413
Ni 8.029925794571596 2.3238638129599587 5.064567499914339 -0.4725366222548313 -0.31138476120143793 -0.949764736448061
Ni 3.8526488649545305 5.834454981160247 7.945068599145357 0.43544923048423073 -1.7593300457246797 -0.4404374277274415
Ni 8.06076139971295 3.0290964147123853 7.656465819581212 0.39176850176682854 -1.7596162095065309 0.6634541446064316
Ni 2.6571273407638043 1.7555943244466548 5.592639607677522 -3.789244530804984 0.35809244967062204 1.7891417297694736
Ni 5.93569061608391 0.007688829668307683 3.106936012686381 0.3414939218819925 0.3450764970269283 -0.008695213781152766
P 0.5047162140475784 2.36517400150083 6.342118455438866 0.968305732675042 0.7066306799939056 0.618523088421696
P 3.004431664853633 6.682886900885199 9.826348588750372 0.1230583966157816 0.3080451553052437 -0.24903756642278402
P 7.854789266429959 0.29808031705718374 3.9348706103863984 1.2342380179706356 0.49587144032602987 0.9604157884040041
P 6.72678306055055 9.188496872153333 9.546680946237633 -0.1270549193696844 -0.9465107482871377 1.1252497262946748
P 9.16132083625673 7.377318171984116 9.51906613545709 -0.3382296493084239 -0.12480854653766892 -0.30490763811752647
P 0.2565105978402818 3.7107658716338165 2.7638280569014393 0.7238794397720243 -1.037551197235426 0.11439943538920298
P 2.710956616950621 1.1635469714783002 8.147359691221194 -0.36549285589975117 0.37358000378325984 0.23297537075359875
P 7.841700704998479 0.8327480515331638 0.9632826459408196 -0.6535638820759131 0.09242884465538276 -0.6296729343909284
