# total energy = -381164.944424564 ev
CRYSTAL
PRIMVEC
9.29824647290835 0.00000000000000 0.00000000000000
0.00000000000000 9.29824647290835 0.00000000000000
0.00000000000000 0.00000000000000 13.60892359426596
PRIMCOORD
 96 1
Ni 3.918095018988439 7.891867936723147 6.341050632064629 0.20393167522308103 1.7956065115582105 -0.3006825442925854
Ni 0.8893316956207014 7.459620361736874 2.5299672699050255 -0.3111626178883028 -0.06209291267600273 0.6448758673836119
Ni 5.506691098297272 8.411928149611851 4.589745470863499 -0.34255141661222943 1.0487146700514134 0.8263710679800477
Ni 0.2813640027174718 4.347906453448405 13.359730488364683 1.3524527133408708 -0.45873596892631313 0.13892004623838655
Ni 7.8821047781253535 3.279370587028277 5.656059056421844 -1.5523387577396683 0.37436624712998107 1.8029940622715335
Ni 0.4964891585597482 1.8092248671263789 12.13582557566854 0.2584719723628065 1.4790767158207236 0.38243873972547043
Ni 1.4029008027788166 0.35708334150343807 5.301546680015824 -0.03257741971538906 0.09874990177740413 0.28016179863141427
Ni 4.95304561983216 0.733329438772772 8.378551164752198 0.4570431546049226 -0.8889725448613529 -1.2281131360198205
Ni 2.2843745504652375 0.14852274753739175 12.474755950952483 0.18956357942686708 1.007927203721406 -1.1293601489186227
Ni 3.809686765567806 1.2980165846996727 5.649771582284865 0.471474242428588 0.1845545562480499 0.1568033542767106
Ni 5.855282351469887 2.665286507719688 6.879242425206378 -0.8613118457212908 -2.6293859561871877 -1.3573835749835848
Ni 7.536842297122272 3.4626576177708377 8.238216452892155 0.9807326455844851 1.8689811677956198 -0.5318892531815356
Ni 3.71684377642594 8.039551982445756 8.85423735690162 -0.27663270243223326 -1.348722299764161 -1.2676651872808298
Ni 7.626328619355754 0.5375371966033818 12.832262362661822 -1.1835266076586972 3.1611631092708916 -0.60090357556772
Ni 9.108580655918916 2.66179036711705 2.930232596974186 1.2500168780714473 -0.595916920986406 -0.14362516502353975
Ni 1.9699915453700307 6.362734142398013 9.851254832206719 -0.04656653490562949 -0.588790851464586 -1.0609734328141083
Ni 5.532214784345786 5.485091272180441 0.9991291070361057 -0.30826035663984336 0.33090329085033976 1.4538392814101737
Ni 8.874525200467835 4.6349340179772245 4.296038046204532 -0.44482887192691783 0.0328044481245306 -1.1654203849762896
Ni 2.0537594461390913 4.167557668531466 10.864017027943856 -1.5503695498284396 -0.3225510622309026 -2.3307829201314503
Ni 5.354302139955154 0.04538474011031034 2.13477692565746 2.228094602531588 1.8177295687094954 1.9345481550631523
Ni 1.5434995848333142 3.310975326146275 8.320590546543302 -0.4635313334324275 0.432322769040107 0.16890065176087687
Ni 7.707604590120806 4.368604349675725 1.7503799856959117 -0.02858963871223463 0.5264919934253642 -0.33559195457526075
Ni 7.429326675344866 7.76898231383893 12.494216250599452 -0.8846641472939861 -0.4463471083436571 -1.8159724768090728
Ni 3.213380933153483 1.7242388960941646 9.746261824646055 -0.3016963302690804 1.4005757941003427 0.33372919033490916
P 3.642513595634745 2.9668286346972264 7.879947584987557 1.4948023540860964 -0.15335679048900686 0.23787023695205486
Ni 1.9762585633651855 8.62293325252586 10.342237569317312 -1.8788912278204803 0.5584847442818769 -1.0596855672406202
P 8.710448346547215 3.9941546735883855 11.459720333999 -0.25419802757780097 -0.3445067405663873 -0.9958533032760074
Ni 8.107001460987078 5.837160069463127 7.657142077715016 -1.5040333857660615 0.925369081212516 -1.1693444026210442
P 6.524960645308192 0.06137679389349467 10.800531391793237 -0.17468203432934432 -0.03607103469094433 -0.040480476612549644
P 0.8022415314545059 0.49722372001615356 8.655478974167758 -1.384662465304196 -0.7316711679023012 0.6463737920853772
P 8.571346582144379 6.375230985403188 1.4399059633383355 0.35432501220838974 -0.33966226798989246 -0.2704656543895729
Ni 2.190285596321367 2.554386324295047 3.927956738996838 0.6756907958819396 0.6181261100935935 0.3224127368808254
Ni 5.797744803466895 5.830446735646359 12.44048819409886 -3.412999321484735 0.2942424450941965 -1.9728367662307056
Ni 5.301413715093968 3.6988888628522854 4.715791567659515 -1.5051628713848144 -0.36670410259903297 1.2408496097498822
Ni 5.8960365649309585 4.910199300957276 7.154959602955812 -1.1030665053294166 0.40766563261305916 0.022375796592038883
Ni 7.526428261284627 6.987845941798967 10.173568311557219 2.3230235879010057 -0.1946844455932002 -0.06715721457278756
Ni -0.5574577594413923 2.103756116406074 9.473103524273872 2.432343551884772 0.12399633504901872 0.6162342923875194
Ni 6.705142061792026 4.609159279279052 10.429007873811349 0.7160386035713668 1.8032054069513912 -0.32160103961280745
Ni 1.4416558932889114 6.373659581781257 0.39755581810211615 0.41634027756892167 -0.6086137997277842 -0.5398455319141348
Ni 0.7286449822950883 5.027124747973698 6.606383528364526 0.4329768576843382 -0.0060390071052283095 0.1197624994733292
Ni 5.560946365362148 2.8096045882876304 9.11962511285459 -2.0280959438143267 0.920502240038518 0.26065586738800267
Ni 4.139467666508674 5.613676720036511 9.680816118178853 -0.47942615028581304 -0.8585360827483667 0.45492328004844235
Ni 0.715198788344357 2.6081208895680414 6.024166398719132 1.0231566190766508 -0.06399552901535431 -0.18320009910268448
Ni 4.128728192051103 -0.08675821677387044 10.723301087986185 1.086278230127484 0.6318306041638796 1.3054444629121325
Ni 4.579339803447509 3.7566681652586507 11.104514308420224 -0.4959089784321847 -0.8102070566256755 1.1694948121559794
Ni 4.637909456787981 3.9034037898603318 2.5002314782900337 -0.3104941310663685 -0.6632525701185868 0.5987312505067495
Ni 0.060266583287231404 8.286773754634433 0.20497797967297057 0.606150425788956 -0.6336905401907539 -0.641314889505231
Ni 3.2053844413495765 -0.1293413952789285 3.2651349719680676 -0.028036594422242038 0.992097178667685 -0.2826249154599262
Ni 8.047501983018245 0.33970305955011043 1.4183489091544095 -0.6757812987132167 1.0033249290627044 2.2059448059074267
Ni 8.776689053071667 0.19154759274092137 10.812425708439235 0.2849792746247157 -1.9111436600962826 -0.8835778562083428
Ni 6.992690328112729 2.9128988062522763 3.538986921513009 -0.8286696342062374 -0.9019288479117047 -1.4314737692307797
Ni 4.797439468275913 8.775908000383845 13.736302954078573 0.07674203004774525 -2.298670098757306 -2.390894540711366
Ni 5.387906002024128 7.386368777514578 10.606155272532842 -0.6335203331614766 0.003658936908825957 1.0227701822715094
Ni 2.9366930184920395 6.046984295099116 2.3960957690367213 -2.1867108973784792 -2.633415903282187 -0.527697069477059
Ni 6.511859416294582 3.3578849786470975 12.942044896883173 0.7312621053893406 0.4182768324700022 -0.05490102291325384
Ni 6.772275399959705 5.984407097610407 3.236964075202608 -0.49803502363625196 0.008479241115604752 -0.19408075057093027
P 6.5951717029957475 5.339573717841912 5.222179639212797 1.814865616898139 -0.06193813226569333 0.1370061170451253
Ni 2.555929833178127 8.61914886628843 0.8574600968343644 -0.17203842605891018 -1.23036387972721 2.1319142612535735
P 4.5437182219349905 1.409642031334435 3.677130966548633 1.0190585377478771 2.291626304536647 -0.06321545631622016
Ni 3.8733611561179817 1.4330457172302868 1.0683006207891523 -1.0646233708618698 0.6058130970541954 0.9866960622567718
P -0.15178550215831121 8.702470451235877 4.076471118112575 0.7159295887973283 0.059445704861142784 0.4211824361525714
P 2.799330026144239 2.321223500487192 11.75095163567264 0.0669255581779557 -0.05856407358713785 0.9820040560977409
P 0.9456223487970602 0.9532190160107713 0.6594353457322788 -0.26350619235260425 0.8412135323095189 -0.2942897533923641
Ni 0.5446261795700077 7.118793144211075 11.74539872299207 -0.35940036984876816 -0.18667108837042043 -0.3643841962166047
Ni 8.350187794288669 2.510433514112413 0.5535534258269036 0.7438168021258996 -0.7482265011578211 0.28773986808898827
Ni -0.027787809018574562 6.738160134345133 4.972578445800143 0.19784227449589153 0.6945683495127328 0.4165760477288116
Ni 6.139715705285579 7.480095100053388 6.8300463339444155 0.4010892649471221 -0.9234998892142612 0.3434050228617763
Ni 7.79709091235429 5.6764770754360265 12.954184687231058 2.244142657133387 -1.2443902759132892 0.9262913359164694
Ni 2.7746338840149654 4.516288395398336 12.839461064934596 -0.19392956970504666 1.220924331580865 1.6363400404529886
Ni 4.703555075550282 1.3900506264148647 12.4663996170174 0.6449344885356892 1.4920718425288109 -0.6663309519335943
Ni 4.530356642025441 6.000046747859442 5.200255304300668 -0.04543036441865724 -0.7508765371861584 -0.9211923241270071
Ni 0.8677309396792423 4.684986477721909 2.198548947793613 -0.3844704254435185 0.5141797517169145 -0.14390310127527475
Ni -0.005522228467837187 5.021861940577173 9.329733864826856 0.5317745819805423 -1.2993236947263753 1.774774662414524
Ni 3.4434474409488955 5.808381997215347 7.305705561179616 -0.6588896651642007 0.289094839454986 1.1516338727151585
Ni 2.053536288228285 3.0071086375978338 0.9796278951054862 -0.4288404669184615 -0.7713975399576457 0.2334919053787011
Ni 1.811419253249311 5.228775815126391 4.327351750213852 1.0487408953036583 0.31702370465477014 0.69343089347418
Ni 8.013591278821911 0.9985665631359472 4.999319272287184 -0.1570784623149682 -0.1547125331859529 -0.46825085039528386
Ni 3.0027663565833866 6.8279440004596905 11.896063786473205 0.5910595928941047 0.4589851088226419 0.41208227362351607
Ni 2.540578428563883 1.1162544663476248 7.61755386433791 -0.7306643239043417 -1.5029697203882373 -1.1547549348426436
Ni 8.611356935902762 8.33356252993357 6.662779251723889 0.8729586859315999 -0.2830576321219706 -0.9469077266152404
Ni 7.273023155317348 8.315942353226125 3.2118011611098973 0.707507426171904 -0.007942137665212127 0.5443375062472173
Ni 3.0247939020292636 3.8924690522308043 6.112679194566719 -0.27454470955495297 -0.47303361649590797 -1.1242606229085284
Ni 8.18181515058502 1.3657450106295028 7.387726321471987 1.0070160047610461 0.7881768162985135 -0.9047562900581708
Ni 6.954558220103636 2.443755790012631 10.805416690390649 0.4597325285116276 -2.501456090411718 1.7340738422610522
Ni 1.8495885542435386 7.71960862607295 6.882576776323681 -2.117038115472689 -0.030640607703992392 0.5255707671626755
Ni 7.321420527223549 8.853009058567554 8.475787575263071 -0.8829332806458083 -0.4319049647763981 2.4426482762448902
Ni 6.694039955729394 7.552165806997665 1.1274514145223504 0.40139959709868933 -0.6081507440484365 -0.46469372917164486
Ni 4.47492979592883 3.599183767953113 0.25907052742788356 0.00012546983427075164 -0.8835765706567621 -0.2415140043522292
P 6.115689036888726 1.8777994334680175 1.0968462368798413 0.6299678399235279 0.8265744422401053 -0.7765297189778885
Ni 0.23841261365958272 7.332662106980435 8.700007345795347 0.1257068899822222 1.6156259478340886 0.3742569752456264
P 3.7030265824484925 6.582851526669961 0.3872784664848397 0.4150763232548335 0.09575328104292541 -0.6308702971331392
Ni 1.2389169313210346 0.708402700135665 2.837283607824687 -2.0345144457461606 0.09636854602942113 -1.082031024815356
P 6.4314295859413395 0.3266780761560267 6.523070311838734 -0.613452358767008 0.025966599267090763 -0.22153601856840555
P 3.176206544511602 7.404770006909847 4.218439531844648 -0.9953030871994925 -2.097463792885188 2.1464001135745745
P 6.002547976109734 6.171720268993771 8.891661868368532 0.9197350228551902 0.66252314815173 -1.0280651121218618
Ni 4.547651380112959 7.332820177167257 2.608245486068242 3.7423445238193356 -0.017337719947499174 -0.8563979533594412
