# total energy = -340860.83767489233 ev
CRYSTAL
PRIMVEC
9.39547691654968 0.00000000000000 0.00000000000000

0.00000000000000 9.39547691654968 0.00000000000000

0.00000000000000 0.00000000000000 13.75123017673011

PRIMCOORD
 96 1
Ni 4.322821282131317 7.081990946556792 7.648351226083247 0.027282232754720758 0.2023026242600903 -0.03372310328405805
Ni 4.27932962014124 5.440441430911933 4.374610089661128 0.9929746961766318 0.27053224596145026 0.12367623270543864
Ni 6.286795374253477 0.40109572215487754 9.979941198421326 1.0615809844911201 0.1952860837329411 0.3436035120258276
Ni 2.1888736196780996 5.870904594821483 7.4780976705443045 0.44780363828452563 -0.1654566590763344 -0.39151396255386123
Ni 5.18829502070937 4.090442955062718 6.205682344162157 -0.2204024191845946 0.4242096530146694 0.6498388678158421
Ni 7.132942617105978 0.0640048064322732 12.539086799599556 1.1747012960575833 0.8864839741115442 -0.6855486625126258
Ni 2.1964839558656046 0.3583030836368394 2.976013510194789 -1.6541259036814997 -1.6073472527650643 -0.36612020507110493
Ni 6.586294987400516 1.4163211464018057 3.261763782629735 -0.4974724662645626 -1.1861889849822087 0.4502654695614568
Ni 5.164186227305495 1.721035249158802 5.291941222749448 -1.3624373353574082 -0.11470256845191859 -0.16142825464323166
Ni 3.1461505618217247 7.38478837205175 5.271588740960098 1.8433526685942383 0.8451560618970347 0.721445633519551
Ni 1.0293778309126556 3.884315590102625 9.839912891666588 -0.7348369672247924 0.7394955490427265 -1.5047332400465634
Ni 5.53701753667905 8.0615915415171 13.210160607327692 -0.5010565840713951 -1.191909946626386 1.3644157992400179
Ni 2.866155958458959 1.486411403141051 0.2878435846603489 -0.7503080662771981 -0.3233632737195528 -0.31162695911923105
Ni 1.6073030028010862 1.546232403765551 9.184336922878312 0.9303323387550623 0.8700240287833082 -0.5869057186267311
Ni 9.264015263666137 5.578338843534171 8.111231603508537 -1.4771982678510882 0.6049906011529 -0.2529800960102998
Ni 7.684381939966535 5.763354572181519 10.36688733255351 1.702948067390525 -0.7505921731765202 -1.3935870214873354
Ni 5.255031092240048 5.5766382622379504 0.28729770745973887 -0.6059444804257371 0.10345862010698312 -0.5835146906673112
Ni 1.7482821318054251 8.39921799941586 0.987372533348337 -1.7812381586516808 -0.9609577769504032 1.0088093492160433
Ni 0.9823440741785188 3.5675658815972415 7.3420295572501 -0.39869351102143596 -0.657012759856462 0.016205406115268866
Ni 4.438902397682707 4.723388038943779 8.50118898794701 -0.6545072198257889 0.3187106054388898 -0.3930797643790844
Ni 3.0438056333149426 0.6731877900024457 4.9805713642452565 0.38717856840330095 0.10455339583305864 0.06442953122897936
Ni 9.035554850412588 6.350863130380141 3.8749182342325725 0.2987794137326016 0.7495387922113413 0.14928853395690417
Ni 7.11374765805527 3.116742719516921 13.288363858261889 -0.13972300175565613 -0.4643923958811422 0.030811071843585648
Ni 0.36498514671900434 2.923947536100124 13.658381222341422 -0.33955299610553774 -0.8747803125213708 1.4337741352291824
P 6.618211422004164 6.973961754601318 11.74727735712584 -1.7519283539439698 0.6484283606215606 1.9638597595430758
P 8.954725563719864 4.238938465486815 11.953284459983218 -4.393462001237285 -0.726746219796858 -0.9165154874766281
P 1.5390730504632315 7.831533897211851 4.0739670469906075 -1.3995812913975574 1.1997027031979275 -0.706325490048661
P -0.3372872811871955 4.493057925812064 1.9090284043960508 3.399825503106938 -1.0152180809558646 2.7803346514553344
P 6.09678125196199 2.6714347023033485 1.5580556717388305 -0.03777696163845752 -0.4516242975821964 -0.7727869641060046
P 8.897140686567742 7.673201322604645 0.5236428048226146 0.45815567094281096 -0.5710661804913132 -0.5114291855549709
P 6.050950116255016 6.404107297262352 2.1058767964934524 0.857297325245259 0.5337345339203906 0.5596975336430554
P 3.084093437724847 3.8283185485254263 6.930455059848403 0.5952720883135554 0.21369903902249004 -0.05491876352506671
Ni 3.5234917000471344 9.12654064749876 9.092780820351917 1.735077600935218 -0.11704998563817261 -0.04823260975414274
Ni 6.492706643247752 4.8817112180742095 12.10255415769355 0.590848505324563 0.10254099338872018 0.8465714541873227
Ni 6.991691019275172 5.253386883804476 3.9987205525974088 -1.0448891256577357 0.7877312441206628 -0.2778087250182054
Ni 8.238047990822697 2.8393130813136476 3.016800214421429 0.9883742212901429 1.148151570593513 0.05507302971474386
Ni 4.999154677757931 4.051959082193556 10.652335070636312 -0.20231239445210317 -0.9098380754564523 0.16571094117898558
Ni 1.208915996600354 6.239902549670961 9.793831836277406 -0.16588114820826272 0.9747594587201859 1.1513973312243204
Ni 1.8511156251044918 2.810628690720495 5.148088956947407 1.1042841797866014 0.24587279554155722 2.456415248121995
Ni 8.387708540366855 7.809952487060371 11.100226843962925 -0.35414786320057723 2.7013367354938764 -2.076176344261321
Ni 3.163795267204607 8.084967487732547 13.134748752543258 0.8394767521240702 -0.3153368038706505 0.009879721007557178
Ni 1.117263120663178 0.312174111316106 12.852490778825468 -1.1872446799402327 0.0021180747842673197 -0.2611320356934728
Ni 0.6600106338259321 2.1575772865415814 11.264539639537226 -0.1753068123975368 -1.3895437046558972 1.0644143401748571
Ni 1.4256508548390807 2.5724063770980345 3.0792575858289095 -1.8817073571130365 -0.17337282859961753 -2.9540751478070155
Ni 0.6633591817484344 7.1958359386358035 12.194549028985325 1.6038896332337667 -0.6112160132373216 2.3911079422737527
Ni 3.9972774073648156 1.6123389783523243 2.4098345633700853 2.0282337549437712 2.3883697174069836 0.46833698235118704
Ni 2.327691789024258 8.379590848433518 11.046184061554865 -0.5105195292565079 -0.4964499385373192 -0.4370366295760086
Ni 1.4801822020394262 4.29968961831201 12.222574796656572 3.1125204085625233 2.0174212377092995 -0.33803038881342434
Ni 3.4284564524710666 1.6248631488929963 7.168144649937737 -0.27152931976739686 1.2163341411070212 -1.5645257867241635
Ni 4.319880497900836 6.39206229603719 11.74172181170896 0.21964625774486043 -0.8028426458408044 0.5724653748316851
Ni 3.5478259848936013 3.4882304757116938 12.713480002205428 1.749385790027774 -0.5052636801742072 -0.1855295185668095
Ni 5.987756139468399 8.639075125997119 6.490140738540582 -0.2272587799847957 1.6731443537655315 0.6342996345296624
Ni 7.810722916155895 4.112926330984569 6.5009906351200035 0.5252992586688437 -1.0273187208741403 -0.83615282995716
Ni 9.171328885283744 8.974042663968643 2.30020907991059 -1.234038757475636 -0.8209534965089023 0.22020341579991112
Ni 1.616792434343531 6.2972995172875885 2.590401533764613 0.12358110188847102 -0.08749258369602997 -1.7136932217221712
Ni 0.5013755248665811 7.751625367243047 6.92205268496879 0.4164703753888827 -0.06662885287314331 -0.15111453142204945
P 7.587552156326502 4.369394660503493 8.770630591796436 -0.12851479174466254 -2.4042611918262593 -0.2734476198360323
P 3.2610384518227287 6.666278681183518 9.902218995897995 0.8532326682575821 0.520311318535949 -1.5963426741244442
P 7.393197323765103 7.357447534637379 8.695191490129355 1.937512894118431 2.338278200067231 0.5588678386529085
P 3.7414573657433463 9.078013009957447 1.577252509884893 1.636257765151827 -0.37441715497257455 -0.8847165977984763
P 9.19120031866223 2.2261548715201003 5.775310316377321 -0.6533911039434747 2.646174745609752 -0.8925587195507143
P 5.5937756118749995 6.871259797977097 5.536121208194745 -1.3298048940343679 -1.8091881068973872 -0.32736236757661685
P 2.9469006858607107 3.2908784860591687 10.52823021791933 -0.42352496824281904 0.05831776190428666 0.3017955748511061
P 9.31321937553523 0.24655328287858483 10.002204720186652 -1.9501956317924218 2.147690293140908 1.5707817949362044
Ni 5.621651991465527 7.31888849795402 9.883242951456138 -0.8546552596367217 -0.1640636353835497 -0.9280137179242147
Ni 3.942313868232834 7.02518589397697 2.390128490382834 0.4615197023190374 0.3188659000698315 -0.3583516168692796
Ni 8.682501019649772 2.148520046930773 8.676131825944204 -0.5380599007686218 1.2560803106567078 -0.333510903676516
Ni 0.6425453820494466 0.8441046662016815 6.918560386251635 1.4647122195689355 -1.184558134247005 1.4385088217006903
Ni 7.2328635126048875 1.3130742521246528 6.025706349256756 1.071126204977394 0.18192148950057702 0.19600753527999792
Ni 5.109767625826446 9.104245181112402 3.85308126711282 -0.19150784763743148 -1.18719505764922 0.19993155292475245
Ni 4.5835739490595016 9.034446184153174 11.278112345285955 0.10240523914180429 0.3422382562471848 0.9948557152494287
Ni 2.7565295354517856 8.977631736096576 6.887661481782687 -0.8965477861054494 -2.1340256511696216 0.795637900562249
Ni 6.6413524813002445 5.953631767822696 7.5031939285572 -2.8017532263404266 -1.8841959278628453 -0.1892545328268805
Ni 5.427334740811229 1.1070126555019826 0.04119540746633957 -0.7502620435306111 0.4592936412019961 0.18329574414028435
Ni 7.9898007034816345 0.0461674937755096 7.966348653904311 -0.043883074536195395 -2.1005802270269824 0.7522381934203755
Ni 2.815251265293646 1.2676283309654401 11.464029100155996 1.15229258934508 0.631129464331797 0.32922204649317494
Ni 7.713620663689395 5.299218019511452 0.8037266652147407 -2.4860580106890926 2.071140581609627 -2.0800209148183924
Ni 2.7078233838517525 3.804876833972556 1.2199688354781084 -0.19276743107614544 0.5863932977666868 0.28092670182189683
Ni 7.861740355042504 2.4518624100786632 10.82034780496449 -1.865142253665504 0.5508061446906966 0.6853689424016519
Ni 1.9694516550818093 5.541189128367016 4.624538227797184 -0.9935722205513148 -2.0189772693425097 1.9537794924889382
Ni 7.821142499899035 1.414705124396558 0.886109963766 1.0314327430425139 -1.19724858523048 0.7157334136261222
Ni 5.087256063474271 4.392845770533138 2.396894173208294 -0.3436407930216663 -0.8764980665434259 0.28291904966157727
Ni 1.3217180907573747 8.687132989699698 8.991103910243815 0.10139068183436087 -2.463398621418364 -2.189551452151068
Ni 0.1756587733274258 0.5717504645520993 4.411903555622935 -0.2283245022451487 -0.29635846299593477 0.5210916483453992
Ni 7.826244243787697 7.078091823695292 5.974180615076637 0.06089066483778546 0.4303684735272137 -1.4183472591511508
Ni 6.522668818682264 8.677530812435958 1.6395454604488164 0.11891274987852424 -0.5616965663509552 0.5319910688667225
Ni 4.1430764159545745 2.1525131245600195 9.096135945108161 1.672800340162551 0.5267285349162025 1.920493733852615
Ni 0.9070487233060913 5.612078000632111 0.4608161911778886 -0.16352370371967967 0.5071896935523266 -0.35009940416281643
P 6.118268707345725 1.321765068141248 8.13326117790217 -0.1760092377812001 0.24142350152095196 -1.8305388046590216
P 3.1121013539902203 5.650505500640624 13.62728971059859 -0.6502178484218157 -0.08970373241473584 -0.3221114035903227
P 0.04978381278609074 5.575247731675295 5.920866921666293 0.8444436092110423 0.1675783334050275 -0.1677084312249886
P 3.097294082593297 3.7602577147695166 3.4657499184328744 0.7951213659371468 1.0369161347545883 -0.140520557956287
P 6.460517739817638 3.343145523356812 4.629598631588036 0.3411684202217737 -1.3099045555660151 -0.1285649282563076
P 7.58509054141153 8.592529934055266 4.370250588437668 0.15995398409055034 1.0287307707303186 -0.7215443638809445
P 0.7815928010289078 1.2429088315712102 1.3668906035424437 -0.13799110666621398 0.19834955314961322 -0.7219958495960662
P 5.424563075162693 1.8330105413596491 11.57025717921376 0.7346821868144832 0.026923820974037505 0.41502952917729813
