# total energy = -381161.34787459753 ev
CRYSTAL
PRIMVEC
9.36334612406475 0.00000000000000 0.00000000000000
0.00000000000000 9.36334612406475 0.00000000000000
0.00000000000000 0.00000000000000 13.70420351410466
PRIMCOORD
 96 1
Ni 8.015071157905492 8.165671218073076 5.736689065106937 1.7294124322296407 0.09466493307475309 -0.8628473085292108
Ni 8.314211342078208 3.953157945937126 6.212718776553211 1.970745688029632 1.617046739441015 0.20647783868370245
Ni 1.609325126915154 5.470525649891211 2.917446388156665 -1.9019781915469307 -0.617501332025401 -0.13892930220976718
Ni 8.646919122352687 2.6506696737653006 10.715878741530242 0.09925332377638389 -0.5252005283074503 -0.5999622947003731
Ni 6.761824723362448 1.6016471830369263 8.512119708885725 0.2044536091648221 -0.8801125233675616 0.9897829287122115
Ni 2.8345377029564736 0.41506402804928644 8.739170554384215 -0.8582002966755027 0.3189342914139217 0.7038932264580845
Ni 2.4645731681802023 0.9075657381182174 6.482197752655864 0.05885075158962123 0.47695583436844957 1.6132098821934282
Ni 1.1890700597364903 8.524980264881757 5.566003691020834 0.37842884723512893 -1.0097053786677515 1.106872766449384
Ni 1.018357531946427 8.190558992253965 9.357737548591313 -1.3494784612038953 0.37153417699782465 0.2402022275193412
Ni 6.079761133282404 7.222641806249019 0.8493603691789146 -0.5860847653873326 -2.0693775761719326 1.6703698763441877
Ni 6.284968228447336 3.7094862246115117 5.460659492007688 -1.233835126105262 2.3115778079579097 -0.49032325681429106
Ni 9.352831155186202 7.065515493784941 3.6829224114620818 -0.6740668871252714 0.6043264852063399 0.7565651029305035
Ni 6.4370757873519855 8.902566563459098 10.851002126775478 -0.6345163785261588 -2.4880272186003216 0.5741512471745402
Ni 1.495148483438189 3.4108235710946375 9.768767847100673 -1.2162428669447958 0.45187163770631206 -1.180375206513909
Ni 3.3431546681581095 5.0313566234027665 6.994146196432956 -2.1558314341908034 -1.1528556609374017 1.2780223621454376
Ni 6.773716173027509 4.372963572498528 0.8831629852701226 -1.5317619620295813 -0.8575737188350971 0.8395469432403734
Ni 2.8986953510706415 7.153999115308423 3.52621464057283 -0.04492719952999359 2.4738247018476947 0.20830794991390578
Ni 5.896969888903422 7.132079521870701 8.073598625953833 -0.2239726530343562 -0.33266449651582064 1.5978490834666417
Ni 6.7187720575672145 6.48395806174014 4.4792328701155375 -0.9708215571183603 0.3056733126389574 -0.9511122516148909
Ni 8.801086617419788 4.693817356492719 1.746942907586197 -0.26801822129034486 0.822164743208184 0.26229494565332245
Ni 2.3022221085404535 6.290904589933674 11.176627471989603 -0.6831963602303652 2.692643578595253 1.0073379068768393
Ni 8.652321773106024 1.8609744191971713 3.8068903060530257 2.4799303005248 -2.0457432245824445 4.72762313690329
Ni 4.257504150593127 1.706582203821439 13.577603856492596 0.16160951741610233 0.10852035090060666 0.018585990532303472
Ni 4.872338915007711 2.2847688312367747 4.574901923507496 -0.3977766556341214 -1.143608688417837 -1.0266962567987932
P 6.439163813553016 7.580808524822158 12.53748216265525 0.3702241999371495 -0.3825876065985088 -0.931253307907435
Ni 7.180506748380695 4.009047759362909 12.440991007467549 -0.29076040008286697 -0.7339980162632649 -2.1281198272081476
P 3.392668042826487 2.795941989949089 7.411151246148043 -0.6253956471718132 0.12106656299673343 0.037127243869600576
Ni 4.179573020229113 7.890210936422359 13.15906415433648 -0.4588233864337969 0.5287355380439023 -0.9422123780220999
P 3.303051456413658 7.332436403707678 5.715434269248916 -1.0998410564135832 -1.6990253352973514 0.7547100519996357
P 2.9089388518057406 2.653665944547048 11.029375744420623 0.16604132793521084 -0.7537281477023406 2.1993946634937345
P 4.437992011808641 5.891810685151101 2.68067919831374 -1.058821419468112 0.6820290793951415 -1.4217560277223837
Ni 6.6173951083360265 1.6841850797278766 10.91432924608233 -0.5532386653915892 1.5024907238692897 0.34207704807897216
Ni 4.519883837612277 7.386378641125327 10.639066531036287 -0.33043483585435346 0.1410070106744023 -1.2230105246859324
Ni 1.0653896198736696 1.1768040762237113 10.677054562875748 0.6303843586356562 0.5388870246556074 0.15696919043061355
Ni 1.114388010501434 3.9434481559350254 7.324595537605693 0.5531494481118925 -0.38511551522668513 -0.0022360884193703425
Ni 8.015923222409052 0.5703092442631974 12.684130890729405 1.2902420441400813 0.2471169523613034 -1.5743142335694953
Ni 2.539863834917801 7.333728545482307 8.073914170720537 1.7473409916836036 1.0208146012070356 -2.868860304401569
Ni 0.5868954757094084 1.4221799265564448 8.26316893297652 -0.6287887320137622 -0.23077553488880254 0.13255810857610073
Ni 4.192475711283014 9.199178644159714 5.738607614741874 0.8553689978742947 0.14098824162132492 -0.1654854554317408
Ni 5.333521168395808 1.9564711870191793 6.85074467681852 -1.7416920209279425 -0.3776994252682721 0.09279059887017568
Ni 2.4028312633838182 8.710290249386647 11.12918339682987 1.5108995167582753 -1.4061355475763073 0.08151091219129833
Ni 8.568987991988672 7.314617955902474 11.467458622750684 -0.735943827135726 -0.130221232912808 -0.6494285197513009
Ni 0.8775412322158689 6.85211547070117 13.199299389262254 0.7660329332116227 0.23207214221303904 0.28001241753774353
Ni 5.61282978533183 4.265631535088617 3.0425247756060947 0.9488640790106625 -1.0524381416495874 0.7305116003765613
Ni 8.00978086730647 6.7507010680852115 8.933688453535261 0.9617347643257438 -0.05025041151511991 0.6761502520168614
Ni 5.620432822440515 4.037268884788494 8.203734156682081 -0.4018634241089854 -0.10901014605283162 -0.7169657433713265
Ni 6.28292701897727 8.87648028096551 6.841521780818454 -1.8630295781978752 1.805246605751136 -0.06220835520794448
Ni 9.124833675387604 2.760988618610766 12.894463481600361 0.2661379735484965 -0.3237060017709522 1.815183405248874
Ni 1.3113740877089455 6.0239649533185515 5.5683061378496825 1.6454970243619083 -1.403203975751809 -1.813040133653626
Ni 4.971328210959694 9.28081765961614 9.01032182411693 1.3623974832584085 -0.3490771335458891 -2.0086964562417924
Ni 2.641184604071831 2.726915401814581 5.055549637296139 -0.34047885035391684 1.375254798837051 -0.1598899636218343
Ni 5.303876814348893 5.761529086222243 6.338002221284267 1.5222062000203462 0.833863776812667 -0.5090486011379363
Ni 2.639658378642378 1.5355887756455873 1.856796494125872 0.2875460069106273 -0.9506707932020982 -0.06260584775667927
Ni 7.485864194425536 1.9139428686107511 5.9639599492409605 0.2926753577173927 -2.7535540409273804 0.21070601783243711
Ni 2.6547146393206593 4.622534201925707 12.632068813227303 -0.458867609408171 -1.0922742998099189 1.4276232851364379
Ni 4.601906750262614 2.4782155635833467 9.769150807959964 0.11229010235568403 -0.23211533674614865 -2.53486011979346
P 8.200999123259118 4.636569857868956 10.247894017132959 -0.6444117832629999 1.3738219230452664 -0.8399130683305407
Ni 2.1071087005715343 9.104487124110301 13.616634028763333 -0.05639303407774804 -0.21391141214361226 0.78588647760244
P 0.5961633157712011 3.835142330521047 4.641586738759145 1.0187592613399035 -0.20910936276927855 1.665481695013951
Ni 0.5667923714331212 1.885431479453185 5.889751685323269 -1.0478770046414663 0.23861071466250522 -0.49353533599368543
P 4.11463821438093 6.053862117712676 8.692548581020224 1.0686543463981335 -0.541457613596261 1.4313385292044962
P 4.113317982567723 0.3746508895458479 3.6396993327661353 -0.4782239024475958 0.07820344508462015 -1.144294658741268
P 7.511660213187143 7.2236998643688235 2.5370726214176793 0.9796556104702224 -1.0762221314430627 0.11970259276967125
Ni 1.05767422261067 3.0383590228848463 2.760054156660708 -0.7267531617753935 -0.43077933581238714 -1.0886636996405252
Ni 5.020251694817914 3.270747912047943 11.841705952075614 -0.5234341804356469 0.4293572586538799 1.2428908085496273
Ni 1.9973047397666819 2.0383536494766226 13.038768564122417 0.07679859431729354 0.44029190328851264 -0.0926407035558727
Ni 3.1146983843960565 3.844140506212482 2.7623837571935166 2.5600553881121653 -0.8082031388217693 -0.3146032681387356
Ni 4.379901812027511 4.290416312461384 0.5440881295844298 0.2314730751764594 -0.11938506152925246 0.6362369607616913
Ni 8.439586547601953 9.305845883989925 9.96468275750371 0.25164775035212145 1.0121893214318696 -1.0199244852925984
Ni 0.16678647673135458 6.83971840034169 7.136737786601699 -0.8637811331973897 0.509949772795967 1.679146079874921
Ni 7.594675640533935 2.4066046918995814 2.312543325048954 -3.932312537773473 2.4907579872679233 -4.36780521990113
Ni 9.415968198565336 1.1147250909643807 1.4891943315940852 0.41737643214291986 -0.5956754943995611 -0.6510678551269368
Ni 1.2052967386888915 7.811624371824839 1.8889595882986927 -0.27397212488093464 1.005474114195223 -0.8358607526380378
Ni 5.1366193613040325 1.6894472802883207 2.219272224617013 0.26702217592566274 0.3862951373570831 -0.567228551912778
Ni 7.0718825691961555 9.226894148890878 2.418189023809513 0.4521045796527246 1.5125902741971369 -1.717767906012177
Ni 8.164051359181693 3.333941135504236 8.47520003484688 0.7294103968925826 0.9658878672621687 -0.12346951601127125
Ni 8.189173217017407 8.16315247794717 0.4903415861022148 1.5769889521881808 -0.10919680814234098 0.3758384608001334
Ni 8.02040826523548 5.906323871750191 13.373233844477316 -0.14474745155344104 0.6076835746040308 0.19432963335694273
Ni 0.31239868238194735 4.970551053225678 11.732415102642138 0.06496894867221714 -0.3286224652359631 0.06276577037331126
Ni 4.306371454374189 8.387835333193458 1.8445033569091338 -0.560666325314228 0.7880323203008492 0.5320895421177998
Ni 6.12177446765022 9.154777656512692 4.338011137494824 0.05999206428291603 0.22759919404334994 1.350759384798848
Ni 3.674111502694505 5.312228919153014 4.759456285974613 0.38378908310577775 -0.8381030117049952 -1.506220109004735
Ni 3.619420197581421 4.737581636598618 10.452538375191693 1.4427043478392765 -0.6330464788488517 -1.6388661493089518
Ni 8.294557678419183 4.839248849561788 3.8652295708428883 -0.79664731566337 -0.37364376714165976 1.0042330426992705
Ni 4.316446414877816 0.5340815215080124 10.99282685889102 -0.5765313173709425 1.0073978135804973 2.5577341961781563
Ni 1.4493617205546103 5.781885000845739 9.189175781421772 -1.4615016830514376 -1.3348951640730815 -0.2939043450284874
Ni 6.0243394871662685 0.16395968251569967 0.11296502647959604 -0.784998675680848 -0.20463487193769275 0.1349366361106063
Ni 0.9821962889492122 0.13829006892769738 3.632586934997962 0.1385078984016324 0.7198294380723668 -1.1496263553668264
P 7.54374840059042 6.058955778041646 6.422488630317972 0.11432795872131923 -0.056935022624147104 1.0186345628365812
Ni 2.8488074425545458 6.420914651822935 0.9721531638226423 0.9838567930357636 -0.5117919682110282 -0.12902412728091328
P 7.0030526113317 2.0816778523114525 0.21025581143217556 0.12125168242434602 1.1846226689363535 0.04054989639790436
Ni 6.247514843675493 5.518072721859067 9.952211716709304 -0.7922023925181388 -0.09240801871977634 1.070330705659292
P 0.5593419568673823 8.876845451467036 12.041815641573098 -0.7649831517908696 0.08951989853870389 1.2162017292942149
P 0.8249445076461497 4.3199202163154045 0.39178113140586984 2.3661088491262543 0.005204684129391036 -2.3174381233934285
P 8.107805738600577 0.07828974652320395 7.711232446613151 1.6264914297936826 0.23118022652638895 0.32685277493005
Ni 5.023659952832152 5.845911562113207 12.236757700306686 0.4444632610573829 -1.1078333305904404 1.1317332771364896
