# total energy = -381169.07926767704 ev
CRYSTAL
PRIMVEC
9.25247972805087 0.00000000000000 0.00000000000000
0.00000000000000 9.25247972805087 0.00000000000000
0.00000000000000 0.00000000000000 13.54193933698437
PRIMCOORD
 96 1
Ni 0.5230611916473602 2.2848073775100675 10.34567608866698 -0.05102945577298954 -0.612874631886667 0.041543627769741354
Ni 0.46588456708244075 3.5664423832521086 6.310137602571785 0.22134138605909623 0.3913782083069453 -1.1992373335257347
Ni 0.8839458414940454 7.741716446486874 2.90826722815703 -1.274272151074386 -0.04095098849106495 1.4900057040284014
Ni 2.071158364980364 2.0446500101712353 3.4684836031925297 -0.3848915721413371 -1.7121788419601738 -0.645839516848462
Ni 0.03875771290050993 4.621049290581723 1.3867894393915179 -0.9250705761354907 0.8538294213013164 -0.8702965657184044
Ni 3.7000481924820643 7.675996082015934 0.7143478855948004 -0.7426803745286112 1.5194540911965058 -1.4622215919365977
Ni 0.06070274464092614 6.605548929159887 10.096274568696453 0.7941080941812839 -1.2094368997665559 1.3656507000883835
Ni 4.642903648019477 5.15998773767497 0.436189658208298 0.21772898611748953 1.020527666094236 0.8662391078195791
Ni 3.3491016312568402 5.435110226418235 9.003371647211521 0.2982893614700605 -0.4489611489277365 0.6110062112193607
Ni 7.8234158436822 5.825759178738039 3.1074555399079595 0.8343276038229631 0.6609740584970552 -2.674778011168742
Ni 8.116312346243385 0.20969080164406806 6.997269318647893 2.114413790475965 -0.6437594943909817 -1.7081352680184194
Ni 5.19471229460295 5.86040971582711 10.603596366847894 -0.15090318674219172 0.5010141608692339 -0.18436789415854055
Ni 1.2176726124451789 8.184299568280899 6.319129162503202 -0.16159923300345716 0.6097880225415433 -0.45702618532405814
Ni 4.833116129054756 7.3851443775045995 8.515022984268317 0.6389047374018416 0.2582192329220521 -0.14317265086715342
Ni 4.502367731371706 6.775156137538996 2.5940668907099758 1.5395200087084455 -0.30915458631933856 0.20639299227938004
Ni 1.7838966226560948 1.417109815904438 6.074033746661183 -1.581182421444238 0.37271328490759037 -0.9558716206767472
Ni 5.451302066179483 2.489296434974836 9.197604330747522 -0.0063339126378278016 0.3159135023097269 -0.829620685265597
Ni 3.525037535862631 3.4595022209889623 4.6054782922193205 -0.11184941527383963 -0.78364704674896 3.9693130262572223
Ni 5.997420437646861 8.027867891227515 0.8737884690998179 0.18920979563187415 -2.0329026211743506 -1.0739024821709504
Ni 4.460722319505775 0.8794371080565275 12.713592941303583 1.676441022238932 1.1764984971673222 0.9916737179770211
Ni 9.04658442916634 0.819235847824207 3.167703062539598 -0.15299143672978813 0.8456301733199759 -0.4627162937302999
Ni 7.27845403219777 2.578851187574334 11.048151192100846 0.7244304271794878 0.05058774024988062 -4.148505032641777
Ni 3.1200842496737464 8.758073602060488 2.9270765944716826 -1.2964674562245027 1.4832555297887615 -0.523614157656937
Ni 1.4112067337514802 7.505223061174016 12.912699831231713 0.034846932475856116 0.33435242574120483 0.5297824912511779
P 0.6739783907020567 4.400174091278571 10.693148343703433 0.5844228043038774 0.4758417753686644 -0.015189820366560938
Ni 6.599886411483382 1.9743681731275544 3.5938139944325087 -0.7746800673636594 -0.8463714223613746 -0.7217546801195377
P 1.936497773045961 3.7144080412303255 1.0014125500979758 1.247411579238116 0.3026643506093046 -0.26758807573146176
Ni 7.423884510693369 8.463465390724545 12.376492716194191 0.7814577524071251 -0.9999141036089425 0.19332304646929932
P 7.961287046129263 2.0760621793080563 8.977926402338715 -0.38383947672773894 0.4179356470804996 -1.2010003389634285
P 7.077009040608115 9.077043592877214 4.88354862104712 0.8298932222006934 0.811769516016789 0.33126504506513277
P 2.4404710987347755 6.715338855221013 11.2141203253976 -0.9612385414156156 -1.6166610739668221 0.6316804517392605
Ni 4.567357149933424 2.731951971876833 0.888536922002349 0.7776751454362413 2.0644153470706508 -1.122717961011757
Ni 5.761935572639131 4.640146409020132 2.867397174103667 0.18962220057894438 -1.0141382176281242 -0.34541279732042446
Ni 3.771653134146236 7.811128550423379 5.044954431275158 0.5976501016274287 0.5287175403217733 1.2853235237925413
Ni 0.9812347420115015 9.208761896215002 1.1809504451146544 0.5754974767897896 -0.7914395462101853 -0.8571592570054979
Ni 6.593187616062157 6.247098606765308 12.436849418088219 0.2465443676872851 0.1602090375241499 0.9368894231472896
Ni 5.771141790103384 5.641301740177901 6.858247107705803 0.7999568396525771 0.12445193452919856 -0.37563585787102405
Ni 5.85097218636627 7.98486236482164 6.424309503096298 0.4640280705631879 0.80986407146396 -0.5328680721550371
Ni 3.9252628048412306 0.8306210242963302 5.320722743112901 -0.7854758724275828 1.6614154953643774 -1.324562928909138
Ni 7.305267718842396 8.474605376480284 2.723039983272242 0.8090678008149098 -1.2191453853035714 1.1507381003737664
Ni 6.935732925571259 7.675755517539481 9.920025930271274 -0.005877798937015684 -1.005617838861939 0.5375958166480097
Ni 4.8100589492347385 3.4591321217944193 6.947475247766116 0.35274172688166994 0.7661571174943127 -0.7201803936538823
Ni 1.749412630204568 4.9667682006840295 12.643323132483724 0.04199074260948897 0.160233205893866 0.48388058651274085
Ni 7.216138580316623 2.9762174402750907 1.3096635429927543 -0.1298363387695635 -0.04320456041193204 -0.5684541967897629
Ni 6.800924293959039 1.3397220743255356 12.586569346248568 -0.48175865507373156 -1.1031112425244227 3.8304076353068552
Ni 0.4215402068403071 2.1817625092694843 0.9844842129395874 -0.42773669233132144 0.7241072395121142 0.873679109037392
Ni 5.555447979523831 0.47968371555096967 10.506459207000201 0.0062796623611246685 -0.8118247947347567 0.4401754323153064
Ni 8.249594318678115 6.581307431917333 7.641730448089187 -1.1868063068512333 -0.9774262069190714 -0.30273788415971736
Ni 8.942632817899128 3.5410720834661986 12.470122260925605 0.10259807187890072 -0.32991958678083183 0.5033962879481653
Ni 2.5689787915599043 6.596574023692224 3.823728866562369 -1.1245406160427924 -2.164979933459291 -0.933012970911019
Ni 3.8457007304943893 4.4827247166213455 11.864811149531036 1.4435114171216041 -0.5252552928047858 0.44563311299576797
Ni 0.19291698089940132 0.9594914143321112 12.489947549529276 -0.6336458029957475 -0.5136981840948056 -0.10416695902791738
Ni 6.339281063646059 6.533897725096398 4.583161310788388 -2.4037701111224536 -0.20761606605320373 0.02657440805441875
Ni 8.287918090273024 1.9656708420557982 5.030816642043623 0.8240336780961227 -0.8747276049065645 2.838232552213383
Ni 1.3600867825052538 5.964971990765319 5.6390265553794485 -0.3238111598902488 -0.7128985152804884 0.2611448912092793
Ni 1.129024602872311 4.082397670364246 3.5854997160271043 2.2577944435888666 2.0882260763370035 0.29955408711509696
P 8.892354842320486 5.206897810583271 4.719027500849015 -0.4833625092257417 -0.9688569771928217 1.2968549214709086
Ni 1.3924612095478865 6.199799929702736 7.974956659879702 -1.0059991334607579 1.1631552430911969 0.88199277110941
P 6.903488033246716 5.168472261709864 0.8842326683698161 0.1555103464968999 0.23882360200425964 0.16955036952973382
Ni 6.630243797915756 3.886393136934372 5.204722552567347 0.20187016470836203 0.45192254554890554 -0.6629507226074518
P 1.3580234794956776 9.433365844903172 4.456476356496383 0.5673694483660164 -1.4959750342379592 -0.6556840137427093
P 4.865555323456434 2.4333744466794167 11.289224554946172 -0.21297090260721388 1.345686855371947 0.13915813039112163
P 8.048315871726006 0.44786536254813747 1.1510362524677449 -0.06590123067849941 0.22040833272186558 -1.922461399101947
Ni 4.9856525120855775 7.922491398061313 12.176722423459841 0.027057518338424368 -0.39586529754402144 -0.017951442272098116
Ni 8.372781835581693 7.354361376998501 5.363231411350102 0.6915323908998865 0.07087014464800052 -0.46203289451003005
Ni 8.182115983033096 0.3403395183096271 10.390229554954031 -0.9423003097502158 0.5721576137832791 -0.6601093965039148
Ni 6.061854707416765 1.4810074418422552 6.218837832270018 0.32814526848922837 0.2171828838060324 -0.237862523642571
Ni 8.832546812482367 7.2398619386868175 1.0636558326361865 -1.0133535169433 -0.4823147846875177 -0.8082910705498852
Ni 6.453678724679243 3.921635832734711 12.561665371447784 -1.371170087244716 0.1402274521959004 0.9375820783389401
Ni 5.277087122828317 8.950007044350393 3.7424097462894355 0.5933280772133072 0.35373185870908114 -0.693882893409934
Ni 2.59301673424546 0.13218277782693905 12.099452188375206 -0.7176267739940931 -1.4114636446574402 0.3609970249119267
Ni 1.0212979798207613 8.84799845385453 10.629799389821525 0.4471464643165009 -1.1748535053647313 -0.9865235412346494
Ni 5.820253953219216 0.8885110150587311 1.4357026741902827 0.11439557873446106 0.4673561064951564 0.3937166266321348
Ni 2.8057960136679885 3.2488972743343734 10.28200237274186 -0.37304367166381563 0.7348014860011668 -0.5067932294448562
Ni 8.914366491915919 6.050622196862391 12.429171710297428 -0.8413338599374671 -0.3317972634195189 0.0633082731403426
Ni 4.3918653643610845 2.0234988412031134 3.0753605377572066 -0.0027122567248404903 -1.0833520576196245 -0.24752704331552858
Ni 2.299074701459693 2.2634248965453567 12.704587502652368 -0.4917651314671401 2.4915920531334446 -0.8206876444420252
Ni 6.442168639728961 0.16439436122397294 8.258700609359842 -2.1653121199877288 0.8020499747361799 2.0872804245942826
Ni 3.5982246515834726 8.028312010260967 10.28148700961346 0.43076648029658066 1.3545023967810481 -0.13613117063933974
Ni 0.795762306410329 0.8983612051214881 8.140330858721226 -0.729313466303402 0.2807783491694906 1.1065076698004814
Ni 7.200113285192919 3.887031558044958 7.453334228851127 -0.31978789766346866 -1.048610026152749 0.8876229728119939
Ni 2.5793970838862847 8.541639593091851 8.176961426501101 0.7173663212438549 -0.33570534022467347 -0.35469859349772465
Ni 3.6010744153814525 6.32876099404118 6.750588953005243 -0.9161483339451963 -0.3855436039030392 -0.17470671691969264
Ni 2.6273341820594425 1.122066738014906 9.662769980144564 0.9696321647959495 -0.8345366345099756 0.5734405942607608
Ni 2.2045976295727763 6.127501052048797 1.5195819556414663 -0.8101008700651146 -0.5720907651010857 -0.6642383310706237
Ni 3.3600103050159897 4.221869551827706 2.6016770553977624 -0.10052344873805914 0.5446807485192491 -2.572483329462873
Ni 7.740606148903246 4.730663419525441 10.358134552803277 -0.8266482329008343 0.8921375728528959 0.4259577460540277
Ni 8.443128439984417 3.355744911798884 3.3012135712269592 -2.0404094710743568 0.06193813226569333 -0.7374741477373234
P 4.353726642363448 0.21080017397971015 7.214685015730056 0.4483268577778472 -0.45401002420555353 1.9819780664103415
Ni -0.04905942398060918 4.109757253320824 8.485000537607005 1.380963419186054 -0.10705250810582854 1.3437929807833437
P 2.352128420997406 4.519873423273581 7.117670913864548 0.4649138156022509 -1.5393577720989684 0.3184149285753419
Ni 3.0108309674447074 2.330301820999243 7.6136038345519195 0.031770607543377544 0.4173784890254489 1.57829070171874
P 4.260350615580296 5.3953708254042 4.444275111300293 1.45067296786705 1.1373010010322542 0.4227274120421881
P 6.427244389709022 5.757420362465709 8.889728063287219 0.44079429684622795 -0.3849555926100532 -0.6962459943254717
P 9.18939645586055 8.093588255698455 8.698881787381284 0.5427143688214976 2.5474081316618 -0.9199026587813061
Ni 2.956398628407323 1.2255834827285315 1.02515626392387 -0.3279439511116997 -1.4380779048108587 1.5601122310375002
