# total energy = -381166.7603010268 ev
CRYSTAL
PRIMVEC
9.22154890922647 0.00000000000000 0.00000000000000
0.00000000000000 9.22154890922647 0.00000000000000
0.00000000000000 0.00000000000000 13.49666895710131
PRIMCOORD
 96 1
Ni 1.7415356225264138 1.7828666048152777 1.8858085997923069 -1.2563657031076105 0.23425269480412558 -1.615419231139921
Ni 2.50998573767492 0.4642146172730623 3.4175456848453356 0.4901502215715365 0.41968476856112236 1.0162442082275336
Ni 8.645792297785892 2.133580553590394 9.051379073448533 0.123049140644401 0.7884238993123132 0.22039496298542688
Ni 8.70262470382031 4.776882224096662 12.462432787849567 -0.1417803985053171 1.8015498736258393 -1.142089166449517
Ni 3.6040948531650656 6.663620356020767 10.612511690014772 -0.3954109836154222 1.113986751786346 2.160575633744008
Ni 6.950604180164394 7.7972345871123165 2.0007192431211247 0.07400251962939514 -0.4365090392073127 -1.0428942067148943
Ni 6.722131083959821 0.6602527594382274 4.563993545577985 -2.2379177592695974 -1.1367402434327778 -1.462199994670043
Ni 8.957268555878475 4.412677149241982 7.852537138179819 -0.8080010501132924 1.1558461110242932 0.597996429223254
Ni 6.565447746148558 2.706045089402616 5.3246247093916566 -0.7187588307160073 2.3294670295335043 -0.8605379436697438
Ni 4.863149814304677 1.8048876636519147 6.513465874849511 -1.214925947905585 1.0689011723016173 1.389909058415116
Ni 0.46387526427256465 0.5182565826023032 6.853689389565767 -1.6390641242523707 1.045460939000806 -0.81311497430109
Ni 1.3695014526330795 7.620706476011085 10.316071167446953 0.3756322583265982 -0.6416362774003918 1.865826167106406
Ni 4.2478235190817815 3.8690115107274217 7.899573492789549 0.28288742509269343 0.6844541438968664 0.07882899448376102
Ni 4.424757378335782 1.1857713118202007 0.532342498587631 1.4868517317804522 1.1935536528773962 -0.02798542946933245
Ni 2.4700011015293346 0.5075199331871038 -0.21454394655099565 -1.6924116866355754 -1.166966389307171 -0.4799480842275541
Ni 1.0538847190724694 7.922518550828627 8.051559373577621 -0.6947354712182163 -1.7208303469875845 0.8873964586234846
Ni 9.052803802757687 6.396545856009595 6.308815728141827 0.14940783314358785 -0.3542018563669642 0.2599004772792169
Ni 3.139992738788907 5.0589694057602825 3.703337162712757 -1.5115435781001774 1.5639120643995645 0.6616829116386217
Ni 7.446290099614036 6.543730998426497 13.471915748840624 -0.4499751920145476 -0.24128928993593282 -0.431118978539993
Ni 7.956020438078838 8.323748144623467 5.499163732389429 0.16875152777752228 -0.17163373442132376 0.018877553630793294
Ni 7.007353592258474 6.778327203118308 11.043122982999432 0.8253778508288431 -0.12453112450656616 0.5650981358333365
Ni 5.130334972902968 0.47385390236600056 2.836878581262934 0.7511871264480419 -2.8211311166464057 -1.4402024073530293
Ni 9.181933152376375 2.6731887105772656 12.708328156441098 -0.8944579934559563 -3.266400161434536 -0.5931313878214688
Ni 7.536024992218439 4.462888483147127 10.043397342927571 0.054266731763364606 -0.7539256084251275 -0.779430180454135
P 4.276797625809048 9.18514225140282 7.570781010122663 0.494152143642078 -1.1222893581147704 -0.12473321321504324
Ni 5.232196202345804 3.442902177928711 12.910751299083016 -0.8868357010240082 -0.5463126276957172 -0.11763568293831353
P 4.717513892107438 2.157630353190875 3.710436833231319 -1.5211654174606575 2.2561947032019143 2.897077390265733
Ni 5.988068124758477 7.491429581609571 4.051902490587983 -0.9695300920004464 2.4231148341976527 -0.4037570415872724
P 1.4163469211800293 5.639133934926186 1.8949729751155273 0.964290697978378 0.05730371881747551 0.41651254148072786
P 1.5652288285994196 6.147453376405224 5.0836960670519735 1.386669982652528 0.4266174911252137 -0.3626001077329884
P 4.772225341888747 6.8028288586161905 2.176635043373633 0.13555807174468912 0.8158460000790079 -0.23705468302929492
Ni 8.216003566965481 8.964950106134303 8.639474614616303 -0.9100185668983747 -0.9372138963662441 0.6861135338771602
Ni 2.5705067632799654 1.07949296044154 5.92951866631393 -1.35344695893334 1.4477776485971259 -0.9999804380705035
Ni 5.678048871396291 8.188965985512793 -0.12686638151210924 1.0156752230979411 1.9959576685188851 1.3603526849142378
Ni 6.65918479098709 1.5746348085045156 12.393113482413684 0.2865671879371258 1.4092129009500505 0.33998776965011124
Ni 7.090430526537896 0.9607839611098702 1.0706328962328966 -0.002623296555459998 -0.36074299991959163 0.3895828069694194
Ni 6.518288744938104 2.9232494528189257 8.186066730530282 0.602611302287446 1.3983775008974433 -2.0165347213392883
Ni 6.997357433222077 0.9389012255071317 6.8497757642013335 1.075754961998657 -0.9451899725931852 0.5461298222609497
Ni 4.86292849713044 6.254626218029761 12.639670958218144 0.21527255415719698 -1.5012000300823243 -1.0303497943909805
Ni 3.2785557329594717 8.874154735403344 9.952511601017132 2.277691953843742 0.5919445666022192 0.21727878595394837
Ni 4.333537816354202 9.222286650479024 5.251257143977014 1.4311323267309612 -1.9766196303119055 -1.2613960664426662
Ni 8.61790633383196 6.759810332873765 3.675818216406102 0.3924745266949176 -0.10671903602580976 0.029258382644485097
Ni 5.627459453985155 2.780509096984628 1.9585417226408024 0.4357755034753979 0.34527318641876664 -0.1893110970964288
Ni 2.3309124790699562 0.6776796425996499 8.119501901758765 0.7555037515455247 0.12344920429629706 0.5287764185841667
Ni 3.3487501633884835 2.3506742584195846 9.45584727522638 -0.43524482778290846 0.23996979979356095 0.04831565638625227
Ni 3.2363487035225837 3.479050649720845 2.1358075576561593 1.437944207446472 -1.1485205238971576 -0.34206676366632705
Ni 7.999490819718664 8.718310558544399 12.76002047110385 1.1889074123546364 0.6736020316737109 0.012528728594630036
Ni 4.100223406963184 6.428848941899351 8.474112877110247 -0.12136069719838455 0.33400095593905704 -2.2607890074408163
Ni 6.583355994163947 9.23611897386887 10.861862372989087 0.5719364989114085 -0.509635841099974 0.3003071632310376
Ni 8.381355160767717 4.07913372456813 5.037389136962336 0.3323251108985309 0.46681231817654445 1.9122068112534747
Ni 0.7988489511849273 7.644802383356199 1.67024013915557 -0.13024797238568536 0.5419024144431636 0.25192645793480484
Ni 0.7786869566118858 3.9425349203189235 3.2332751612653596 -0.9086705375109124 1.8067442733425851 -0.805289050498768
Ni 3.00597596823914 7.59964445826281 3.7810517662913825 0.6610208525745906 -1.9893175374945484 0.5236545239765691
Ni 1.0837625375945397 3.9065985441521005 0.7085321788432579 0.7040930011737164 0.0014308189092556002 -0.011908578512127878
Ni 4.09875718068386 1.5479937536556696 11.403403366630966 2.3938988747553287 -1.8611382747124332 1.8011102149852594
Ni 5.516653322083552 5.277722989396255 3.3742486683253277 -1.075091360272729 -0.9016596534107181 1.7392528153588305
P 6.325143402671203 4.757793617818674 11.696240107878282 0.3479160233582524 0.32006480547393906 0.6550358386357493
Ni 7.391744637713405 3.7044529701328712 0.7274151445801849 0.8123711541565299 -2.468177016643614 -2.0764072293252047
P 8.345898305145075 6.559942481439398 8.44985928127849 -0.9683401854574033 1.0073785303067877 -0.40078021834713556
Ni 8.448266719778871 5.368592132518626 1.6397241894477814 1.9645886672893003 2.2129232941077888 -0.17033352755266148
P 2.4251106013548167 5.268455332725058 9.460854576293507 -0.026443796013825425 -0.8809720431543795 -0.28267608041283576
P 8.632328836353107 1.1319635738336944 10.858664339821354 -3.1339533816253184 0.15046378521192796 3.0946170459195415
P 4.0877650943633945 8.353782729477288 12.088899194100774 -1.9281324813447953 0.9931752422232123 -0.8205614032768062
Ni 2.6433938859955344 4.410012121602205 11.759931502004282 -0.41654133783613423 0.8227517260599055 0.7341422551506132
Ni 8.71116385812631 1.6167588440010643 4.839298278006117 1.8024541306076636 0.7649091040198246 0.48427962172337247
Ni 2.637842513541742 7.809720564358885 6.444092162274963 0.0030603840928786004 0.5917766735657873 -0.2718298817269512
Ni 3.373574573098796 5.2193044769464665 0.694849244546021 -0.5218107858996109 0.342084761388456 -0.11357899637043667
Ni 3.577997869702887 8.447528995864747 1.5680699878236941 -0.7774347472906612 -0.6763325432309965 -0.5169832826039805
Ni 8.395399579782875 0.14857482984013567 3.016303180882 1.1410414419112929 -1.311329975158632 -0.3386981043044102
Ni 3.303997986447864 3.682994425780755 5.734315996481511 3.070849511186298 0.4130726625612434 0.9831726224845455
Ni 7.457890808163655 4.245352143969462 3.1605014636015873 -1.3153802339686056 -0.8996842748519022 -0.3759688157304106
Ni 8.536701373984629 2.38072728637126 2.349769624469889 0.4051577785895409 -0.3328357319863623 -0.4075080239892723
Ni 0.878880007853906 8.473994841283988 4.773677735844681 0.7683214721354832 -0.10682059460068055 -0.3043376245466694
Ni 5.715027282591817 2.607116312518428 10.165947117387155 0.3743528773935424 1.085989752352788 2.3857168531651687
Ni 4.474553742539232 4.594710525052372 10.391395545543814 1.1370135516988222 -0.8646995312466011 -0.7734528798247776
Ni 2.174865428134625 5.373470331900779 7.215521759881642 0.2261388074477396 0.6884087576692403 0.4725332798207217
Ni 0.6800744788558788 3.591581211271717 10.51103038838771 0.07772907655136291 -1.151492462041288 -0.3827151333153086
Ni 5.947023010486335 7.737368291481058 9.272576367550046 -0.568314585888105 -0.8402144016210434 -0.13166079357281196
Ni 0.3550213342787147 5.713644050252831 9.968653000258191 -0.852702763896041 -0.006654529202040152 0.3236450666260297
Ni 1.1261816626567382 3.771069439578376 5.903969442857989 -0.8764093634843617 0.03899283632342962 -1.698986511639616
Ni 6.323483523864422 7.669709787006851 7.024422679321545 -0.6396398157956532 0.4530926545976067 -0.4287890448552357
Ni 1.5775672610631635 2.959148942790043 7.884754463664559 1.1230054103451885 -0.8066499354020366 1.3718964238877793
Ni 6.345144942292921 5.42439172507327 8.097205118609224 0.2848365783992643 -0.01849497348039395 -0.06692427262637507
Ni 6.972053502967583 5.97074083432546 5.227233164713526 0.3042597201208825 -0.5721632702102339 1.0358403851919062
Ni 1.140170752378337 0.5279484305241229 10.151520004091545 0.9954830644207824 1.0394720684072225 -1.3610605096145398
Ni 5.749635755713214 5.073843764178832 1.1061247937414596 -0.6588639541325879 1.6901529725083857 0.15933923332468686
Ni 2.272779834636891 2.726627586606709 4.085401611373516 1.2328902456934896 -2.5131967758874136 0.4929668650847252
Ni 5.848536867950623 0.8129016695941196 8.931973847172907 -1.1581176806672893 -0.8493842410457695 -1.8538797933778073
P -0.011945594479472169 7.019046516297358 12.01909391303646 0.36149530470458385 -0.6165502809660414 -0.20335549100463687
Ni 2.0638010928630774 2.093946336304018 11.620753430520315 -1.7151970599612072 0.7389054808672113 0.33916835907260945
P 0.3206904297800062 0.42074054701366476 0.9519727711105375 -1.0201052338448366 0.46439470987398734 -0.018139647023504242
Ni 2.4481183659265957 7.120299123511041 13.190510961797571 -0.556955452121544 0.5057622170771806 -0.8821107847445131
P 8.535769997543047 2.5182851317088284 7.002274363109722 0.21994579126315023 -0.3459912955317138 -2.521631536918328
P 5.667250437603283 4.587573046183212 6.119956561815992 -1.5235400883404213 -0.4744811475757118 0.7675817657559814
P 3.0591105331540063 3.0048970470147314 -0.05790948294904225 -0.233897625457552 -0.7362379613373772 -0.04181050827788283
Ni 4.455548130201582 6.668655321734672 5.671286709568441 0.6676324443538373 -1.8640806451702092 0.27261869617683376
