# total energy = -381163.98274718283 ev
CRYSTAL
PRIMVEC
9.31337387489622 0.00000000000000 0.00000000000000

0.00000000000000 9.31337387489622 0.00000000000000

0.00000000000000 0.00000000000000 13.63106407616840

PRIMCOORD
 96 1
Ni 4.392326818863637 8.02341571088729 7.730162713752753 -1.3413591745308706 0.8111563079128223 1.9277558147316671
Ni 5.806469507659062 2.5316637331266416 6.215560386344573 0.39801808222096613 -1.4854566512051384 -0.3703602112943815
Ni 1.188377192752947 3.2915046538857538 5.260009158366821 -0.903996529074011 0.7492053201313226 -0.35092164295379563
Ni 2.80159324807236 1.6824144231918443 11.013559144345137 -0.1132601795784372 0.16038027299469154 0.6941603154410368
Ni 6.107440497721713 5.8226375247016655 4.027216485616078 0.41619218202683167 1.2270870087481511 -0.4051194691524378
Ni 7.62584640701941 7.794530234597537 10.211821079883345 -0.9790884251128429 0.8587443421044307 0.43311981102010566
Ni 2.6333750891878567 1.0625721384836597 6.7378618438116336 1.3880905171491384 -0.0322622024678154 0.21047821809234718
Ni 3.9555295842449234 5.2993004200599865 3.235278884480282 1.2358295308274716 -0.4156805324977357 0.8806372855227801
Ni 5.63361328858607 4.752661253989394 10.747330764176338 -0.5406896250819849 -0.10301921857671936 -0.29949263774954227
Ni 8.020277103892269 4.8506565738754945 5.770492875727109 -2.0319862800076685 -1.0132545294715904 -0.3021681276991764
Ni 3.41122807501632 6.668496766546885 9.70582175204265 0.7196797998683799 -0.11317739005664379 1.1935824492328024
Ni 7.810828638874353 9.045577120138315 1.9994044163151392 -0.47031467490284806 0.010338405811530582 -0.9664203427268712
Ni 6.77224775148617 1.4135093793720976 11.618150779337158 1.4059018342989464 -1.3735524714339635 -1.923742836917532
Ni 8.15039425026451 3.9485445538405726 11.678645799325768 -1.17491469761997 0.8070476850610875 0.5825536123056225
Ni 7.2361934709431255 2.3778719903705903 2.407627288555736 -0.09217199144957029 -1.8087469055949108 -1.3830853506250633
Ni 1.8565186343637468 4.946863725978081 2.6677079106313197 -0.9176814827602713 1.127509468863129 -0.9606551581083198
Ni 0.6767926346009344 5.847019937499784 6.396758594395133 1.430154021978092 0.5134804116570447 2.1555609541382363
Ni 1.9038585137574977 7.276846347896445 8.050492482746716 -0.7294664469414985 1.3518947839548718 -0.9096503849256785
Ni 8.35261553715739 0.4655625211612158 9.342117738249835 0.32538467502495577 -0.07244700221681716 -0.6318542583129634
Ni 0.7699505880976752 4.882638699753547 8.859196950865114 0.20900009088492394 0.08585607653387149 -0.6821486356921412
Ni 7.201249692173628 4.495416554257977 7.722270560733225 -0.7334506284002272 -0.22165094687971504 1.6500913286008099
Ni 2.4059797527176965 3.477651057474757 7.248850346035808 0.4584248654437976 0.2408498884056691 0.9640155899401204
Ni 3.6813345440656153 5.896948934830081 7.390789889201758 -0.9034175166420891 -2.2848691883184715 0.14800401081752576
Ni 3.032658053848272 0.17595012187342557 8.939047024435485 0.31401911350049144 0.4009056881814063 0.53049828637128
P 1.3347275497848974 1.2020119721022393 12.91969943470139 -0.6134873257700015 -0.33216621672316343 0.4646716176844578
Ni 5.938253747954473 6.455257758362874 7.33562491308036 2.081285383353112 -0.6218619229869419 0.03563266160194509
P 3.0316242693484283 8.775899066287154 11.151791964709846 1.0811583924024153 -0.2120447912485187 0.04235506792744318
Ni 7.6177996519935975 0.8428249446375697 6.313213905409553 1.1381314673533496 0.38775500973206123 1.1111649660668348
P 5.953909529434092 3.114410849700789 12.360362414693075 -0.8288722371353467 1.8324959283853923 0.5652287478739297
P 2.649571046352077 5.029929707546616 5.668191983099767 0.4442655432242801 -0.06442027525759873 -0.8767356364755288
P 5.829631868479888 6.929317801845329 9.524242627000705 -0.9938180180135335 -0.9184582130252956 -0.08523464089978869
Ni 0.9403620465291446 7.309471096571698 2.3403856605339097 -0.3890253918040526 -0.572897063052465 0.1023533028579463
Ni 0.2110587473604653 5.253441367111957 4.399712324344503 1.3907451811631661 2.3127360899320686 -2.843989252191502
Ni 5.151292282478737 5.106690535003491 0.16407836419819158 0.10485550045450975 0.6193031611208302 0.7438365996202416
Ni 4.974692087109013 2.0911038954634518 10.363820929506334 -0.5498761766772594 1.4466409638895212 -1.071152173119323
Ni 4.336502455872068 8.390716549669653 0.6217431443155551 1.9465572637088862 0.26958402311556795 -2.630461448639554
Ni 0.6136218822987637 0.1471522385223696 7.513824214743987 0.07270951184958445 -0.04713757691775108 0.5451908553864482
Ni 5.555045666597936 9.1337002637196 10.051260376996783 -0.423810874914354 -0.09278828487733051 -0.2861249581933846
Ni 4.669613899168604 7.5665854090689 11.795805248629243 -1.9676873608192824 -1.5629633273330503 -0.07641190040183614
Ni 4.5107649943998025 0.770315672353476 12.684713698525169 0.06416316494147015 0.4725296802762958 -1.0067858910281113
Ni 3.2550427951750445 4.114555443117301 9.566935132832095 -0.7682888191253349 -0.0362731233994214 0.7981884348982448
Ni 8.952219860440705 3.01404061947721 7.447877145690433 1.2972590988878627 -1.0371603895549106 -1.959413036625632
Ni 3.557131390102392 2.6612500171881512 5.151533498862034 -0.07150932089389621 1.137416443564196 -0.1415507989930143
Ni 1.3238867825973455 3.200308096926555 12.11550822756159 -0.08512794011859533 1.6044169664921466 -1.3432304234116546
Ni 3.915929118539192 3.223395950756401 13.294322448022287 -0.3244459652607703 -0.8035299017158163 -1.2613081347145503
Ni 5.228732986228302 -0.23207158149152587 5.997504501193723 0.29819088821898326 3.538767146611879 0.46324671231247316
Ni 1.2486999153249174 2.3801258268477277 9.259581687654642 0.42706177775148385 0.05742018979068176 -0.7787187562094072
Ni 8.939041436411163 1.9966010907795264 10.85092714710934 0.9398497913271943 -1.2214804611946513 1.8649216530142654
Ni 6.787335417159567 8.706337476833696 7.936086998097327 -0.5689352501912396 -0.6889427757958393 1.0976959850461225
Ni 6.5180950918804115 3.5457504472302372 4.1180395762829916 0.49570406151023017 1.3824939968979675 1.3468968165196482
Ni 6.497493908874514 8.503687774742682 12.299322562332925 1.191273855704284 0.44665898315712105 1.7659925453465197
Ni 0.39431893638639043 7.26667614362771 10.646406388207346 1.2215444816633672 -0.272259255954886 -2.7081295900459943
Ni 0.727625960534248 9.198027737056732 1.1271091627329215 0.4861449570668853 0.6417997995614495 -1.9894406933359736
Ni 1.5987989525648332 3.408098781395171 0.6835280665855028 0.2200458071761243 0.32652418794603766 1.761121590407464
Ni 7.507669005951673 0.5204657914767974 4.11341921150486 0.12454475135332098 -0.7162666604217729 -0.8253554822313398
Ni 0.18951039423173785 7.813883425504523 4.699581542278042 -0.8755228471143502 0.28939771540738546 0.45550460647320906
P 5.579074171188902 0.5260743052227972 2.0117129712249917 0.4714207634828333 -0.08199068004119428 0.024842255854660444
Ni 2.0542229349284815 5.834567956632296 0.2003129765864126 -0.4972999452424403 -0.1956756058618759 3.0881286099817205
P 3.7866688025632196 6.492324986375294 1.4936779703289083 -0.6335113343004122 -0.034708092905146676 -0.5248768264194443
Ni 5.3109141972789535 1.6563928565921708 3.967580158698509 -0.2802664425300786 -1.456980912362949 -0.93893756392557
P 8.284320566550589 2.4049832217133424 4.896224118221315 0.6610859014845711 0.7804467946441076 -0.21865535458650087
P 6.224239519456325 4.686936774571393 2.1749996986440236 -1.338329129455295 0.20273482670150247 0.7941937119165547
P 1.6081495799327905 5.277292917599346 10.78536099504717 1.2737867267975354 -0.34804483562663285 -0.5016564224389232
Ni 1.679480710422017 7.801459384758652 12.72455724328897 0.5009933349336274 1.7188058603583882 -0.37707876096513765
Ni 5.076729411255764 3.7115564422817715 8.095680041438538 -1.2414653889570102 0.0934760549729745 0.6598903385145732
Ni 8.71831447563369 2.4335473393801994 0.3573830269455726 3.688920085451608 -2.1173620744710115 -0.5694214457990386
Ni 0.852553694984749 1.0722207938155357 5.240721161076942 -0.9163236831807962 -1.2480548692490698 -0.46788755351859423
Ni 2.553633982091792 7.1165445568035395 4.10748938636026 -0.48320052972658073 -0.5149299996193778 0.24388481857725097
Ni 2.204848130567894 2.7835904963768807 3.029667529497823 0.6243121842996474 -1.311867849939973 0.3760109818222557
Ni 6.703272904586678 1.7575826637165273 8.354247240259847 0.11032912197457127 0.7940098780405229 0.6765564863163446
Ni 4.383516367180283 3.142863206881177 2.0298153760209066 0.6601453919481729 -0.05759219659217178 0.24310834542254256
Ni 0.46123087097313126 1.2304829560303714 2.9115953695548447 -0.7213206779059126 0.5531083104613119 0.16346302568507332
Ni 8.82303405145571 7.326738091731252 7.862424730127822 -0.6928104862813618 -0.5298951055696423 0.3314928448052226
Ni 4.450246690976511 7.03867543785584 5.424918275514437 -0.5745595383565525 -1.6440919164842653 0.607931686059095
Ni 8.6821506448869 8.992723723412064 11.998648668896806 1.3607419499328566 0.8362795853430115 0.8468347351510384
Ni 6.792485712911041 6.1261510658315 12.289781010800583 0.7315978914622046 0.2207927126444778 0.22348800008845382
Ni 7.383661432839771 4.003689040539451 0.6006790866281959 -0.8774447467274114 2.325899366786904 -1.0687471632222563
Ni 3.304282602838779 0.41783054872743397 4.25481392229927 -0.9543567266941175 -0.25563090336958555 1.2565999306056035
Ni 6.305293812268408 7.128372541621572 1.172081582488291 -0.2678963510004999 -0.3864491464364441 0.34161579217183746
Ni 0.2928776681674773 5.957159896915582 12.293979479742292 -1.3815244338958466 -2.892704200898702 1.5274499649177886
Ni 6.849884036087056 1.3374563683295304 0.18460969690004558 -1.9609477281026035 -1.1580114941067283 1.364399858400418
Ni 8.501471191761034 7.101289250400438 0.2970696177474747 -0.2225418341251006 1.5175579026150572 0.22710811333954437
Ni 1.1834038511050498 0.0667889980516243 10.3278210141397 -0.9367145881323222 0.32396696874182274 -0.010885279453936093
Ni 7.874979158107908 5.582119644445198 9.741057970751742 -0.22299203428864176 -0.8227447840813702 0.19042027100020753
Ni 9.050261747196167 3.8233728089946126 2.8068813817571465 -0.04274896093175218 -1.329415371905433 -1.2939076659171265
Ni 3.3502906697687673 5.452263272541388 12.18018681509371 0.8535049480823623 -0.64038517860211 -2.141474394138183
Ni 7.878667254161406 7.001375375496608 3.2738548790600412 0.2307773346610155 -0.14884296177905335 -0.8261440395709062
Ni 5.308716241045051 4.708962903779778 5.8219231889256475 -1.1699745800058754 0.2612819310077758 0.6234128124138296
P 8.193934273118293 3.184568495082085 9.35369053662376 -0.2268512601337319 1.424396293558708 0.4109167925605052
Ni 2.8756625104800917 1.3372421607304634 0.890165755368708 -0.137449375230131 -0.379776619512275 0.21480152805804942
P 1.8976930602539244 8.389198469728441 5.764849902497781 0.7408374077826015 0.8689220539683811 1.2224132574215658
Ni 3.1549519661676393 8.627555647246496 2.299165599111757 -2.0912144695413666 -0.054240763621435616 1.833680692722113
P 4.602119878714833 1.466455909837074 7.956547549157751 -0.6204226194372541 -0.06458122631549523 -0.06019158188823183
P 7.030284087996747 7.90937344781893 5.944111860120255 0.9995173823911561 -0.29806953214977056 -1.207112108288121
P 9.27042059216742 5.540516803356887 1.4323112185458347 0.6859829218365671 -0.8659298041092763 0.341099000436419
Ni 5.439233862493806 8.370618288852869 3.936869308354048 0.9642313054953523 -0.0693303109647064 -3.091564632246463
