# total energy = -340892.5096217277 ev
CRYSTAL
PRIMVEC
9.08301561600242 0.00000000000000 0.00000000000000
0.00000000000000 9.08301561600242 0.00000000000000
0.00000000000000 0.00000000000000 13.29391147931109
PRIMCOORD
 96 1
Ni 6.430230081697026 1.9253359050871546 11.599842049297365 0.6676722964528372 0.3705479018251554 -0.8911613249825556
Ni 4.5752239665957175 0.35158264391516786 6.243684923389997 -0.23188368035131676 -0.8345721157336013 -1.504476386840751
Ni 2.7432432961042656 1.5033571651720763 4.634483377137582 0.5017587523447423 0.4021141066672107 0.9666162607877611
Ni 3.5941401998720672 4.390212021326222 5.079948978856277 -1.164454678628911 0.5718421394253893 -0.27540422934177083
Ni 5.012289595464235 4.1950634306190135 2.730795023189943 0.8795425097967046 1.1253104043292812 -0.2627916827840829
Ni 7.116615406461385 6.306628405069439 2.792027264725599 0.5384190838802534 -1.8516737868654238 -1.6951103165136612
Ni 5.097352036794141 4.70872613025476 11.382326532613128 0.11966531177383262 0.14058560686626756 0.8264929382698927
Ni 5.601595649226565 7.9800650378231985 12.588975184468058 0.08198605205550397 0.6666991339062905 -0.32133133089118854
Ni 1.924918086368396 6.612880442903971 0.40478913284440604 0.2100907528459414 0.2156728749194092 0.2869325416963445
Ni 2.7020154881815284 1.718433892160951 0.3076081320673729 0.4303358205170653 -0.5214624014212568 0.26455391689082824
Ni 0.5033852674558437 0.24885827870208133 4.804739055222394 -0.1713948789376403 -0.7287249407897837 -0.5687542445286851
Ni 8.839717968653684 2.3456524531428227 1.1846032646310327 -0.5472994170890187 0.2813887290599799 0.7530439771511224
Ni 7.038792128584757 0.42357099255417396 4.881099059281804 -1.0055461050837393 0.4647649487292125 -0.14355574523818504
Ni 0.7981254912870099 7.809576834538382 2.5118316738150495 0.4466859797403146 -1.7181949662472666 0.24699533918177463
Ni 7.751027715818407 3.9331455920510345 3.9895556605912774 0.022856335772883218 0.058297450189312504 -0.7423769843555795
Ni 7.733679155974294 3.8331415900176924 12.672620675360434 -0.21706615572251003 0.4299486123809756 -0.3197339044970816
Ni 7.606208114690378 8.491366153396395 7.2854223435539796 0.2843570676596845 1.2826968848029716 -0.14912449757521415
Ni 6.88907678203475 0.7803364051850753 0.40393169616938807 0.09648784521610479 -0.10287343702747445 -0.7103528660404992
Ni 1.9308765446185203 6.495019232151505 9.292377318747528 0.07778589793122734 -0.2742919701141986 -0.5298531965881133
Ni 0.19234648038683655 4.971170783729001 1.561104253612347 -0.7921453140279583 -0.5069598369297075 0.0956272969880224
Ni 6.436906098181541 1.6523640365033188 6.999922271518319 -0.13767691785990482 0.8807820386307604 0.8595416411947454
Ni 3.2185847528173355 4.428651343452025 0.39522017588326835 0.12642217088169194 -0.39608718374684043 0.4811562456030424
Ni 5.963117837140378 5.387926789659595 4.810707504789706 -0.7510716839161 1.8583041476977482 -0.035042336316113844
Ni 5.488857259286706 2.5979241291168504 9.383028539591612 -0.7247896102911194 1.3638069620114255 0.20722602970363668
P 0.2792028173027161 5.56094915430384 12.678987869313692 0.48952570061366013 -1.4817792023535514 -1.2127693065738985
P 4.121899739758108 6.273693390412501 12.640662084883203 -0.6416990123175271 -0.6354067515509121 0.6007048292933526
P 2.7264124681507886 8.577291481210693 1.348919558798533 -1.706196399124494 0.42341081126245783 0.8904519576203568
P 6.136376360190877 7.62112242634694 5.789258926757054 0.18644251729938216 -0.22305296943356423 0.6798019898368357
P 4.7051565051140605 1.1161209600233502 12.615855460909247 -0.11872557356838263 -0.37913075839815996 0.5237753658251496
P 3.9716212462393394 6.032103340813697 8.213164284415576 0.5122892195624209 0.8893893206837974 0.4324600659489198
P 4.881512336492751 1.103213994819955 4.012926259794892 0.3340377227142634 -0.7356134403795008 -1.5647258185501116
P 0.022891015978603897 5.8391528398877846 3.699363302683644 1.358959147000821 -1.1804004033248898 -0.6461735031491129
Ni 1.4766894312965184 1.0911880821322035 2.58666300634474 -0.2868980889139833 0.13173175602006346 -0.085759145944691
Ni 1.7395428204738925 6.646369521514048 4.824958756305629 -0.4742824013013444 -0.5233750450629374 -0.42166348955404803
Ni 5.97969434065635 5.610415257398624 9.345686445753332 -0.10768885613824679 0.8014496221480197 -0.5059180259287545
Ni 8.563276388101025 2.624128629195524 10.083923981817213 1.1626073410075268 -1.478237764859196 1.4123295922021613
Ni 2.297040153516806 5.448537752926487 7.022096637564095 -0.3659535975862537 -0.7817341459969633 -0.19476929199752263
Ni 0.7097958892367245 8.80127864652788 8.891512956954768 -0.34703079253982166 1.239177621364098 0.5082374180905506
Ni 1.6528000212533278 1.2266158451037867 11.414391394373173 -0.9905627443010295 -0.5281359567866903 -0.5565235067904479
Ni 4.1128348901641685 6.7829962425481565 1.567843851206238 0.7589552004292348 0.5608720135671308 0.06189879438732566
Ni 5.511819122787187 7.797233016303749 8.02892439547422 -1.3962751098424597 0.07149440849556074 0.8742622352343717
Ni 5.242643954734681 2.85865209263793 5.138548962463752 0.5828888841578542 -0.7876448550544436 -0.2234088101110862
Ni 0.4543133672391921 7.473577920531353 6.741874705908233 1.36140915120321 -0.28954169718441747 0.30607080518769225
Ni 5.1464457362482925 4.343970388778379 7.256043329514302 -1.609224415183119 -0.2187900803921522 0.8156395404951566
Ni 8.347745510330892 7.078058005132454 9.381739659674398 0.38646534438636027 -0.39697601410969696 -0.8461955589051426
Ni 4.821400939085243 0.26062260053982744 10.433207714477646 -0.6065029240323683 -0.3847856426910921 -0.04507169552765786
Ni 8.050903476684056 7.288647722402485 4.738588360725698 -0.05785367778367455 0.7852858679039636 1.0725629374239205
Ni 7.075505677741774 5.962454776999739 7.173049090842253 0.5989719057626458 0.8450691586101834 -0.40109903513913503
Ni 2.300718774845008 5.421942683175931 2.671451140602764 0.015365169602160635 -0.2915327594725173 -0.11348900775979165
Ni 2.334907245658223 5.280174975297965 11.449035832570774 1.0535275180590242 -0.6109445047434897 0.7798693248740827
Ni 1.2883076872300774 3.5142823264953966 3.8733675413169713 -1.194227539015969 0.1622998586149076 0.1637453328121825
Ni 3.654633083935833 2.3606757609868874 2.4757784598939825 0.12290053088167867 0.5435355791712123 0.4891222945276544
Ni 0.9853073689893634 3.3178166985225364 8.133188331835777 0.6176121465716524 0.41044679490262215 -0.1906907510527748
Ni 3.442562835118896 2.4002595430814653 7.163583680259243 0.3092039515000352 2.1811637423080046 -1.5965283077726893
Ni 3.962992381395409 6.925254433269882 5.756489222984493 0.9137415242759166 0.28773781120645925 0.8213450755203662
Ni 0.968749031504642 7.353128050325708 11.457105183652192 -0.5778898882813661 0.24802120934312769 0.08855444930164104
P 0.2838505963981259 5.663123997071602 8.041128335268226 -0.526877401789241 -0.5840163128940781 0.28652116519053883
P 8.472900382630385 1.5187982917348994 7.96911455418547 0.44056341178234454 -0.2860262278319913 0.33457122662023026
P 1.8263764498507093 3.3029205528972247 10.382730671743778 -0.28298178457871265 -0.19079359517922626 0.08872208522775688
P 4.063532281350637 6.074348446486455 3.7235713559279002 0.08781628558403586 0.004519485136908345 -0.3312683874992424
P 6.858784924924741 3.9075859860817497 10.411353070581876 0.9933891580062312 1.0408756336229688 0.6675805080699794
P 6.569418213137437 7.755523808552876 10.280287880015072 -2.295359546326834 0.72054780429563 -0.382925706664218
P 2.420941569660023 8.640799926462023 5.661318293565314 -0.6740308916810134 -0.4068122834738284 0.932681041492897
P 7.069401891241647 4.130274280164533 1.571207291892246 -1.0702322324082147 -0.0485380568097035 -0.016462773541713584
Ni 5.359842105346507 3.090305323142777 0.1839946475194743 -0.03946514797415784 0.23935916279275551 1.0909393830485794
Ni 1.4014911449355703 1.0872369703352458 6.973973004178713 -0.5600425756873 0.4490354538090976 -0.34357317300852447
Ni 6.9878000788649395 0.8412244004285366 9.42536992523 0.6722830557519712 -1.6613381051592226 -0.677911200572026
Ni 2.750237218135662 1.6961441718167345 9.215525923542797 -0.6451329776997407 -1.1894131483464612 1.0538753883167462
Ni 6.552487472012084 2.0705824079495683 2.4022759725502576 -0.5295410646643331 1.0753345866317867 1.0085280705301987
Ni 3.968887258536157 6.865706182831136 10.576197087957201 0.9753083892451203 0.6261633785757732 -1.0128665500045524
Ni 8.371116109534505 7.216673906588478 0.12295042440725971 -0.890654560549466 0.9770084026553626 1.2019714446274459
Ni 7.67681039514498 3.8112606053766096 8.261128965027517 -0.4874485063696573 0.2508005718604777 -0.8053361016866194
Ni 3.03787815695418 8.511712108396821 12.451303916637054 0.8341928780173117 -0.060959827512824055 -0.1885204828743334
Ni 9.343970664101732 4.9161822071341 10.463810210722036 -0.7762271001358052 -0.23101901835817634 -0.96145142875737
Ni 8.46020232678637 2.2158470768432323 5.826163219242201 0.679192895497927 1.5129911091799815 0.10294182837156464
Ni 3.7488602880315542 2.86866157585689 11.576949216715636 -0.6472464244983176 -0.907919518277501 -0.17844690068841526
Ni 1.0556371589752098 3.3072077362723147 12.539069463417015 0.15270604427888537 0.7964539687056412 0.17701968132358545
Ni 2.856771908403516 8.412062343972861 7.838608877381178 1.0744167028032077 -0.5736233996955282 0.4685624680984318
Ni 5.5466888197722914 7.922079066071986 3.519284343200189 -0.11140101488251138 0.40131192248088954 0.5098106761149414
Ni 3.091322620892798 8.259867334157178 3.6280679881368396 0.5750519046119387 0.21526921172308733 -1.094923821617624
Ni 3.6265938147008714 4.115241889304844 9.38766814397296 -0.4566760010734909 0.9585627943556653 -0.5058524627981417
Ni 7.464313244593659 6.147421307191109 11.38192778822718 -0.5663170958421021 -0.8744879780919327 0.7599083083711236
Ni 0.6336883930116948 9.14923080909766 0.3957742398364049 0.38498721717893697 0.30908362387208704 -0.5620444366086772
Ni 4.7503172588025055 0.4697354194692022 1.669130375045857 0.06573256631111905 -0.93583809906464 -0.4729968497207015
Ni 6.172345102066631 5.782874475074108 0.13554856707939827 0.13570102508045662 -0.5406883395304044 1.5082901041598862
Ni 8.106064630575835 8.799952526246603 11.427300176179694 0.16069729001447808 0.341590852471173 0.21974395966498927
Ni -0.004017417811021547 4.9757667896353475 5.978776956078205 0.1476941928865908 -0.8699679787343919 -0.8483995085349969
Ni 8.037288036261897 9.20572716628634 2.4171921008099444 0.17764265961956502 -0.5797454534328661 0.5085899163339628
P 8.480902519396178 1.8587574005545116 3.6099346557427103 0.35614715301879313 -0.2533935293986346 0.22314141538231247
P 1.7141467087858613 3.169518302410059 1.7683959279088712 1.0608821586518826 0.9188595622287723 -1.2944128876883192
P 4.605061672924466 1.0972918686323312 8.265263553740104 1.3411439731962709 -2.6111555492220897 0.384863290006563
P 8.552567512678927 1.6246790048777395 12.407712708048642 0.4687087638683089 0.05657172574745741 -0.39271286795796884
P 6.600963526403722 7.87114151444592 1.3842552144852096 -0.9933917291093923 -0.0630169671521689 -0.3989336520567
P 1.8886859370395128 3.233244740036392 5.9209880857660595 -0.9129478247300278 0.34147335305670223 0.7743571368066019
P 6.828829139392865 4.003366385849379 6.136310054176814 2.491478667484032 -1.4097014105506949 -0.2991918186796718
P 2.420578249035015 8.461174209458264 10.244248290617444 0.16560835416285025 1.2107185946924568 -0.28955198159706264
