# total energy = -381177.42990858643 ev
CRYSTAL
PRIMVEC
9.13132139765577 0.00000000000000 0.00000000000000

0.00000000000000 9.13132139765577 0.00000000000000

0.00000000000000 0.00000000000000 13.36461187358944

PRIMCOORD
 96 1
Ni 7.041280767227713 3.2706658900659042 12.682603012917502 -0.5538251340226784 0.542361356357453 0.16512241566536723
Ni 8.32096243422182 5.234365724296537 0.35244070537601013 1.3863028291210961 -2.6474201879810795 0.21819101335557262
Ni 7.434886383358358 7.16637987269088 6.281848841436498 0.8355031121883031 -0.8436365399287148 0.6027707106834458
Ni 7.920727478633781 0.12703129310667183 1.698468728609115 -0.28701970209351213 1.3274973289471137 1.37979151036514
Ni 1.7744805887264177 7.014416419178615 0.7560478580186125 -0.8124030358357299 0.060980139227798213 0.9657770527159174
Ni 7.0809380967916935 3.526899904547798 10.037892868774396 -0.01776632284448553 0.39802502419950164 0.6248444026540336
Ni 0.21181196132443295 8.546012985553586 5.730224792462738 0.5809803542812316 -0.7779194002365634 -1.4094185892029532
Ni 4.617590609076854 5.310256137837004 2.9665298757774963 0.8209936057182183 0.964043100743946 -1.1116982128624855
Ni 2.079777193985947 3.3760961288744973 2.7436881911327013 -1.3299586460034127 -0.19741624270206645 1.1567778788099432
Ni 0.06977699375159097 7.550927217827405 7.878812886378523 -0.7574781016630762 0.6528887103857594 0.6238488715099837
Ni 2.410668893596809 5.739674797152069 10.455296535172057 1.1056718041627474 -0.9640449005161592 -0.7955399415318041
Ni 2.636924779375376 7.617129299185651 7.028048569145473 -0.6049499777229518 -1.8212931176910374 0.21346404019354848
Ni 3.6008088213083003 0.3480257113985326 7.872117801405852 1.3499746841140234 -0.25700592934024125 0.1545317846337145
Ni 2.8651073740045074 4.936657247258899 1.3686033895423448 -0.24416738281467623 0.9723477639548996 -1.320415739509984
Ni 8.79886841105582 7.711209305286892 12.588836211145995 0.6817645128798452 0.028675513557821584 -0.76194873583992
Ni 8.361286350260166 4.834103374743801 11.485654771845914 0.052003389650484635 -0.3554889506095039 -0.4098837233103006
Ni 5.752431253380686 4.350718604969807 6.190741993637358 0.5750709307753322 0.012619745646539556 -0.13444247008300717
Ni 2.647160990851596 8.632486600789806 4.924845882812431 1.068269195144573 0.29800859700484805 -0.027518002914610675
Ni 7.411391492967355 5.244757168239391 8.342859343338656 -0.8272308448771818 1.6109550247209805 0.49793963570896815
Ni 7.83385208524863 3.0208420633238013 7.88627043670201 0.6713371468989341 -1.1554751008381199 -1.2105766697979536
Ni 9.086075868291806 6.546490976816967 10.106025311511832 2.435148882544051 -1.23167488522915 -0.747946765133873
Ni 6.459926048365082 6.217197258480271 12.891999739687554 -0.2905397994316286 0.4868926338661872 -0.2238127304177242
Ni 1.1150074138610573 6.000465341095723 12.211246019911107 -0.043152624128074066 -1.9292930773118 0.9390226674402086
Ni 2.7106145444182785 1.23149568308687 9.834109165371366 -1.055506496162266 0.4419867744924323 -0.05975732256429063
P 3.1792704925052577 0.8463484101234163 2.662270588647939 0.386760764139592 0.36896384516748715 -0.8698062563455472
Ni 1.7187156079188581 1.4957561292258534 4.123423574796955 -0.8515478243559915 0.23080021747915092 -0.4047173486180127
P 0.36287963219100966 2.0423570382057963 9.147769816192593 0.14042954090437748 -0.37362499808858235 0.3639885034400828
Ni 4.307290039598798 2.5681020087275006 7.239436837149213 -0.20662850532895383 -0.24284557867945916 -0.8564231501704219
P 4.483761960195965 8.821988917262589 12.531275099386274 0.7993606008294749 0.27528544437571945 -0.6973060601588701
P 1.4928615002892238 6.087304209194609 8.438923585616331 2.0229275122395096 0.02993072612116136 0.12482114494315923
P 8.658145614392106 0.567643126398142 3.901638384057422 -0.49461828464521906 0.7158959073459155 -0.6966627701479163
Ni 0.4555442834494203 4.365146093045121 9.190121798750896 -0.30075762050489496 -1.103631633804267 0.17128123617791147
Ni 0.23119684387828396 8.943125029165827 10.259852467755852 1.0913728710415722 1.7757676224554126 -0.46619345364562287
Ni 5.672367825884257 8.718339286159493 5.929517711919288 -0.6301359900702761 -0.39447895871945615 0.07994742435892038
Ni 1.091220321179922 4.256319002613733 4.905199844461773 -0.16230242971806888 -1.4968222127296027 0.31382833764592405
Ni 6.582733192115019 1.9234215748001204 5.926350056467815 -0.9248517752564651 0.6747428301463735 -0.3820548740234904
Ni 1.52333272035715 1.192605384534488 12.076410186261414 1.5404294078965923 -1.3784542796109551 -0.8256691568170167
Ni 8.419297636173122 2.9250453687680276 3.6574668453650783 0.47873632330764 -0.3043021433230437 -0.7367989760471698
Ni 1.292209840183556 0.44397398589231224 7.670926480195595 -1.2892048611248184 1.4216076750699773 0.5953458789742843
Ni 2.7722600963147634 9.08442309908824 0.5303708980273713 -0.27548779019451264 2.050142382091405 1.2347041589737766
Ni 8.330970362658872 7.101739247320532 1.3541558125595843 -0.40497085938971544 0.8131196022867803 1.2987523956039373
Ni 4.240804887271986 6.727811629166028 0.5210204247431169 -0.015281094528786586 -0.6896868530507154 -0.3781665947126778
Ni 3.989967483835985 6.23422717320208 5.301741180476099 0.5928274834278048 1.7556135161050408 -0.6676249881546696
Ni 7.327657274201134 4.948975400052315 2.6838415095848474 0.8464099889087939 2.1451562138651443 -1.8560760296981778
Ni 6.072958903013395 3.753137527683232 3.914828578060454 -0.5580702824522775 -2.011577377334013 1.9106988592493803
Ni 4.157116325113598 6.759506446323885 8.995533336165487 -0.06608763565769264 0.23250048799970927 -1.0875010467909914
Ni 1.6088384155073037 6.711795291138115 4.770431582591675 0.7102114553666286 -1.8280219517744387 0.5991673096029035
Ni 4.36646100335072 2.8141637309841414 2.48576396902882 0.46346731296371146 -0.8030635036023589 -0.16535201517767006
Ni 0.767532321152994 5.728269776515317 2.449546408298997 0.7835881684865666 -1.8339529725468933 0.36372573669699937
Ni 1.3749761388637132 3.3060771551013906 11.133029613774255 0.4009206005797418 0.8984046368085302 -1.1780990088852228
Ni 2.7752277758239265 4.890617123919826 6.667564995733554 -0.6536163325804034 0.5536040191508078 1.8603049801778606
Ni 0.6367608387326203 7.929648779804403 3.09218325245976 -0.21012160608387684 1.65269534188256 -0.1710099847943958
Ni 0.31344722288992505 2.875398373410127 13.098349344450815 -0.8271251725372529 1.0966567451483307 0.4264120599826269
Ni 2.7538330893932543 2.6139412429921065 0.6146356465766164 0.43462981990672894 -0.3472807037670987 -1.0865615656958578
Ni 5.02173377029542 2.6411069246529038 9.43631135950947 -0.2208305078609487 -1.5782943012631656 0.16558032913839224
Ni 2.2586049955473104 7.9553991066223695 9.506114834093603 -0.1751306918309887 0.47729084911036507 -0.005288244982132828
P 6.248636398634262 6.872725702428836 1.8112387236929857 -0.8303426510332861 -0.20249879943129642 0.4539647727899149
Ni 1.287507209576729 3.101444238792661 7.194624876560856 0.28203304751219815 -1.104801228632336 0.5275356041985302
P 2.8028500235630567 5.057163297974039 3.9609901479763634 -0.8760409244013494 0.3378912921323987 -0.9222099667582441
Ni 6.836127365589684 9.040492311031066 13.05782727873447 -0.9670376645958957 0.005168174464500777 -1.0541422688248878
P 6.540583011763342 5.80425150327145 10.64020944942544 0.3271890752235462 0.25849614073252253 -1.081239639262312
P 5.712445196240305 0.7846088056147947 7.9348371967185765 -0.05239471155163235 0.5107306168260495 -0.49256603010188077
P 9.026466601104683 0.6000839725279956 13.150965845582192 -1.2631372175034892 0.09910702800650673 1.3826148387465478
Ni 6.365663415832507 7.568852002062747 8.361569421228731 0.5954854898759421 1.4385054792665806 1.132911870825623
Ni 2.9723456144832987 3.625006823459935 9.013361328392222 -0.8554592435952558 0.5330696466428819 0.3906572709805207
Ni 6.3396848059753745 1.3867007557552977 3.363405418161161 0.803567696932287 -1.4478025882977905 0.46323385679666673
Ni 5.776346184563754 1.6584945421867714 11.39462827967656 1.1479890768737198 -0.051826497752988164 -0.34167055666917284
Ni 3.1223001772509003 7.796368010217513 2.7583220470754224 -2.1378067154786087 -1.2183177471959532 -0.6437031872317495
Ni 6.235569477472379 6.217544248699803 4.584690457472197 -1.570238777948541 -2.335279008229591 0.4274502714391542
Ni 3.621792598268472 2.4406378909785693 11.616146835826346 -0.4133840231540752 0.4091586722188179 0.1659305133889594
Ni 4.912915811185596 8.692461120839592 1.4157401846015725 1.6759340006955266 2.327610950161372 -1.900868246312204
Ni 7.770864229081846 0.3198774995371632 7.185844197742361 0.02574188485079438 -0.011848414698153788 1.0396353334579644
Ni 0.7799372215012942 1.5622412815526652 1.6571586298415697 0.10795625086702053 -0.8080249613726922 0.8792311492038729
Ni 8.625126755607083 5.909891762476077 4.462096073514763 -1.1747756009389445 -0.20313514746371467 0.9254716682286512
Ni 7.089247599417349 1.0931105047442196 9.534968897112076 0.6282917377726857 -0.6542038296527571 -1.2832041634566933
Ni 5.12152085237582 4.378094307026638 11.367792238724318 -0.633249081777961 -0.3074129210378835 -0.08130676660029224
Ni 7.517543106179715 7.767723054462917 10.650098670682125 -4.289196826068607 1.4422623752058517 0.6471842038018145
Ni 6.740495034822111 2.8284085926281226 1.6592697913877803 0.6902707505786435 0.32013036860455185 -0.467177414825447
Ni 5.022582983201118 4.6833817809646 8.364857610124883 0.04661924252043584 0.07114936645131618 0.8214072962168693
Ni 5.020154051664387 9.061978310677404 10.100653355034169 -0.9226665946796883 -0.8626153950240628 -0.5171030960112966
Ni 9.089134861016635 1.8117546433615017 5.727685371935051 -0.39357444462731567 0.5206591887936711 0.3331288377467489
Ni 4.928621684280243 4.213045669709357 0.46918465160568895 0.19784073183399475 0.49919459116199194 -0.2589239722985605
Ni 0.17623907189721671 5.383644569268206 6.894749536915449 -0.19113992277505149 -0.7428022448184562 -1.335001350633643
Ni 3.7004680648867683 3.441823381511277 5.085181845069162 -0.041258235318838626 -0.3669743255412841 -0.8740820009027656
Ni 4.61798325590422 6.911716445518451 11.280815487669777 0.4457426419904388 -0.020775541984454544 0.4521768276515567
Ni 7.3695243835842446 7.85118333358214 3.940048375095398 2.05571936195855 2.8674112306598682 -1.624784217294589
Ni 5.136916260537199 8.133697291532865 3.4552738181789597 1.2431458619832267 -0.4103694046974674 2.930008593776115
Ni 8.193224376825887 1.6857515370632352 11.411053700910658 0.9090901415468343 0.04807808645414945 0.42288733465882006
P 2.6238487268919264 1.3175218635663226 6.0904946929499975 0.3214159201851948 1.1349723528990776 1.1405783862319454
Ni 5.198653125649352 1.9001367048051514 0.06993953127547742 -1.1224060861982927 -0.862304034431231 2.159728455252364
P 7.904975948931303 3.835803381826156 5.646775470929395 0.16645193311006817 0.2570948895096218 0.2928645909100634
Ni 2.482285848644081 7.8529091533582385 12.044615837698478 -0.10186633591919877 0.2907650280685573 -1.802061008934303
P 0.09700659466335491 3.721625336956707 1.672688268429979 -0.5093067398953294 0.27722457037996123 0.8429220303601935
P 3.024385016091663 4.512087319695727 12.340054268194647 0.07496231243950316 -0.1797890165386065 0.598838208398259
P 5.345603483621524 6.388674346180477 6.970260087478744 -0.18050866831345042 -0.06743720770705161 -0.032151902142196244
Ni 4.393772786156584 1.22136904746945 4.586734960370972 -0.38398268717382256 -0.18921468072788059 -0.02453526613720291
