# total energy = -340886.5847193604 ev
CRYSTAL
PRIMVEC
9.12737226144935 0.00000000000000 0.00000000000000
0.00000000000000 9.12737226144935 0.00000000000000
0.00000000000000 0.00000000000000 13.35883191356051
PRIMCOORD
 96 1
Ni 6.416360191509148 2.205866832119214 11.555563684168957 0.7549041702883128 0.013083315546519403 1.127611027438
Ni 4.627148778295452 0.9619794053658804 5.882147868107682 1.1434276827552823 -0.9469002704160725 1.623808483644881
Ni 2.656120108524156 1.8877413973773152 4.927525124829423 1.3223286402619807 -0.6185680827270185 -0.5533610499020664
Ni 3.7709373633406904 4.461870320376525 5.0249516096799 0.2524864442033329 -0.24007830034696717 -0.022317175439961565
Ni 3.5279667122581935 2.8587203918479043 2.98804978115851 -0.13503793757516097 1.0559119591308008 -1.7368876575607637
Ni 4.929337820971609 4.893348591925092 2.6687341370664552 2.0514942681336086 -1.0708744939779042 -0.030313563381876827
Ni 5.5628961156218475 3.1732952787584314 0.46717998836709435 -1.2322587827570777 0.18964585472802822 -1.498494201115387
Ni 5.704972793110583 8.443987697019082 12.820297116557425 -0.8815885936924559 0.5726006148579688 -0.21984166158511814
Ni 2.3600281505558542 5.6383521025677155 12.012489069737734 0.7935884742323881 -0.8302107534411122 -1.5933077439528625
Ni 0.7464200788262445 7.606113173049473 11.538356761876667 0.0029621679521174794 0.5231498164260087 -0.12159543891700993
Ni 0.6097312892163217 0.32676996906347006 4.955659337259803 0.6470019125876793 0.5213996665041214 -0.1379880213424204
Ni 8.72527505708897 2.7006434306872067 1.61162286825063 -0.15183803985163527 0.5134955811656964 -0.7277895734597079
Ni 1.418703988743681 1.4737602985607217 2.6373277616603787 0.5946344547295566 -1.310276337083137 -0.38129974102502073
Ni 1.867597286673368 6.768266031196814 0.6310993805479984 0.9952506366950022 0.7996071696226422 1.0305063745735028
Ni 7.713104231351089 4.182417562142385 3.8826910845173948 0.50683282443354 0.5320298925244579 -0.2322554618684387
Ni 7.539519864623556 4.37036841289711 12.862577843342153 1.5441508226122374 -0.34742082888938874 -0.6013812865350868
Ni 8.244280790719872 0.041359774917927326 7.035255362531887 -0.5456569963895893 0.2488524469951714 -0.2313110956772984
Ni 6.944524718013271 1.1390413009462468 0.5908558832644584 0.5533836756098856 -0.6561126166396959 -0.29595274291708384
Ni 2.435383736406233 6.703671617308353 9.41630658974583 -1.6092948634097384 -0.07796484671125282 0.6535623394140163
Ni -0.02874939732455477 5.342196252993193 1.7303298216585379 0.4087992319968701 -0.9296790214417795 -0.033170316104381585
Ni 6.857102745959621 2.19077015830665 7.265641192663499 -0.2982065719482671 0.5897617000182875 -0.3203057178401516
Ni 3.6678345656461793 4.550451468714452 0.8029458955863461 -1.617022313960983 -0.1606353264282911 -0.8135443485290247
Ni 6.14054925482955 5.651176060673309 5.200460026491887 -0.5609828281133823 1.144378733814642 -1.291447377302092
Ni 5.451788612405197 2.8694267995759195 9.609515719692462 0.554410059991871 1.0735384139633124 -0.5974639537585517
P 0.2843295132631923 5.813168664558063 12.803972811168203 -0.259380857330321 0.2267630712952998 0.1170201608415017
P 4.249321201227085 6.382013889479717 13.135098362301418 -1.7336071870372787 1.0419850646370634 -0.7244800494705007
P 2.5180412201103315 8.984711487831602 1.416142848071489 0.11649694134818002 -0.5294011966523592 0.7451818007942262
P 6.245249342679562 8.289178335147925 6.038098151518485 1.0549817340070478 -0.6476038078377363 0.38222250994960627
P 4.7271847788914005 1.3947081269218973 12.790066346705798 0.8646928463783817 -0.9747250059378245 -0.08925121825834952
P 4.342639455797612 6.268797963257806 8.592480917246775 1.0578657404230623 0.6743314536405677 -0.5278914448760522
P 4.8791555279719265 1.5273836109239698 3.8780826742344665 0.6915563021592864 0.17716803397599165 0.03826881367321151
P 0.1309695781159975 6.082334874190776 4.026125002269691 0.278887559904681 -0.6221213472959157 -0.5000451120877453
Ni 1.0383937664050487 7.618727201591772 2.772278699581116 0.2778202949824312 0.36713913325392256 0.21182856147265458
Ni 2.065004095148659 6.988399996741805 5.152555012885333 1.2934654361733853 0.48812316383917875 -2.1585809719114826
Ni 6.34701954401577 6.0651936689791714 9.62410308612973 -0.22798563084849124 1.5288288475431864 -0.897692441232854
Ni 8.807275369986233 3.0515361320476693 10.653735487847548 -1.0956229045671775 -0.4478761433936738 -0.21063171295107594
Ni 2.838357224208346 5.570608745229838 7.133415688116663 -0.07052664526565273 -0.6910171418263648 0.8817446596543459
Ni 0.6113550487515425 0.32470627018256276 8.904583198996587 1.7530115597058198 1.633442664300535 0.8937599389476671
Ni 1.3739159727834327 1.3773296100300463 11.48454816385538 0.18680067196974925 0.18129208344669423 -0.47749628025295177
Ni 4.3619529756206985 7.2753463276483235 2.0639927822959185 -1.3006254442569343 -0.544196866904295 -2.940951465940864
Ni 5.80383136267762 8.27895567815272 8.352849971695122 -1.1688232400102514 -1.42399237325207 -0.7183335702531306
Ni 6.998531380013839 0.9419265683851049 4.969312060771794 -0.6294024543383612 0.10367819231695692 -0.2661505719539868
Ni 1.2962146522475464 7.976246375254484 7.152732858888675 -1.5783033001242301 -0.3245225841349766 0.11498076181396973
Ni 5.717459038440442 4.83807322517244 7.355359611592143 -0.7805473247777138 0.2783980218627721 1.310870004803078
Ni 8.360682169880468 7.820250454982096 9.284254505273019 -1.4242705666141213 -2.1094952701284253 0.9299929531377724
Ni 4.37984262536231 0.7312449096117531 10.510541619987194 0.9938249599920692 -1.7492976011893422 0.587563149705072
Ni 8.131393449901376 7.7739655499618365 4.876507677262722 -0.14001199375098466 -0.3688172922872938 0.3896985066116772
Ni 7.504854104563025 6.651006679038405 7.050176790795962 0.4815622227922094 -0.22588041158003036 0.7533643366050187
Ni 2.406888080032095 5.3777382407961705 2.9485346481858787 -0.7096486408846231 -0.09951069120282861 -0.09021023973750915
Ni 3.719458983471972 4.3435521930293275 9.477516573979091 -1.4612008639815675 1.0248460909639316 0.25870825674332865
Ni 1.1413596535148025 3.264861077844067 4.125754834797526 0.9538628177768346 2.718958305230382 -2.4972541365152283
Ni 0.681693318039185 0.16125328672706493 0.22312226724162526 0.7020844553841199 1.4946961675255355 0.1663640013819522
Ni 1.1099249832545428 3.776212984540002 8.2924815311895 0.06293906272638193 0.17271899706570254 0.2599920085517587
Ni 5.838962618726325 3.133080076329075 5.423351371213888 -0.34552438319762424 0.4280421393868822 -1.425415735962158
Ni 4.284990972242501 7.234419190178228 6.27553852771402 1.103081931948384 0.6931863815635416 -0.31392732511763355
Ni 8.564103916712758 7.587146493374438 0.7978564727823039 -1.5947683876587888 -0.8986005548694201 0.20901577461420778
P 0.4318378900178631 6.322658587301301 8.185985176467474 -0.1882816273906499 -0.9723518777199577 1.5847989351509029
P 8.588902987298452 2.1285488612206476 8.41229654759671 1.9671021777397735 0.34254833128843587 0.19069897858289092
P 1.737221900495217 3.6184646087827224 10.513988115774149 1.4281339062242695 0.17820933075631246 0.10852472177598084
P 4.197103504200677 6.309305241601311 3.985767412832186 -0.8963863208269208 1.2363100700083158 1.5912948272878917
P 6.7266543408029325 4.467675329170231 10.851593188515306 2.631008579392275 -1.6643190421644174 -1.0919922497931258
P 6.284688718461962 8.33532632958343 10.603439102693901 1.144036519983875 -0.6710327282846379 0.33653606365608496
P 2.7623992317850345 9.00485559853555 6.019556807393428 -0.7348678204627279 -0.43106164293949634 -1.2229827567717904
P 6.9545922096790855 4.474630386875899 1.5598569761539212 0.1340940856046529 0.7852311034066283 2.074152371852757
Ni 2.8532622232022495 1.8511041248962803 0.2926929245173956 -0.5444076973635205 0.01937300520997309 1.1784327380755575
Ni 1.857465903401333 1.578359985315245 7.007936224449429 -1.4642885017679557 -0.14083243276975102 1.5354476384112845
Ni 7.095500583511227 0.7966927328118676 9.252220166651522 0.4555529432126413 0.9924190807834781 1.5554297379601665
Ni 2.803335496627446 1.8013873278847718 9.177009706020986 -0.47069236995724095 1.0343607153225864 0.6528804828556434
Ni 6.355754439323281 2.5641161955672978 2.473080696813289 0.30816985380856604 -0.6383642915173393 2.490400089707872
Ni 4.457680856482954 7.112559642371977 10.890026727868355 -0.35199353586173576 0.28498801637546406 0.14619498263324499
Ni 7.5054930206252255 6.853515688638981 12.043094061854365 0.5343351436188669 -0.22653347178299693 -2.094963137950521
Ni 7.81021947280555 4.2764294970090155 8.789590173384525 -0.4988932578714891 -0.007261566658419752 -0.9432022527391949
Ni 2.8909765256167073 8.604319119142117 12.429712211201378 1.1223721476365638 0.04404274004251124 1.1252114168575718
Ni 0.07811570323908489 5.503960672570019 10.49717001954257 0.2736450805588191 -0.19962739142077235 -0.4913514409684892
Ni 8.930020272907248 2.9175280516872926 5.719517260897959 -1.3498499856107011 -1.005619895744468 3.413047144003535
Ni 3.6270534661331593 2.786559386308527 11.464268968041141 -0.6455482108602882 0.6675825649525083 0.14817961716344158
Ni 1.0622162081528068 3.5289615958407627 12.83636768099623 -0.412835863960089 0.2804317644633493 0.10177968974266341
Ni 3.227648780907052 8.714833343158151 8.183286212473293 1.2725891069450082 0.5906929535833052 0.7146640918213434
Ni 5.521330062089553 8.11422486257282 3.755381582700574 1.1754697987924916 1.0849116887972605 3.0477360650972862
Ni 3.1782970787882294 8.770446422686538 3.7933468878537537 -0.40325207692639586 0.4758888265565159 -0.48362424752756056
Ni 4.1399752808676435 3.152311449801307 7.343256715899604 -0.5438906485177859 -0.9025662243853875 -0.24432936231383728
Ni 4.968567267190714 4.753946234525281 11.743575688318206 -1.3789924115026122 0.1863507289165242 1.1745526862948612
Ni 8.350167436971113 0.08389332991583998 2.7122169387853514 0.37696717508793787 0.6220794383143867 0.29240153523071577
Ni 4.807423508931454 0.6128072136872008 1.884063066333504 -0.9314931918323829 0.206488894427296 -0.8434802168565086
Ni 6.23978204666159 6.325013449359124 0.4309288037350751 -0.07719737241760899 -0.7723730164970375 2.459903720891228
Ni 8.10619277493373 0.17658818495710635 11.702403937270011 -0.909811335983575 -2.179723667427368 -1.4476390661367324
Ni 0.6762725716200304 5.576094295992444 6.1584754140604305 -1.9679059045879916 -2.135900242484515 -0.012315327032243306
Ni 7.2849026864643776 6.587261110775439 2.931381577390261 -0.05896336590808555 -1.0464441288496815 -0.6434201087736918
P 8.41560156911275 2.0196227999877956 3.771265036006876 0.642050739229991 -0.00017277813243841213 -0.8628331674618236
P 1.7547647100887767 3.5191314158551936 1.6744757795009786 0.05230806537509701 0.34063825874991654 0.016924800779796658
P 5.115627489964614 1.2940971018699678 8.315525408078607 -1.5504793359334264 -0.8452799890694088 -0.6924163361667365
P 8.52946553876918 1.9261950169494624 12.532307526995055 0.6069230422889225 1.948469907350567 2.209644623356517
P 6.5812552997907545 8.408573492428546 1.9117956743819284 -0.2776968820306895 -0.7074608892046849 -2.1976023474800024
P 2.203767536486269 3.613855285762562 6.2781033193351385 -0.7916251798584302 0.1772459384017786 -0.12408503810808307
P 7.597825518985502 4.4255251238096385 6.412973936379486 -0.6266531737279982 0.528087105826626 -0.5864359780791641
P 2.2544792170803474 8.763509619725506 10.41526645679187 0.5047931682956919 0.3553007458580978 -1.5738882017756701
