# total energy = -340870.7071631386 ev
CRYSTAL
PRIMVEC
9.28196240266698 0.00000000000000 0.00000000000000

0.00000000000000 9.28196240266698 0.00000000000000

0.00000000000000 0.00000000000000 13.58509021144341

PRIMCOORD
 96 1
Ni 4.402462632391913 2.949102235098847 2.26801689236264 -0.55125685907487 -0.5838157668474977 0.1256348990937062
Ni 5.300223321798428 3.7466734219004056 10.362924009280565 1.2396764153773876 -0.621600184685123 0.5262266555791195
Ni 7.833085233123268 0.48797040133384023 1.5745392015693755 0.9042497827353976 0.5725839026874203 0.2903060861542678
Ni 1.6843420326760872 0.8807682007629266 5.304338943945457 1.724192064370966 -0.08871205792542787 0.5138858746255796
Ni 0.008783521059391291 4.141110415896848 7.342021153707323 1.572628618336956 1.1470686219419792 2.8852266615747344
Ni 7.977150572194189 4.123929503415676 2.743141985872226 2.0350795742210113 1.2477723050116445 0.9082977275525261
Ni 5.523157495743752 1.0515256792299073 3.0492416151066126 0.7058727187819585 -1.1931114231336548 -1.1812231563365012
Ni 7.718824275455397 8.19694744283393 3.591191269025141 -0.3208397359667507 0.03984798523487331 0.6447727661468444
Ni 0.7750373665797646 2.548065765805747 2.930861322506735 -1.2556463084430824 2.5267292631562097 0.7335035931253496
Ni 6.688879158904434 2.7502454717295146 1.5310392845823342 0.1516539488652872 -0.3368425391529102 -0.5865290520136027
Ni 2.5438517548568265 4.241272072614476 3.3827415974714263 1.2432697891556008 -0.41731652543926195 0.9507438125318787
Ni 1.359204170275773 6.124860711082483 4.2215664663489285 -1.014381443987182 0.6367429538638324 1.0661133251438348
Ni 1.4935605766317792 2.7348002862251004 0.6579268464420283 -0.5303360497618028 0.7043722229770321 -1.1835667168680133
Ni 7.973697682165557 0.1292216247327842 12.653383758633064 -0.019481762873695484 1.3686696894203654 -1.7980781130271548
Ni 3.905218622381715 8.64181333878078 1.7828394335277649 0.3586912595968855 1.3243420711475835 -0.05922227599642703
Ni 3.214631334693063 8.553031368017725 12.88627283729803 0.9968606614945994 0.6049558912602226 0.49823197013840637
Ni 4.563207657972108 7.119339449140438 7.221792822385132 0.3645778002846495 0.3710958039088254 0.8499329144603878
Ni 0.4019702347148208 2.7541160500680606 5.560622280750643 -0.46514881443119244 0.26570654243803266 -1.2604609562229065
Ni 1.9755728862737425 1.6997965001429438 9.87352140114184 0.2890992103303602 0.5530085516586541 -2.246446622676215
Ni 3.886970284219649 2.7660155259194186 5.441195910983489 -0.7605315437774192 1.3444056746666782 0.4402438236593966
Ni 2.5491331914866415 6.506776337743916 2.14213770230542 0.41965494376445145 -1.0279285865439973 -0.910996871651244
Ni 1.0635458205930182 8.004263184488895 8.503845320838375 0.855395994457488 0.6414580999513145 0.6667757527804968
Ni 3.9509601332986337 5.591565558945394 10.980352725389476 -0.6510953659307626 0.6322082992182726 -1.2691957649927432
Ni 1.2371556461185962 4.94577302200452 12.82511305856778 0.7665538387120991 0.008562287747714286 0.04081600557509745
P 4.525931296802801 -0.027090335584845634 6.759791495573078 1.267020097497663 0.428373554584372 -1.0892000317599693
P 8.333967772410949 6.157486809068069 4.240938850162788 -0.44036080885323514 0.3377488530172635 -1.16932409090607
P 3.366447112403518 7.440745962638844 9.27030244133624 -0.3758466883302495 -1.086386216460258 -1.4014088315245994
P 0.4975447455933374 8.329874426973781 5.020845534239918 0.42826196870717215 -0.735195893226108 0.42255566235101416
P 1.3803948905321293 8.319914881272918 1.4788867222063415 1.0836248516650369 1.2361668595622324 1.218143169291302
P 8.308841500078948 8.987390082479605 7.791280202478237 1.6115214387474117 -0.12066187135914704 -0.5902856908425576
P 6.241479287210764 8.293433442424304 1.8305505768749941 -1.2733889771384845 1.0051439845493142 1.5198091605430792
P 1.0443507222618111 4.58071343913877 1.949148067396028 -0.5983527841214082 0.4541257238478114 -1.077434406583609
Ni 8.845171853934753 0.34514698883773365 9.987011027730736 -0.9013588343408477 1.1700383433642751 -0.736023788444042
Ni 6.451548661210704 0.22630816729319325 8.613327924240817 -0.4109391611580084 1.161298392388116 1.8286166479356445
Ni 9.712831139140055 2.3673552390116135 11.4926604322477 -0.38862224282836294 -0.526845520110041 1.0194190064110893
Ni 5.989668928106647 5.909147903917468 12.16566582667766 0.15996503983414384 -0.7075223385702396 0.24222825681043442
Ni 5.372752576324565 8.412372509163223 4.621131744594883 -1.1870821862204395 0.44339085392881056 -0.1261671174480924
Ni 6.850932941189029 4.236306222707708 8.16285943576364 -0.38942442701468416 -0.25569106718355966 0.10889547485183826
Ni 7.747709742576632 4.5957780641830395 0.21603117847679462 -0.14587899405472296 0.0962433333054665 0.2823652340406363
Ni 5.273222093053032 2.0711306896198622 7.693209771898917 -1.4358796116079593 0.5035364130704554 -0.2927157240370249
Ni 5.889321632140168 4.010986584414647 3.9819256882032468 -0.06574439338566096 -0.33542663264199 0.3738844223975561
Ni 4.456585755394461 1.4501488382879422 11.830303882646872 1.3009545454615787 1.1278174870218511 0.7438453413709899
Ni 5.516344535310916 7.6449491363750885 9.77498872883288 -0.6007724493064944 -0.5107218750753011 -0.07285966427420355
Ni 4.800872306313769 6.909799146999722 0.7939521496452064 0.7349506099845213 -2.5906651425782226 -1.1816314475185135
Ni 2.9377875228813704 0.3875599880227517 7.9861986291831935 0.3192093994521793 -0.25689305791146083 0.5253951608167596
Ni 7.237972211118753 7.534113222848521 11.39536411733609 0.8124673134147621 0.2833137139968347 -0.3358297816176797
Ni 2.8987661527728625 3.1943316828311916 11.555287689240119 0.19259670982623603 0.5187730275145518 1.6358718425673182
Ni 7.172933500283759 6.322037439249712 7.293535894692385 -0.6707835883883093 0.24676625389010406 0.3182724894602067
Ni 2.64693722974386 7.842627090514216 5.891921509820327 -0.4213552142850098 -0.07354743436984752 1.4929287912124678
Ni 5.599919325143695 0.8738846974155267 0.6168430242787843 -0.6190352521714242 0.5321116536049867 -0.29522023562643346
Ni 0.7730547394020346 1.1105125505523543 7.616086874159959 -1.8825290816833837 -0.6258332489298641 -0.26624544566063824
Ni 8.118988240278895 7.291055754327734 9.251568656538428 -1.3490933099503346 -0.8773113064733408 -1.551585681623728
Ni 0.17179705826054698 7.598585733974519 11.000635669718951 1.7104438615469382 -0.6566234948378433 -0.3089452985220099
Ni 6.824460784302857 6.214942156587494 2.4232809191205047 -0.944855986292534 -0.5578705077366456 -0.10364271109333119
Ni 2.193875360960231 5.894111124760526 7.652196492650237 1.2700935942166642 -0.29779622388372584 -0.006916781724491314
Ni 7.294675719680331 2.5050438698844975 9.848864796109432 0.32671624935218574 -1.2280380598075107 0.37015092349705286
P 3.476410521460486 3.183016970613715 9.446474088495965 1.441143688220376 -0.431814719055437 -1.47277108531767
P 5.477183935765769 4.151032833747941 6.42794834350426 0.44335254449170736 -0.05660412164728961 -0.5566492337350348
P 3.5913583443491066 1.2795185227064245 3.993160575543717 -0.3532369213505336 -0.8760488948211493 -0.9417102415747006
P 8.598503702023812 1.9639982791078745 13.558354676464957 -0.2277758288305303 1.5432357669971357 0.8158588555948142
P 0.5205602996659007 5.8744426463447486 9.069392507874616 -0.8207161836871156 0.9190922470648687 -0.5302527460193771
P 4.380650020651905 6.657023463801578 3.7241618783884736 -0.7251467365202222 -0.3856593035452971 0.005889626011557599
P 3.2563537558723548 6.320329558160282 12.787536890011578 -1.0439984955226667 0.03953122532540288 1.3263071652937546
P 1.7925233049440843 4.504127967025236 5.684993151910947 0.11004321530303629 -0.42499461080981005 0.2866183528900354
Ni 4.982214006553997 3.942680622799873 12.766710950879213 -0.46290758380549957 -1.5328335978272052 -1.2591952021366057
Ni 1.1633269168505012 7.644178733492356 12.974806979663867 -0.38081714496164737 -2.227208600382209 0.8902218438874216
Ni 3.295532919342386 4.265980656636561 0.7282720552054318 -0.9812273258327164 1.9904812187853462 -0.07285966427420355
Ni 5.959511832130779 1.7394119158477754 5.1023021802433055 0.8906316777313307 -0.22994455434707498 1.9857354765702444
Ni 6.580540093274913 8.511336792725762 6.607882898238197 0.12057136852786979 -0.6031964853669547 -1.2793333676473775
Ni 8.231309267796274 0.7733415520415096 5.662062063696611 0.9264998523828496 -1.2440791724307736 -1.2915157686461822
Ni 8.051898215744096 4.630715370816822 5.6101666116802775 -1.5544378063605422 -0.8717561809830663 -0.8980138291280148
Ni 9.344708508668264 6.692137127721771 1.433226892558917 -0.5176286294974632 -1.8250618407048504 0.7089719265325726
Ni 3.83680127721763 5.472375879220525 5.644020713297014 -0.6059786760977822 -0.648754890723044 -0.4641304004690071
Ni 6.187773852518132 6.147768594390713 5.1935800707071635 -0.37720011703435036 0.5091154498201297 -0.7529509032166839
Ni 8.469892830419747 4.227506922312164 11.321066648964644 -0.540629718378327 2.028384935809655 -0.20875815007744694
Ni 2.648487317471767 8.243682123732201 3.6547829219153405 -0.3223710850096126 1.4996895069750689 0.5174573940269217
Ni 7.636855265125179 2.2742571557127707 7.26769769584104 0.3723631006570232 -0.5011684270589111 0.41079903603571827
Ni 2.2295737885143034 2.8069396983286503 7.270523125208555 1.1529199385164337 1.0675035206231422 0.57666630028691
Ni 9.427689252904718 6.651537823998028 6.796906350595884 -0.33163991190604825 0.07510372311337388 -1.644959149580567
Ni 0.996019543823419 0.5408924383963208 -0.10310496700816274 0.3518716655718908 1.0073916429329104 -0.02903521089008548
Ni 6.936020690899944 2.721777692918194 12.31857966054507 0.10697331812846093 -1.1529515630853175 -0.20008196245968768
Ni 5.605627732045868 8.59704643392033 12.589832946377612 -1.0278745933776103 -0.37667021267280937 -0.7310132226033281
Ni 7.457007960838203 7.644382936666093 0.2801472622449985 0.2687257888803307 -1.8010413094205369 -0.45320835423986466
Ni 0.37922571394558013 0.45724896204146653 3.400199112433387 -1.5871430099030472 -1.8431230690819354 -0.6823769496528636
Ni 2.239013544318383 1.071881022866434 2.168288703291079 1.7859162808536404 -0.630807562216004 -0.5243163259302841
Ni 4.427366137625293 5.064517167532146 8.509849822342465 -0.012640571582145972 0.023418121813624185 -0.42227104123105985
Ni 3.6251261237151278 9.087820916108067 10.643143670832616 -0.79660746356437 -0.8490404845531054 -1.3737825851668988
Ni 1.8360000170250192 4.40800396397012 9.834287474093397 -1.7608043162773612 0.0027600792436404077 -0.0632617361731233
P 0.02552446852078634 2.6561449364868763 8.994919610413007 -0.14426562682101607 0.07731949981777006 0.7526233446739361
P 1.3381433974936119 9.55930748034017 11.187403605203098 0.536031043264051 -2.2687563419170087 2.591464755661382
P 6.434182109480681 5.636731588190875 9.764609638429613 -0.055998883963122914 0.36040541407451476 0.6047252633066553
P 8.724961158341202 6.1570041470210555 12.690376091751629 -0.2977301465324808 0.6117034943967014 -0.7279929477197656
P 3.709889004740554 2.0145014367578247 0.18946713016244193 -0.9564200369810497 0.44171243778512315 0.8282328037791349
P 6.173628141755675 0.49020828247874065 10.819329240936005 0.6876775359301704 0.024094579055358504 0.05128836586133103
P 7.804543198612407 2.3704554144674272 4.036701333165506 0.5471173829851996 -0.021909912699213878 0.017672991799730853
P 5.547355571831497 4.658524130294722 1.0164296510383566 0.9680979875396103 0.760460838440484 2.0679709256323933
