# total energy = -340860.9578121997 ev
CRYSTAL
PRIMVEC
9.41094988253124 0.00000000000000 0.00000000000000
0.00000000000000 9.41094988253124 0.00000000000000
0.00000000000000 0.00000000000000 13.77387642647865
PRIMCOORD
 96 1
Ni 3.3495547051487216 3.918663079435315 4.390161081190357 2.5138084413294837 -0.1858431931524864 -0.7687433901642502
Ni 4.8386210775503695 0.7814109345427193 9.6213966372026 1.2878558032960918 -2.3210176132145706 -0.13869764581493532
Ni 3.158399490449446 0.45189028760449296 2.8169777562471046 -0.4645294356796387 0.11991573722174187 -0.16215381995534653
Ni 7.540071894815327 1.2895260013269756 3.2795466487215896 0.3361069465384663 -1.5355764506796652 1.4423539064783932
Ni 8.839460571654554 6.160388993290486 13.006837176572043 -0.3459151908781397 1.1064593330610493 -0.5381974547877505
Ni 5.732059018801374 8.749717753253003 11.703883631904533 -0.6642481012626367 0.6306270707740816 -0.7222915264596141
Ni 5.847983099869988 3.525181852486152 3.794414072070769 1.5775777348121152 -0.33222869452998266 2.4335686825411247
Ni 1.9000237333453243 6.921537211568484 12.71301226266623 0.22370577252621474 0.31500950243821874 -2.11683088455789
Ni 0.9774212583037983 8.391282903792028 2.648840783948034 0.23032739160779042 1.093463949242646 -0.5763099453887558
Ni 8.070727127744043 7.477790228269452 1.7045724200092716 0.033594033905361496 -0.286411636195868 -0.03978653586931857
Ni 4.479216900248019 6.375598595975747 4.492707496952993 -0.6448424430425153 -1.1889410938060492 1.1138983058375977
Ni 1.3816027353077607 2.03463796094765 4.174586333648343 2.271492252790933 0.0166949441571777 -1.1160086673123812
Ni 7.661990750980605 4.925277104379384 11.144098685699989 2.128388507488502 1.0659950543984158 1.3859834981084647
Ni 4.799706799646593 1.1495192994226273 6.669641843919619 0.9682373413309519 -0.5216560054893016 0.7532800044213286
Ni 6.550397579720546 6.7245848517207865 3.7555440256315995 2.002911731239215 -1.9831240070893268 0.6379333746275078
Ni 8.983626913421894 0.8238759638499041 5.11388195165135 -1.8512991771348246 -0.33229785720502125 1.4138933371448552
Ni 6.202305364217552 4.428971838645054 9.71556918972974 -2.392972763396634 -1.0849237729821186 -2.2910614331721124
Ni 3.499649945363311 5.599891638177279 2.3438318971617247 -0.8592277094987525 0.8831497675319887 0.8041505660189506
Ni 6.5840511366211265 8.336991133725068 5.804325703208411 -0.22549808853994713 -0.003667935769890457 0.2909372919803635
Ni 7.573019630472188 3.765311650549696 7.21041761238829 0.34265271807678405 0.16728059965895062 0.11356125575862377
Ni 4.536435475738941 4.867531515693151 7.7364144251084515 -1.3245822121828479 -1.0211015363198348 0.02558453333732368
Ni 2.1275334475711505 6.546426158855879 8.024494895185374 0.8794507214138468 -0.5588776088449213 1.345829037376766
Ni 4.868105583638043 1.8173297164310602 12.351944229418683 0.28711766112395715 0.23264729799021872 -0.2350407379230597
Ni 9.421113742179534 2.256783433721202 2.123601552696133 -0.3077060267982701 -1.1724245842082648 -1.206758067382812
P 6.369886149376571 6.548120129840808 12.182498193986257 0.17150337949104658 0.38233692404028347 0.31123923676250914
P 6.895064209454016 1.6634700962499624 6.135834883863946 1.0772958241232156 -0.19417279606410429 0.5125360454659044
P 6.600981435520496 8.865067766376724 3.746756080599787 -0.27436293256145006 0.12593443261199602 -1.3224633660676322
P 3.3158729153983915 7.486231850344347 0.8969670474696065 -1.1639525421815116 0.8462762915444071 -0.19482765603928384
P 4.375432944571394 1.8029497849589997 4.680473828587419 -0.8600584329301639 0.228908913993709 -0.9519730569532896
P 2.096947860343273 1.9490359605092584 1.6886218009961855 0.1400248492667911 0.49862354914987034 1.9784715959189798
P 6.828067657000091 -0.015119632135479323 9.757496853796706 0.14165775688452378 -0.12584135867755747 -0.5902815770774995
P 2.7801828242644726 5.570341255440191 6.103011372745979 0.31304723650552535 0.09147188005875215 -0.2635961809632492
Ni 6.324440672230904 0.682117884166138 1.4304719160329673 0.3607329726172626 -0.8627691469931076 -0.7861775264802977
Ni 8.603989193799563 5.576336030536855 4.9309236743291445 -0.14501818871632446 -0.7814510675389058 1.9319703670336468
Ni 0.07551346212815019 6.484624450755734 10.001129407419086 1.6485905756855672 -0.5621249121376254 -0.2688216910282467
Ni 6.261942553836954 5.649826138433008 6.267471486912763 0.4326241023306097 1.4500206789950318 -0.4297488376653438
Ni 9.249175687209283 1.5928879718779376 13.03291115441006 -0.8913911816051746 0.15059645413505035 0.20826989758711875
Ni 3.2490928147925398 8.973350156113327 12.515453837643923 1.5494573224268153 -0.29906429196287204 -0.36706765658603885
Ni 7.126507700744844 1.753702284047159 11.317388153078218 -1.277263372492226 0.3639993020733602 -0.7405797832458407
Ni 5.656404392424481 4.412540320091247 12.449656240209329 -0.48582742582646654 -1.3298221204255485 -0.8325558566345209
Ni 0.9403195293538956 2.96805361744297 10.32274862080761 0.5572079344519824 0.23550096538892992 0.7678558453529744
Ni 5.554944941377173 3.4936645812165636 6.0209469483811136 -0.8035535558649 -1.3320399540124737 0.6245883207791695
Ni 4.215700891642544 6.679440524972439 11.320281079082479 0.5337144793157325 -0.15129039487828136 -0.038037414388695776
Ni 1.672833991416651 1.0115453627001934 11.509271775301013 -1.5610805084880406 -1.9832232516713524 -0.6716011991935982
Ni 3.4477109127754173 2.1347798790066785 10.503655311048067 -1.8647419329032915 1.7415485533715425 -0.07548938858756676
Ni 7.600537248027361 8.680810777966075 13.260730488888132 0.6062234451187366 0.27719011759760004 0.3199915290338425
Ni 4.245119521080804 0.8986064349450208 0.5186816813502442 0.7064764138042284 -1.4490297758366721 1.634535897364714
Ni 1.3041223846471102 4.605615368573441 4.495999447233704 -0.983273666838784 1.1164925489273352 1.09999866503737
Ni 3.412730411936642 7.880701227034718 6.252458198511338 2.0150146851503363 -1.4390053017211348 0.65123034884673
Ni 2.2376039177918443 7.1870295196563765 4.466207203083767 -0.9980755077383069 -0.1291673377269969 -1.8943191323397763
Ni 8.820215179075781 0.8347173781534472 10.328767864374058 2.178951308037718 -1.2842359471553173 -0.9761267713813575
Ni 7.09116958380925 2.0518223554947586 8.789854513550903 -0.31453847633907117 -0.27391556061138633 0.6401483800009555
Ni 8.394294407765235 4.751635667474287 1.1524545747015118 2.0232350161775994 0.01737063006796363 0.18919873988828062
Ni 0.91629431531265 7.645163972530314 6.353366167893551 -1.811508784610764 0.611456925603534 -0.21457604231080465
Ni 5.184049994227059 7.649944735087779 2.3157467993266 -1.3357847657668867 1.0287631666301509 -0.48361164912207033
Ni 2.3654046176547903 1.6448928811152455 13.504873115995974 -1.0152065109916386 0.9395541144636465 -2.159911003576816
P 8.536023313504261 3.7061544193760234 9.56590214773634 -1.579406817601054 0.7024552084599773 -0.8796368692827239
P 1.532526139114982 9.602462747066058 5.262226755181513 1.3685213367679594 -1.4871504939677938 -0.04413349998410464
P 3.4798493067394793 3.643185753486261 12.123669404964664 -0.02800522696367435 0.6392736907054861 0.30767285956748947
P 6.888504777362376 2.27992495956531 13.240441421963647 -0.56266587224276 0.4099932523049713 2.927150812612346
P 7.764617159817528 4.82744086904984 3.228459307101118 -1.5056691215972715 -0.6357067992898342 -1.4474552322607008
P 5.011613158911243 2.691710484101619 8.903874759451455 -1.2247910136251228 2.4598106469567895 -0.9381652045359197
P 4.738563858040586 3.921448720610531 2.277689858960196 -0.9392396685470211 0.7383755765056703 -2.571310135090378
P 2.2854774200159094 6.62668273974183 10.407624095912466 -1.1181123439189453 -0.6402090580355619 -0.22436346071487168
Ni 2.946577829734042 8.56299509596429 9.636396750274143 0.966683880800903 -0.3113212549533541 0.02276994670666401
Ni 5.483562886262265 8.626622528348191 7.932444511864354 0.03490452518666892 -1.3924570216479502 0.7780407563057762
Ni 7.146854174463819 2.9566475461444504 1.9899811214049656 -0.9064174798106777 1.4123450188211288 -2.649313291238734
Ni 0.02775947896802151 2.2891665123830873 8.115223981138149 0.38419865983937057 -1.4140841129994226 0.8929955499778169
Ni 7.527762372324846 6.074071760658458 8.58926576265556 -0.5069580371574947 0.18486694528214614 0.053950486074526446
Ni 8.74677212592921 7.6881908355475 4.175219690577709 -0.15902838695248742 1.4757299108356778 0.5553050610023147
Ni 2.1684146140074274 3.3328220361975935 8.197591438090319 0.1763519658325995 0.029205675029678732 -0.17725108060810119
Ni 2.608583563491206 0.21117042298119845 7.168407131962061 -1.2971963639707271 1.3300468348418448 1.691074712991707
Ni 0.08898711912327388 5.3260518175136555 7.3039285751363145 0.5412426693719775 -0.21389521419369617 0.024268899849693687
Ni 0.6129935159361436 8.752644558676963 8.548646220626955 0.0005443025392442238 -0.5445480795961267 0.288562878210916
Ni 2.8420315871141986 2.436617275671205 6.1957101705162305 -0.5399761439547281 -0.1437084687659654 -0.5000032031062163
Ni 1.3909007538250355 4.107860816552006 2.135391590751236 0.7269148841642384 -0.3560296536043223 0.29964690393921944
Ni 1.3993706087496784 8.903586784384018 0.27074173595118733 -0.5480386092478885 0.10002774004856321 0.4704054348444415
Ni 1.452655407175599 4.228904454375071 13.316873392803624 -0.007306046743109998 -1.2520069119182824 -1.330086686940845
Ni 4.11292390760696 5.643238473491619 13.826905470085824 -1.273754330897703 0.2729997336653363 -1.1590782448083456
Ni 4.4533367879782775 8.76185787864499 4.341719157591349 0.755864477319053 0.6019782966891374 0.7730864976242944
Ni 3.516476723813602 3.525699454731547 0.6009945547928994 0.01340316077978337 -1.1633645308885254 0.663854979589276
Ni 7.995223076565808 0.161813755050329 7.519104298401877 -0.5773736107665798 -0.45963122704707293 -0.23295454481799233
Ni 1.2311028242467714 6.023120877811772 0.8456538430511444 0.11858673399767318 1.746067781398135 1.9776437007010457
Ni 3.1202569104388043 4.5069509696512675 10.00610121225985 0.4868527817671873 1.104483183171285 0.6693522552584215
Ni 6.391747786032066 5.601519732512794 0.5764046837566776 0.14242266007500634 0.769224700676043 0.5192461104962283
Ni 7.578289762425299 7.602118287613296 10.570073090082145 0.4533237967718064 -0.18924399130391925 1.002726376246757
Ni 5.2965673114259815 7.691343503769451 0.05543896486175473 0.5107193039721398 1.1848664095160433 -1.0581102523337003
Ni 8.803736605772393 3.0670662215120466 4.223290822750015 -1.7075102328399108 1.6128764101134094 0.5185933074035778
P 0.7581235389749091 6.299445189253291 2.9286979659881207 -0.10600015558191421 -0.5216675754535274 1.0699170151606412
P 4.827873772745988 6.559206228842174 8.929480071983642 0.4681240950094324 0.8195419608733563 0.6740969690322585
P 0.12065026011656418 8.333998451651695 12.245402865416589 0.1449737086316342 0.10119579221473539 -0.4761960733842896
P 0.10011556739926313 3.1808257840999175 6.271314918858567 1.2363815466761998 1.2968140409306441 -1.4078175632644205
P 8.717776989237182 3.9876547532714905 12.800531273602566 0.5188851276123838 -0.8316708829264065 0.6652261489051898
P 1.815231074599732 0.9625049026865106 9.323095875516609 -0.5862693705943128 1.2957871423280265 -0.6819784286628642
P 8.032989218579798 6.9885431749723255 6.691817806302318 1.1562353760429118 0.3708646617346258 -0.19836138022415517
P 8.632767878643516 0.2125726545187227 1.4256789192406112 0.2960591865879611 -0.11417832051733239 -0.326734761294947
