# total energy = -340885.94638954755 ev
CRYSTAL
PRIMVEC
9.16841902141251 0.00000000000000 0.00000000000000

0.00000000000000 9.16841902141251 0.00000000000000

0.00000000000000 0.00000000000000 13.41890799583741

PRIMCOORD
 96 1
Ni 6.634121297797994 2.3325558160702604 11.23998568948198 -0.38106242820323405 -1.0651784720343913 0.5865539917142673
Ni 4.965368186157174 0.391305372636251 6.293857430608202 -0.6662551043903364 -0.8708179854395132 -1.0747481180006975
Ni 3.008809233509399 1.4705135559002445 4.719308907408731 0.09312844182556865 0.331915534164938 0.40633714360962275
Ni 3.9415858463081515 4.7806887221259835 5.116777291300593 -0.03241081223053773 -0.9363458919389939 -0.6130222132081248
Ni 4.153440504272145 2.509946386991944 2.3779779975081454 -2.0947901027077664 0.7612666221712309 -0.33512941311654537
Ni 5.392268111899134 4.239486116640348 3.251092957311308 0.3895768934321484 0.6163947292247837 -0.19807161689787822
Ni 5.1883441363750435 4.4514324587943985 11.23605427141235 0.07109485906429691 0.29484459745456965 -0.31078415150296157
Ni 6.006781395754098 7.936522722810291 12.374916772936729 -0.41453999113538936 0.4200148982070315 0.01948381975622451
Ni 1.9621241829842158 6.782200433158554 0.34509379032197757 0.9496007000663711 0.1877715205234508 0.020400932253855187
Ni 2.9106613080537134 1.9668459187721352 0.16981745682300112 0.9499603973986349 -1.7280080956829467 0.3820178501379679
Ni 7.706514595215073 8.750009035926285 7.398675758680731 1.211490954082107 1.19949598650376 -0.738668939376373
Ni 8.710502318430857 2.5102031027241023 1.3500900396283844 0.32753026061304885 1.244460209919276 0.07538320202700566
Ni 7.252228601903179 0.44394401667349837 4.649074233615805 -2.3458210454114954 0.5121524368742405 1.0089047371433268
Ni 0.9050430621485039 7.92793191420198 2.2474655529624474 0.3050588189834101 -1.7863896209456331 1.1317361053499668
Ni 8.068291240759766 4.28664846400551 3.337966477915723 0.11078292168253824 -1.8074148170470485 -0.10083429511025861
Ni 7.762203572255507 3.961765536539629 12.505214676477692 1.9430281675097052 0.02024718028481029 0.27644398346019483
Ni 8.43144314915531 7.468429090475861 9.44548862802031 -0.5023452209758317 -0.3063274012831885 -1.667205105462961
Ni 6.940438176777394 1.030777843550348 0.2916079843686063 0.25265150902628747 -0.3778886584609428 -0.7436285973744935
Ni 1.9601071308029687 6.695925610315208 9.15794867116452 -0.40181663003144985 -0.5298663092142358 -0.8138860481391595
Ni 0.5253705795466458 4.98840842311842 1.3931916942159348 0.4344673261869357 -0.9719417867657326 0.0693688775121257
Ni 6.543573991698007 2.0502418580477006 6.795952144825157 1.739414537747675 -0.12228706566739586 1.616990432281783
Ni 3.286392287325034 4.491012523641872 0.17641138377187826 0.5678713277030994 0.510362177743037 0.39796306061331466
Ni 6.676497730442196 5.909091891248695 4.460538532550829 -0.3723710710768232 1.0331893207223044 1.0133774282027
Ni 5.673481859641013 3.209258378230341 8.802803543086627 -0.4938078729287818 -0.31810845307851665 1.2624705304537676
P 0.4096220401257765 5.7717214692867564 12.758013660037204 -1.2257081261227536 -0.7444503219448404 -0.9560305148521148
P 4.107277514578602 6.252009098898728 12.432631970577415 0.5323325113665413 -0.5421690378409889 0.4722108634842964
P 2.6015755665345996 8.95942489443477 1.3310674038754222 0.1974625225589696 -0.3834183300299203 -1.4417242433141946
P 6.5641020818517 7.763065403642039 5.806978624573056 -0.6028033636935941 1.3655064612010352 -0.8457098775179758
P 4.953201694136651 1.413495158103989 12.397406904757634 -0.263819609827965 -1.5307664308855315 0.7114664108196522
P 4.177150035820805 6.3696032410654375 7.902341023073356 -0.8481745370083844 -0.04138704758721904 0.9459667028582095
P 4.945766106323054 1.0379567156317868 3.6137525216062465 0.8419349838565758 -0.4609401756664836 1.165363049375793
P 0.42073416396064733 5.893881484118291 3.3876840636577645 1.1318065535765862 1.1789518438038211 0.4086714481697542
Ni 0.3789793501250296 0.4570557726935056 5.073742566171784 0.9902665532168494 -0.12490522001653327 -0.44701893759970107
Ni 2.328558385383788 6.419167714210084 4.830337544725483 -2.2280724910444016 1.2319219682429494 -1.6391147749846482
Ni 5.919094636383879 5.765642807485998 9.10789552128687 0.8716327680313246 -0.08652739156928323 0.6200025011806999
Ni 8.830003491750746 2.4420909179309875 9.827605411129081 0.7093431938290622 0.08253986767644496 0.29993486749328346
Ni 2.4175103865767893 5.200336428434459 6.853814954011835 -0.1654214349630248 0.7273054347344378 0.7715574625742777
Ni 0.868286870354777 9.087865276285187 9.182424682542054 -0.8204894123882902 1.2356876059329687 -0.5386574251433046
Ni 1.3896114265942212 0.7876139515238955 11.820192583101532 0.9129097724032408 0.24239460718496963 -1.2042612691028873
Ni 4.635085059896954 6.945737522962672 1.0961587563216741 -0.6044663532183138 -0.02302859968468937 0.899949869808463
Ni 5.590947751751981 8.226107237104346 8.325304946536182 -1.2159351058963896 -0.679368758954159 -0.5828734575388864
Ni 5.086492169641068 2.6685233621139948 5.345019581395319 -1.4027224081297 -0.21133902343074568 -2.900402597984224
Ni 0.8682923714061804 7.785188798702719 6.909516766838875 0.029495438355955653 0.018835644649264335 -0.2235206530986021
Ni 5.454842571612825 4.700529234759419 6.981589708642439 -0.048696693874754844 0.2339721874492293 -0.43814014705283255
Ni 0.7146525899186822 7.382777720124901 11.355952437275185 0.1512240604167202 0.3470310496501378 0.29785793035959673
Ni 4.541475501849074 0.37343795767800325 10.548550287011354 -0.12303911334207196 -0.34469468820747734 -0.7150145331822267
Ni 8.58735211434671 7.552888566356084 4.727588906612752 -0.3223793125397287 0.038230504236108354 -0.7537163206277987
Ni 7.313583661889117 6.321102304525449 7.115510054532544 0.998727539500009 -0.11028849854462296 0.06114186161664309
Ni 3.0097444122479775 5.441805079786763 2.4921734067494543 -0.8226707363103252 -0.36838843227999135 -0.1329175487980485
Ni 2.6138795848402077 5.213465604450578 11.165819597619421 -1.1757467066029623 0.17819313280639634 1.1690752081200575
Ni 1.6758311311131957 3.612879688116907 3.8777287247755674 -0.6468921264826923 1.0329718053948596 -0.5122036018271501
Ni 1.5340140259335078 1.0408997781326066 2.9161027647335773 -0.5517476826683595 0.9910772220436027 -0.30593325116856346
Ni 1.270568674224615 3.632215883799863 8.146659219052623 -1.4428514149401022 -0.4263588381471883 -0.1285369032318496
Ni 3.6699439280081907 3.0034732136481 7.235596172984996 -0.31100192394072246 -0.8788981913444863 -0.8310671879041364
Ni 4.2764623504902115 7.129536818769317 5.833494609179352 0.9370853412081797 0.8486841296549513 0.2956241559330715
Ni 0.6717242184503388 0.5640567235410662 0.6531490015448534 -0.1832954870299682 -0.646385619159919 -0.14255250078465126
P 0.31546146009565534 5.8675406163150035 7.793929969382723 -0.26984627563801916 -0.6986301782869323 0.43302056643808007
P 8.48872743110273 1.8423571255131619 7.639558548058573 1.0331394413209756 -0.6562568555270439 0.674877813062341
P 1.6983120945150962 3.3970642731424645 10.323930439265768 -0.40674363501942207 -0.0007780158166051118 -0.08661506618708309
P 4.613245885825451 6.262030180871924 3.594241209120282 -0.6791090775348692 0.3227402954235732 -0.060318337274083214
P 7.279568827378085 4.071474838361465 10.189217941973572 -0.6554240752131035 1.721990685844273 0.18090950329629488
P 6.532131804778931 8.353089840332862 10.189581011366197 0.4576424787518183 -1.8900701272554354 1.8176097553021795
P 2.4261745425371464 8.75477661380923 5.58906914269772 0.39133964175952607 -1.263618785125598 0.4851113735960484
P 7.0708314318760195 4.291617747106582 1.1900021090541992 0.29029862995510003 -0.8685469300171493 1.727506987676812
Ni 5.268980381529903 3.002959782183783 0.24471885588981396 0.6767156376020281 1.307706776583748 0.4195834670965677
Ni 1.4668553567169824 1.2476384582914368 6.950095272516066 -0.030215604351431828 0.5029013505896178 0.8576392819657102
Ni 6.921019465323388 1.026927107567967 9.242943582714673 0.0248787655195507 0.37543428338317925 -0.8324542980596502
Ni 2.668734235751125 1.6987430102083627 9.204445391309871 -0.055546112696420465 -0.4304268375689748 -0.29257328492188966
Ni 6.538458013892843 2.3660297138599575 2.4381219093434336 0.67188864852703 -0.8243347542763094 0.09394656685148982
Ni 4.064442660984116 6.84759876592599 10.25707799524403 0.7656740072103071 1.3761323163459975 0.23954582488226486
Ni 8.408732975278268 7.74689231251604 -0.006063992330349473 0.005151976514584676 -0.5366815323638563 0.3742346066481232
Ni 7.777899905593212 4.193323126946805 8.069540896270238 1.0211483303973703 -0.6200302690948418 -0.5882699459641094
Ni 3.54303467213172 8.343169610968728 12.749961954466425 -0.5295541772904557 1.4375649697301822 -1.1071453033844803
Ni 0.16128715978012667 5.188857567839362 10.100210930266538 0.06254696949428583 -0.9302786026989913 -0.061365547591674965
Ni 8.580594989539533 2.68394464288153 5.435959295828749 0.5988050411674785 0.7614483991647338 0.5649960630378335
Ni 3.5186833512526636 2.645767346141924 11.183747524143106 0.6826073204961147 0.17146481294362728 1.2546939718321424
Ni 1.4387908261406297 3.436158411782637 12.676050744652224 -2.1765367850589543 0.6033373818201931 -0.7746782675914465
Ni 3.0753902923285676 8.672416705881307 8.100323863081773 0.7649849515630825 -0.29749566192417154 -0.5435237520966704
Ni 5.751715979016387 8.134707268036832 3.414212884050668 0.9462284411600284 -0.35317778597782407 -0.0350500496255977
Ni 3.3958723786717275 8.358627565412286 3.2244156085305127 -0.5327914532808309 -0.23641422123181866 1.0219124622569047
Ni 3.475683466116076 4.2383950747786745 9.18458476205979 0.3165709333880677 0.9848502672972844 -0.027128223675359733
Ni 7.508247534217481 6.374315808434351 11.240965793473686 -0.5603228259318802 -1.0835299779583856 0.7311021827727087
Ni 8.094861319038195 9.059039766931363 2.432365059049774 -0.7351604120024824 -0.23711613239484974 -0.5642859243446863
Ni 4.7653407887104935 0.378004747184727 1.232389543801208 -0.03792839961465726 -0.039701689464996144 0.011298969952586993
Ni 6.144454375543224 5.523789082535456 13.175958790936326 -0.7242856740715075 1.2352782863096918 0.47108446318933717
Ni 8.052475717974987 0.1792095852524084 11.530089136291757 0.20013312741259726 -0.7765366609564239 -0.9814206727904453
Ni 9.05474894683671 5.392368964508196 5.426821132605799 0.47073864981414415 -1.563032747118405 1.203262652635044
Ni 7.701169406934769 6.373628177008926 2.2247077033065756 -0.39528165712640956 0.45304611763038755 -0.7167351154177592
P 8.518928203307402 1.7103869023455622 3.4530072153893547 0.6614011187321448 0.9617406778630148 -0.204679352022383
P 1.9596487098526854 3.038441563735722 1.8435297663039867 0.2650997620919692 0.7175532404436803 -1.481496895226442
P 4.789508741209437 1.2283114310274865 8.28559835750643 -0.6009835368760359 0.21120841139015237 0.19611783560561707
P 8.839428626488575 1.8669284884483546 12.54684021560533 -0.9407386216900508 0.9482999789770764 0.35608853186671574
P 6.516875555553498 8.014610147481575 1.2300901043145864 0.7300644855368136 0.6102109690115749 -0.687050700979449
P 1.8244787084521072 3.1624535992064002 5.889961068151465 0.5974423564919968 0.017369858737015246 1.3840621127160357
P 6.760031196002846 3.9582265268034407 5.401365017236558 0.8570299305164853 0.3718491371350822 -0.4471729466790621
P 2.373997069975884 8.516516909108912 10.490446348404825 1.9002141576679727 -0.24699919583651658 -0.05752277680681706
