# total energy = -340855.37142801937 ev
CRYSTAL
PRIMVEC
9.43837449504847 0.00000000000000 0.00000000000000

0.00000000000000 9.43837449504847 0.00000000000000

0.00000000000000 0.00000000000000 13.81401511901260

PRIMCOORD
 96 1
Ni 6.684256838670782 9.483961874049085 8.010747702688743 1.8069497044851717 -1.5303062034196613 0.12015767802921887
Ni 3.022412920672395 0.2628209770257365 8.882259835049698 0.19528505529167656 0.030063652154599833 0.08878893390995031
Ni 8.23627483045348 8.63249779301688 5.542487233995771 -0.5422798523872402 -0.20439318824053185 1.1263067068042798
Ni 5.605412876954564 9.10813523883441 11.969042469983226 0.6816791522548905 0.12417502671872806 -0.7819069241294018
Ni 5.131559283922277 4.9619894472044574 6.115920397455051 0.2092245481909042 -1.0363700324431313 -0.12004069283538035
Ni 5.666535790379067 9.045398363366118 4.09801008155198 -0.7460719167086636 -1.0220744417560657 -0.06144216646588128
Ni 7.626470890761754 2.258527516858527 8.458832645592624 0.23480599620443432 0.10839539528696815 -0.8778520094681591
Ni 2.081841145748788 5.638343365672614 12.922996916145962 -0.7862950258947684 1.4233951059877035 2.1536853343820783
Ni 3.122044402159275 6.879489615722329 8.465960506033973 0.8023135128102118 -0.2334204287108174 -1.2253905948823347
Ni 4.317301275267988 1.8543763196940497 5.22320306904857 0.486602356319278 1.1375462842738409 0.09651072803424025
Ni 7.092438221757474 8.650874308217237 1.8471276480587782 -1.9500683621859383 -1.1532043025260719 0.436207448806494
Ni 4.7149871858827765 9.089871984128356 6.618819644250861 -1.4229503051408008 1.1007751381920783 0.43320568586569264
Ni 5.184121591652518 7.463064312608821 13.59067036156339 -0.3648251404087652 -0.10635342515627488 1.3210585153003056
Ni 7.3302003144190895 6.22474013654211 13.056440430531534 -0.29386037916442936 -0.09105407579504318 -0.44094547771211157
Ni 8.98134955383884 0.1996074636439269 1.4703637822537627 0.7717011872409935 0.5488580198253902 -0.08745890224461711
Ni 5.7376728191746915 6.499349643349688 7.689723101479117 -0.8413621420722414 0.197393359883931 0.5583520753587545
Ni 7.672284760706555 5.993849180534763 5.473209564981588 -1.1786543671680605 0.6917509346685957 0.32634446783506377
Ni 1.192623566616212 6.531666637723605 1.9085582524927978 -0.010093893900892293 -0.35145771796292374 1.0114724978705032
Ni 2.85985579622672 0.20368389760131453 4.680589029926075 2.5340083133161264 -1.1219975379059643 0.3172556181599181
Ni 8.004609927735075 7.1136745644389325 7.897238035300166 -0.7988924029438047 -0.018954686725631872 -0.5133654833457353
Ni 1.165176773497242 0.48720700531038974 13.469217358174495 0.40792814224582646 -0.7730787843148105 0.8499609394848459
Ni 3.8434854357338 0.46300229384078906 13.537554965085977 1.02184304247155 1.378664081628916 0.7522597906869303
Ni 0.9909160646404519 8.494971237811752 4.580077891933456 -1.82863618831967 -1.8861031721878874 0.36637037340869805
Ni 0.5906978381405806 6.742114074509601 6.96244348942337 0.5762114721376785 0.840805755348139 -1.0068707374324337
P 0.5349821694815049 2.2462009997287558 2.331708897576287 0.6123431848632294 -1.71940081362991 0.07605194595925611
P 2.8641125031375365 7.895171975116624 3.2793783301427637 0.5284881979197866 -0.23778899009215823 -0.6238804960788674
P 0.7362366294800605 2.792399733495881 7.9151954866716085 -0.44846158358349864 1.3210991387302538 -0.8077136007798605
P 9.209569449855584 4.938638908629378 13.565334932825683 0.15652541802497558 0.16794008761982043 0.05873376639578272
P 5.7616934823410535 4.975193733165063 0.17872317233225388 -1.1026525577204493 -0.09902526692597784 0.06089143616873383
P 2.2802829701388663 7.759787930928692 6.0778214548470615 1.9222464548776637 -0.16393996532149185 0.6799194892513064
P 4.247391235160625 5.070426932123249 9.304954606643626 1.8180599554657206 -1.178679563979041 -0.9199599943818026
P 4.802886767834966 8.477982163666585 8.742654949774144 -1.6919684284505698 0.8037962680033253 -0.1104651333318033
Ni 6.887398973574356 4.571703222217342 2.8144949682591234 1.1898142404396217 -1.7604687873148135 -2.2671558301991084
Ni 3.488772444331759 5.02830346661776 1.5743973216191465 1.1462119303686387 0.3149115434077738 -0.4929511813554413
Ni 5.014259165324423 2.8345703908739956 2.0212118593119492 -1.6207288162782927 -0.09491355875044945 2.185181090997514
Ni 8.53650008572216 4.386862095517922 9.612620132550436 -0.08595377845400035 -1.061982590804913 -1.4007809681326135
Ni 8.795092670960656 7.946639431401955 9.86239161295778 0.4393171980800692 0.7246957650257326 1.2562291775297463
Ni 0.3067367898535412 1.0800048817828036 8.946494580555123 0.09652178377783377 -0.9630894785814251 1.2497823934631378
Ni 9.289644619326472 5.634426440244701 11.438225455179644 -0.5299028188791262 -0.9874151998109834 0.4512188346136616
Ni 4.2854184461222244 7.259110477496089 5.053208505477122 -1.561035514182718 -0.5969296785216365 0.1483541950680929
Ni 1.286101227912732 3.4596267437982724 12.63027800013709 0.16349053648889908 -0.9479076286346643 -2.346559723349733
Ni 8.222976160747624 6.1971989596778885 1.629459854761086 -1.4272653875763872 0.01588658932326941 1.197034669447461
Ni 7.585829250056705 1.106753235186917 10.605557897014162 1.3253152336941303 -0.728835498225719 0.7013426921220889
Ni 1.8245038643221305 0.35506787428418435 6.813693763070453 -1.3146451555747938 -0.035478652522584066 -0.13977853758393993
Ni 3.5443550319100314 7.49703302252463 10.734553105486059 0.6051042439126288 3.292427181625917 0.11534817245571748
Ni 5.5825908873528896 1.181250325313475 9.594648523617208 -0.7221930532085369 -1.474316318317603 0.09270729512775001
Ni 6.555772246260692 2.866000178042555 0.5644100774132921 1.60975097711055 0.17976819060300006 -1.8330744265966818
Ni -0.20156592635788367 7.381988675438273 0.10795612781801243 1.1260506249294155 1.8047874067265306 -2.1406642395320614
Ni 3.054663846424637 5.3658763698822325 10.894202266740555 -3.0712500890588266 -0.5845413321596127 -1.895200506503465
Ni 4.924660675957715 2.99859046337106 7.703413463727764 0.2935791004785847 0.04413324287378851 0.01972781744623054
Ni 1.2172671625012295 4.8883040572870575 8.289748885162847 1.6856869663172322 -0.23595116555247103 -0.06772208593732208
Ni 2.5596399793325655 1.8939231089541888 1.1491504135536341 -0.14679224989761172 0.1484009891456283 0.49695901696325384
Ni 6.354602731632863 7.78652684595828 9.800270119508523 1.1140939667881715 -0.4684215716451933 1.8354688949707874
Ni 4.77170237840406 7.109634940142193 2.613902138314777 0.28370580722893074 0.5242332792981746 -0.7753958624837614
Ni 8.21479309003437 3.137598843376628 11.820611760689259 0.885761751233539 0.6209067581625243 0.36275643080519465
Ni 1.5153027148800875 3.8850709138913593 0.9246369672128921 1.9417374737227395 0.9527911819792106 -0.939531488755827
P 3.6472521909825937 2.201028939251661 12.039329101234141 0.318359135636742 -0.25986242495242984 0.3292837529690458
P 7.234834978217551 5.844005546574388 10.246435297034 -0.4051222973659152 0.8132057342426833 1.3360981832422472
P 2.6854346350030034 8.535471302898925 12.652242985331883 -0.8615645851620454 -2.8210400995944966 -1.1152234524069244
P 9.0764978074263 3.8706396392424924 4.780132734529873 -0.507354501264965 0.30990560555275015 -0.07109485906429691
P 6.822623409208643 4.189977602924484 7.654511357638353 -1.1826868853662211 0.14082574790153168 0.15006243600845123
P 3.8769916652978798 3.5973892583665283 3.868532050211039 -0.09833081196211452 0.1877149562539025 -0.5423760116454723
P 3.1143426885467993 2.0215676860315446 7.190982402499063 0.8561786382597835 -0.573573006073567 0.11047361797223555
P 9.026304531701856 7.978342931431742 2.9854437514950583 -0.5376050726193903 -0.4656594355190238 -0.657086807627507
Ni 3.00722657606152 7.549519823258672 1.0912516488669044 0.38157253507043315 1.01639718886563 -1.6612563440786938
Ni 2.1170462827273844 3.7383891353968908 6.152720619728388 -1.242252660744996 -0.9887537161167487 -0.2926511893476766
Ni 1.255832360810759 3.2612037961572446 10.0259633626649 -0.03059921294309569 -0.8014953877842906 1.2543304178451364
Ni 3.9764532560433086 0.4655695317116143 2.4015660827863092 0.6241586894409186 -0.4573393456891026 -0.21619609441273088
Ni 6.691901922036108 1.3958412085159868 6.222937407007817 -1.0100874445975185 -0.47024216979369976 -1.2380671619087387
Ni 7.577212014115295 0.6826040100786728 13.072092087006498 -0.7154534204918582 0.9348723927172609 0.9941376061364814
Ni 1.7604267396712747 4.334998227502537 3.157745997637891 3.550273347479266 0.0693850754620418 2.500788889141364
Ni 5.732226877073712 5.680570653297879 4.091186136770338 -0.8620584940793282 0.6216816886553358 0.557665076594059
Ni 8.95670595795382 2.210476752151279 0.35234018404643247 0.6363179505112718 1.8312800537004206 -0.28144683599142495
Ni 1.8262027717366471 2.156423181246072 4.27987245725128 -0.6114600109273276 0.6205509174850022 -0.4445123691277635
Ni 5.203838356035438 6.183843659724882 11.657951757961259 1.6025467460526273 -0.77119005193253 -0.6730471876115053
Ni 1.6993982099920242 0.503549550800588 11.022631172740946 2.996758545608155 -1.7264361232101364 -1.829138067656753
Ni 1.21884337104692 7.370983530742015 11.442853090209297 0.6474639398257623 1.601031080739049 -0.24144175635339712
Ni 6.0399178865917404 3.4427131766493058 9.808655171436616 0.3446648634108064 2.2495412024411388 0.24378326000238015
Ni 1.5468363241684229 0.12433548296885863 2.635838808385998 0.10823881510444586 0.4878362287263793 -0.9923560887560263
Ni 6.498698395507456 3.3940394792234017 4.930484153039698 0.6974251022352376 -0.1495775259522327 -0.232212010225013
Ni 3.754160659228321 2.354581854400397 9.919843942529472 -1.4438880837347328 1.3590475929495693 0.13677523198124186
Ni 8.727089182507362 4.656214427715023 6.980995558389892 0.7573642017930311 -1.0024240145149899 -0.15741733371162567
Ni 8.80010444783348 2.242991952390224 6.134499837707697 1.2796516702187446 0.17030807363136474 0.46438699656450344
Ni 8.951297769350942 0.9545594459697941 4.1286914056207 -0.42154084793325464 0.5919435381609547 -1.3655432279762418
Ni 5.983079995201631 2.5144112886083203 11.973477562172569 -1.6118104307427399 -0.7469365787018039 0.3593268362983553
Ni 9.504631914259038 5.794095422085697 4.054206585381024 0.0479803845340206 1.3597518181054453 -0.28366441246803403
Ni 3.983012926338248 4.294479285666314 12.430141043682303 1.488780830482365 -1.9313134501759384 2.8624328036086704
Ni 9.354590074433636 4.278273596606729 2.1952677554415443 -5.362254700851074 -0.08383467522846852 0.2624546111596383
P 9.308191025268279 8.981340115464313 7.619133498405947 -1.4991932840649407 -1.3860673160715224 -0.6448799811486701
P 3.2114163705373797 5.377948050899826 6.744872911383286 -0.258792846037335 1.339144940488371 0.35653873203025693
P 6.609391651937745 1.3583047930296925 3.8746792635392318 1.3566757502832827 2.2952369047060404 0.40802918660006504
P 1.191009604572421 6.754978578987303 9.209389176902155 -1.8494261284818276 1.0034856230102847 2.17309562058789
P 6.221540527578103 7.83732417765233 5.869174859920453 1.602574513966769 -1.3029654052440205 0.08261880054349642
P 5.669046398002741 0.6206240922472929 0.961712790022362 0.6113602521246697 0.48299612702525846 -0.3911550365525457
P 8.082353818698266 8.389761676980541 12.09885315401409 -0.036381623952827666 -1.8050563441172007 -0.9302186959953334
P 0.3518918612564906 1.601220238182008 11.84579428775966 -3.546000431135525 2.6278785184037257 0.6091660726868283
