# total energy = -340866.4114731274 ev
CRYSTAL
PRIMVEC
9.25038749781219 0.00000000000000 0.00000000000000
0.00000000000000 9.25038749781219 0.00000000000000
0.00000000000000 0.00000000000000 13.53887714654547
PRIMCOORD
 96 1
Ni 6.040752795930635 1.9955213419912872 8.349398829652849 -0.07952473499920498 0.12211865841033163 0.7946027744295154
Ni 4.348533159187329 8.712246204257053 11.880757382558793 -1.879328315357899 -1.4354260690103087 0.3567919856916436
Ni 0.9971640210020942 6.735688156634386 3.414491007347753 0.6797958191892487 -0.2446373804725593 -0.9549897322924261
Ni 0.15824545387052263 5.304856719390661 7.403085113759901 0.005081271177649313 1.661606785439577 -1.4537032700529415
Ni 6.3387540291428985 0.1362702333329142 11.04314774525803 0.564729182529692 0.5050963013584076 0.7327662007386928
Ni 2.439058921692099 3.4816145941414254 11.043513135564156 -1.1504642778870895 -0.4548592595797263 -0.6621624223782014
Ni 7.5547082152214005 3.409766834453092 1.0607234334932154 1.0714910445159804 -0.24773324578906364 -0.40323125099078944
Ni 3.9213410141935188 9.044048353382946 4.95202011413559 1.5660715339447286 -2.0618586420870684 0.9443489647491283
Ni 0.23156680028711024 3.851953857579358 2.3923056132053246 1.2737134503574385 -0.7812808605096285 -0.3344053904663273
Ni 1.6441823744719635 8.374255545895737 4.98558329509055 -0.6993251474714278 -2.6951241789252616 2.0176593218620344
Ni 6.79269829477771 3.6387694273260647 3.356707536809689 0.27935807178319627 0.40939855614376597 -0.6018302011470474
Ni 6.486325460880762 6.277405459263535 10.944287004001282 0.45253986741793023 1.4644255415664522 -0.43501342849839275
Ni 8.306986728018364 9.130086207491507 0.03527727775813415 0.8640536701324861 0.3428560923368418 0.18218271358176366
Ni 7.595696682220114 1.8612704682489436 12.57570754388254 -0.38314090799881756 -0.4822296811728792 -0.05638660631984482
Ni 4.165486491398898 1.4584530943094351 10.484181980293544 1.6799932583665647 1.7777026346945963 0.00927036955833242
Ni 0.1289430013966288 6.721997583138991 1.158069886316722 1.1884299584975855 0.42616034898313704 -1.0827733022980193
Ni 5.3641979551832 7.571849183253136 0.8006663647544382 0.6299529275251925 1.7054276392792693 -1.0661711749649636
Ni 0.7272617648503784 0.8188359758758267 8.44063725161216 -1.5399336992070962 0.46758159224240115 1.8439885024060243
Ni 1.7275838681439106 2.9574783881802236 0.6398363526172848 0.28961420229356577 -0.8060866066993989 1.147089962098218
Ni 2.179863064029282 6.558302725994052 11.669645964143553 0.6785601470099346 0.4048273918333157 0.027965631974990548
Ni 8.160146076892756 1.6704627253506237 7.150029663317518 -0.6407898702396964 0.810219912141482 -0.32066644361368
Ni 1.6320921180135302 9.012791294030961 12.530569353052721 0.6325137462738333 0.4079129727371749 0.8088351159788135
Ni 0.7061366549237341 0.4311503858037284 2.906810315704766 0.0593585444639752 0.5837198646995818 -0.9070692544620637
Ni 3.457822597499428 8.400323137861971 2.830207856843032 1.2473169626417808 -1.9416708821508624 1.1426146999356837
P 3.1342902947957514 5.917260122847173 3.721864733171865 -1.0019313911492873 1.3369924129217425 0.08668834262717974
P 8.826867755730998 8.781975625208597 4.514755222196418 -2.235815368214614 -0.4609036660015933 0.4368831347172799
P 3.124753145286459 1.844397761454619 12.770518854489513 -0.3669331878907035 -0.4005246506929037 -0.7287054004057579
P 1.920574702491496 5.092560326337068 0.9518778239723267 -0.2484194732228109 1.253345685334364 0.09967267070198964
P 4.7251996876731335 2.764885320495004 3.6400358053743886 0.2977702557417969 -0.13430774427735578 -0.19648447491641644
P 5.876928433360739 0.49950982436698504 13.172312210533114 0.6619173962469309 -0.3388711395471648 1.245683540803416
P 4.833290465574276 5.494110397189504 7.180532816088508 0.25959862976808196 -0.8348803910026397 0.5213695845971342
P 6.185660116069393 2.6319110002272317 10.642247976646626 -0.7068862476481375 -0.8078105313690411 -1.1145323398771707
Ni 1.7001472188281392 4.953860016208721 5.200255187653344 -1.2896496619717208 1.2887808862135224 -0.11645580369759945
Ni 4.784725931215611 6.030651372784033 2.2801502150380495 -1.8176920306033404 -2.1358151389698765 0.9545423603423624
Ni 2.5757333969586274 4.947819513173253 7.32566954583719 0.06672809745516894 -1.5768064038637297 1.9141261397633746
Ni 5.902237493552225 4.602798560314304 0.22957611689777985 -1.3626610213324402 2.810705807548024 0.018112907550626868
Ni 6.445318493107055 8.219431810360314 5.0269713788291295 1.2762992088067437 0.6045853952946814 -0.3473205558660986
Ni 8.367225251398102 2.4734981143430153 10.062405012140413 -0.8547079672515279 -1.463345421128396 -0.5770483662166771
Ni 8.717463422805297 5.845449364708826 9.608663329991783 -1.8828363285111573 1.0340403558686901 0.5390569745745684
Ni 3.3978338345821055 4.086053413963117 12.943830414476217 -0.3445694754835227 1.571786839161951 2.4406952662835772
Ni 8.776434643097963 1.9845318816449835 4.756031229200263 -0.3433818829333247 -1.311689929601212 -0.774707321057169
Ni 4.9991961653309716 4.581827931858857 11.428788999693316 -0.1925458019836426 1.047670287947299 -1.8413893742202805
Ni 5.271250061614465 2.7371434083918356 12.621767073307048 -0.4183254263197505 -2.9727791519744224 0.6498501806697519
Ni 7.711752043756078 1.5716130845588727 2.776160617814962 0.8987069985402975 0.3948250292049652 -1.2319916451386201
Ni 0.7311358271340753 3.467341246233726 8.433962171994406 0.9411775089996823 -2.3147109542702524 0.16083407270265848
Ni 3.825395995075791 0.21502618240392388 0.8506665592526201 0.21115364689281702 1.124690511357095 -2.8263900510525
Ni 3.3458004049121075 6.604304903016078 6.093672412722834 -0.9371385630436183 1.3038472936283416 -2.7930726678472935
Ni 0.6797610250538558 2.315788257908562 12.270703767335132 -0.3205949669457962 -0.6014059691254352 -0.7856396516989566
Ni 1.9423778658216624 3.0728307202664236 3.9697473669259873 -1.1880193533227281 -1.359107242542911 1.5845503094752067
Ni 7.892569368157758 8.497045189529436 2.221608212725241 -0.08814512967836433 0.22517387243130896 1.3682536849288696
Ni 6.400759376534543 5.828077136989671 4.484495354616596 0.23585397785297446 0.4513088232243066 -0.30455873941854
Ni 3.1364733862450165 4.1109462067172435 2.388298345341673 1.226368642524888 0.8063912824240113 -0.413273722828456
Ni 2.9093208708714218 9.038470369722324 7.470169848926086 -0.2343401123116093 -0.01855359463247127 0.19306413638095782
Ni 7.348091560090898 4.056535427460545 11.739885081446175 1.7145676539073245 1.4862030424528598 0.3631341258595875
Ni 1.6305565536890465 5.4660077199739545 9.60567082963654 1.9611657576506807 0.10460301812407145 -0.19288313071840332
Ni 3.9432181806236604 4.06716412269447 9.435595055196247 0.2651581261337304 -0.37275982187480966 -1.531723395482162
P 4.46269219128643 6.451507002342473 12.331303980865997 0.7639264283915811 -0.06777402222118005 -0.2783807954715915
P 2.176375667942955 0.9497002827555591 4.404968848267096 0.9136718473802458 2.2848712452010003 -0.445335122139375
P 8.418999670218188 5.110136062581157 3.568198221112302 -0.8692012757716965 2.1707759713157775 1.1626726470278235
P 0.014962501776217219 0.6030096349534219 10.97072831162239 -0.7589372027071057 -1.1584241561641146 0.16418679122497531
P 1.581455496855562 7.211084070874482 7.378457807126934 -0.9776198109871163 -0.6303514485151918 0.04396637827862106
P 5.420764074726673 0.652170819305636 6.5940425231270305 0.06165299692510672 0.278441730616514 0.46265612991632576
P 7.446700690807731 3.8053689061450275 7.639474141049139 1.0211303326752414 -1.4316434620394247 -1.060975489696637
P 2.962473597428543 7.860183761531151 10.065085774437012 1.0383343552583537 0.055922779309548844 -0.4034945319545051
Ni 4.9714635036153005 8.787535108094227 9.007225335874082 0.08727378281700454 0.9960152827751686 0.7400069414615063
Ni 7.112428688220166 6.303704310917188 2.0589790002199426 2.0717581605889674 -2.880811049005542 -0.93889771182657
Ni 1.2302460347611948 1.2161391938284398 6.453455133949317 0.8887640283949726 1.4693556318782177 -2.9774570170660657
Ni 0.8476472327736356 8.097326695401385 9.578268406754507 -0.30818502331721764 -2.028890157580848 -0.9405295910030382
Ni 7.008306326555188 7.438689855235425 12.724459325065006 -0.1853721670533388 -0.10530492928710251 1.1674070763890152
Ni 4.484578608104068 3.2305128255383857 7.1519796450018625 -0.9588931811118905 1.1868759837469043 1.3284280682914993
Ni 8.869882057591528 6.470646054073535 5.273717139959884 -0.7136341078949323 0.7072485160835625 0.11529109396553694
Ni 7.494941461604004 0.3069287821855115 9.176326119472204 1.7960279153663457 -0.2407161910412822 -0.8175827802644565
Ni 4.126301849962078 4.446624268204335 4.908669098170171 -0.06766372189556089 -0.08114632976302798 0.21497019242542978
Ni 3.101950940106629 1.733837130091807 2.4462177965759406 0.10063683438747184 -1.0764597013751656 0.3443830705043294
Ni 8.198747943917272 8.141913563136388 7.1394694209510705 1.0270315286510248 0.2636753709406169 -0.9153525775167785
Ni 6.475576510609377 4.968928897441153 9.043767141603041 -0.4689021108260376 -1.46969553171614 0.5635870985054486
Ni 2.09278916652107 0.7228632055956079 10.243216786309596 0.7067864888454796 0.14515805672829837 0.9174405703940587
Ni 4.986143868572863 7.8168641968832215 6.866106594836769 1.9056934356149888 -0.3035542094134256 0.7238925523981469
Ni 0.5934826608703763 4.910919717448165 12.801075659507985 -0.6586927186620463 -0.23268200788289603 -0.6773450436559109
Ni 6.244585084424574 3.6543100783208375 5.598934863265494 1.0902264161419546 0.511527401695732 1.940156245278549
Ni 6.269043108966347 1.5221882641629974 4.750263612595953 -0.1983896623589293 -0.7107899535779177 0.03914941650595193
Ni 5.6341797646673895 0.6784557953780449 2.455776221976476 -0.8294648764140231 -2.5321010689910843 0.8726342127126455
Ni 9.08028212120826 7.647304594065255 11.70449494896058 -0.10138939628278024 -0.03231465297230563 -0.2670471156263272
Ni 7.1238806679413145 5.833211102050443 6.8494531222261195 -1.393080257054246 0.6792296622731334 -0.06602027275486695
Ni 3.118370377913606 6.983857552400912 0.3620684919769648 -1.5308368791121507 -0.4963337246744291 0.7051165573422244
Ni 3.8340728585478723 1.9233868202905502 5.471480249217114 -0.2541820867382009 1.4166852980676956 -0.05288862046891536
Ni 4.829063038488198 6.49569610341511 9.203159643523179 -1.6367776422110392 0.24193103728498982 -0.1573592267801806
Ni 5.342885062390369 2.7088187218763626 1.592090667360735 -0.6736097449831947 0.7320563191558619 -1.0021571340068482
P 0.23672019116162688 4.075452469891682 10.725457987297387 1.3029800605320399 0.816152475575833 0.3289088861281303
P 5.921496800320748 7.641569353817184 2.99236252446974 -0.8479575359015717 2.5287884596780836 1.6694093122031313
P 2.7797599435900007 2.0057615209503425 8.358361530098584 0.03704548278907168 0.6464429547604157 0.31125492049179293
P 1.9257086675522692 8.579262633601783 1.522555504546624 -1.9192662892034174 -0.8582949132718379 -2.4367748481832487
P 7.294809328108821 7.451483141143622 8.896504672807575 -1.1845007986465084 -1.029951273400981 0.9272958659215836
P 0.3622960515093882 3.340370427451434 5.991291899023521 1.4321574255613656 1.1221399770210996 1.8701484486308437
P 9.129392428429242 1.879243971155398 1.1178399510927537 -0.27644578323240776 -0.6129607638425701 -0.7995963709893649
P 7.873615324176633 5.578575685423592 0.06751765330103979 -0.4040349778390074 0.048079372005730106 -0.9058220123185238
