# total energy = -381169.96564530855 ev
CRYSTAL
PRIMVEC
9.18261083222733 0.00000000000000 0.00000000000000

0.00000000000000 9.18261083222733 0.00000000000000

0.00000000000000 0.00000000000000 13.43967914549300

PRIMCOORD
 96 1
Ni 1.3742971114728673 2.347754887171271 9.90550104178745 2.5257411882113274 0.4902669496550589 -2.2908256630122223
Ni 2.4443559549882634 7.224988533386273 4.753560404620627 -0.4257052637235894 0.04082526154647807 -1.577474890685664
Ni 7.845126985282925 5.464452437643601 4.651338660604892 -1.853162969816441 1.1849833947098818 2.217710431083787
Ni 4.854277118691953 8.464466550021774 5.610111604777351 -0.23381406460481025 -1.2219129207463795 -1.7253081802532801
Ni 1.097707685264157 8.824489179860256 3.0729561829299112 -1.123544056457478 -1.3678736758816312 0.8673040587489838
Ni 2.4684143958324194 6.442565797123679 12.841183617957231 -0.14697299844985012 -0.5794675171811311 -2.442671930393974
Ni 2.416652017573447 4.356175567107832 4.94150090414633 0.8193064478237825 3.1191669673447633 -0.27698365801374875
Ni 8.472547247709889 7.199717987888899 9.710235573459693 0.8475171059300436 -0.4316455404674243 -0.28185204184964363
Ni 0.9593441025772325 5.001768216722041 9.046449416652917 0.3099583131675565 1.1022051857703856 1.0702237477677827
Ni 3.2888990547282293 3.9479166816379183 2.567233982469239 0.07619772750850103 0.13611985778543007 -0.1905089740592719
Ni 0.5236898154224124 7.4978590021362495 6.313034049705422 0.5156121132880669 -2.011045930310575 0.7667978364021052
Ni 2.105324773916858 1.644210779477875 2.7466273076675596 -0.9708256708834183 2.7977875568244595 3.033063036466144
Ni 0.9217137626614497 1.6939805311478466 7.495228184082107 0.8601155114203445 0.8846230096434055 -1.6753195070399793
Ni 7.554892199114514 1.6981494365460326 7.787998289150164 -0.44817490558101525 -3.274012169453839 0.7361973379074288
Ni 2.2415947212936804 5.904878009478812 6.874503881603068 -2.4641918067436204 -1.8418472876933052 0.7773455300109644
Ni 0.06115251627700038 4.21625094054934 3.606107760736224 1.944436874931774 -0.9886143623254071 -0.9230507174919845
Ni 2.8257281554231812 8.99546939685193 1.7516473282857472 2.6173935597120015 0.8309900548092979 -1.1205214675810702
Ni 3.8801765602229037 2.666960811073771 4.345599035747413 0.4373868138265758 -1.121564564133604 0.07329675181162215
Ni 5.586773998897418 1.7056699949625833 9.500388118849294 -0.6978074252753208 0.6283642428818339 -0.7337049105028783
Ni 8.90979563613591 1.755228546579343 3.9342373460174835 -0.9094009879190339 0.8725856188628972 -0.8807123617350897
Ni 7.015882115484319 9.193721968540986 10.054344738419196 1.9267096328553397 -0.8174753081523147 -1.1864769485362725
Ni 0.9178460469043662 7.7308953043282305 0.6695822208757961 -3.9188163030592507 -1.9894671756985347 1.344523688301781
Ni 8.053535524748177 6.971741304362999 2.00678617517692 0.997449958339166 -1.1526340318448989 0.8835151212912075
Ni 0.2543886275717197 3.6784621441833716 11.25964232209508 -2.4072213028958473 1.4645988339195228 -0.31772433026622054
P 7.700041731337252 0.16222459739438214 5.851918218744237 0.06020829405878019 1.3578255476170098 -0.3017053291301449
Ni 0.7659702521173749 0.2907591132570376 5.353978281113879 0.299871875465832 0.266322835865793 0.3209073559798925
P 1.9673468608923208 8.88128362895228 7.219809540777073 1.1751741219289438 0.21780303388853456 -0.5963604362817277
Ni 3.6341927765079225 1.0857886561741896 6.461125690495514 -0.9986365224480994 0.23756273301396502 1.20716198768945
P 3.3726536497433233 3.105412121541999 10.155303873421166 1.188374679779618 0.30848121440139775 0.5173491505838316
P 4.362226907762908 7.634174862568118 3.0986528015781123 -1.4325268930856425 0.4531975556065872 0.3738828797356593
P 0.04667337523766255 2.728438391780497 1.8294222070116373 0.3302024081285732 0.31682084461534465 1.471265447306421
Ni 6.576953309243611 6.764857078325276 8.307845181865218 -1.4196500371229743 -0.04775772700025323 1.113430879282876
Ni 4.797390843489835 5.446500433120576 12.46800414306474 -1.1224737062114347 0.8689179402033228 0.3530615721149339
Ni 8.691405598503634 7.682457031254596 4.253457043836497 -0.3373981545460641 -0.2914252873603755 0.18843949312475286
Ni 2.059595371090943 8.810485698071195 12.775113813484793 1.876215994981162 1.851772260116501 -1.6169631785882734
Ni 4.280997530775349 8.013471792914952 13.448146859577854 0.6763009186621126 -0.16190056629395988 -0.5663181242833667
Ni 3.162381040243199 8.182376739818542 10.61195787369297 -0.1442309169283387 -0.76008520026862 0.636811859428555
Ni 2.9645692338825853 1.308448607925752 11.37133960241123 1.3642939289501728 0.6748024797397153 -0.20633000025192852
Ni 8.351033756224883 8.481307458612683 7.813587471249558 -1.5027316362355023 0.40028708076080094 -0.38545310107176195
Ni 1.179166627526946 4.718659136696785 1.288802411671526 -1.0524725944319488 -0.24747047904598024 -0.05845762991626061
Ni 2.294587569427888 3.9431600891351426 12.368725425877457 0.552994410591267 -0.0897834366127357 -1.1760364699292392
Ni 4.883670656532464 5.521751930341132 3.7792109973932284 -0.6251192535819751 -1.0336413206580586 0.6803036120636025
Ni 3.1562837865330766 0.38151636742776274 4.437083552710068 -0.380066639948868 -0.6555420888482065 -2.024687946574042
Ni 5.382001773391815 3.9612681980453237 10.144296677604414 -0.24037937652715374 0.876704011906645 -0.7278913891448948
Ni 1.5397585792479995 2.4497002345956296 5.269711296404471 0.15218925254346694 -1.5312366856537307 -0.30525679392682914
Ni 6.162376787399355 3.262912265572137 4.373513254954339 -0.09396302191172205 0.49164943182488224 0.8970308963894552
Ni 4.512509519539799 5.248808000703082 8.00656830595822 0.7936666357684912 0.16348333740004745 0.4539894553802633
Ni 5.5664253329009865 3.7763304123196364 0.9113594504874534 -0.6528041210917531 1.4188059439551244 -0.06181986152027418
Ni 0.8986002124901424 0.11651539631268766 9.032458790519268 -0.13087660710861976 -0.7708293261590015 3.252999057537281
Ni 4.93104374672903 3.1249343525476 12.246101756721437 -1.820496075711039 -1.6804223754841832 -0.014728564459426247
Ni 3.5925129051370743 0.5750316300971624 8.821254146001708 -1.2024468416019678 0.671246901177973 0.7332773360471565
Ni 5.712052360896204 8.926801831724983 1.8140211318269737 -0.569761859857593 -1.5484677048200364 -0.2379586829008031
Ni 4.233505066635664 3.280937730983236 6.524735473478581 1.1978818479391047 1.522361751761604 -0.49193199606230764
Ni 0.11728949042076488 5.651410397791317 12.399568897996327 -0.5885213998532832 0.7747376600744721 0.4328943252728609
Ni 6.074710400094332 1.801600732175903 6.172361040349679 -0.3620840873285183 0.3007586489461595 -1.7626637380836032
Ni 6.440288509593392 3.729893948446012 8.039065566319849 -0.22835047038707768 -0.3192939887461856 -0.25150942500204426
P 3.221406863810464 4.802468827377934 0.656119594875179 2.2045011314823646 -0.023489855591824062 -0.8236174164943106
Ni 6.3698946135967125 7.387171809031114 3.6625679627875134 0.4600418322219303 0.2982549086876992 0.5305468802210282
P 6.395762028809686 5.111390226950108 6.4697408161443635 -0.17480801838424734 0.8292679299118685 -0.9400161417017294
Ni 6.807289923798881 7.519915633780395 13.68979185959098 -0.2268828847026157 0.9398065967940846 -1.3430581594998483
P 8.091156682052953 0.23009970319123232 0.011447961145194361 -0.3310644990185524 -0.5186516714453391 -0.3335795521309223
P 4.164966058062848 1.0411703492803903 -0.23702247363108317 -0.45698247657031627 0.16055433667871058 1.2057869617187944
P 8.728815555755196 1.5052044140203054 10.158825404743201 -2.871852554260674 -0.4909974000631802 0.062450810236053735
Ni 6.864240477278063 4.645335987788164 11.755176415641023 1.3804589687458095 -1.236059901670723 1.4287923657438746
Ni 7.741951167983331 5.091280308839917 9.658048958572095 -0.3645721438576947 -0.9202330455375314 0.1810869094144236
Ni 2.336276623409746 2.3111897301325577 0.6784186474499684 1.4122375467089872 0.6699220117189624 -1.8610161473122722
Ni 8.769457792082003 3.2482200879573857 8.500570739987825 0.770634436539376 1.853439106295963 1.3794883773024245
Ni 4.062396293089862 6.137905129059783 5.903204019491831 3.811682290983209 -0.4146333221801439 -1.4174550863541848
Ni 6.922944909460005 7.3972726811412555 6.136772913122346 0.16967943890843035 -0.8935645351074095 -0.7891916307162732
Ni 6.991428822366766 4.548294154642729 2.752419698692176 0.16961490421908207 2.2415242456739333 -1.6847490278839954
Ni 9.087837280993671 8.244937868624357 11.60777071589332 -0.9441319636423159 1.678850403011373 1.7278916247097402
Ni 2.7040310117179907 6.817464256797097 1.6472070654501834 2.4952592175723867 -2.2978270340307203 1.444724720703415
Ni 8.200787874892027 3.2021233806911025 5.881123513059061 0.03390385183629645 0.4160548851180189 0.086438945620535
Ni 5.226025942789208 6.151945341292881 1.5391525269213908 0.13247917570904927 0.19253988844637163 -0.6875052720183644
Ni 8.594317852303153 5.575727317853326 7.243382221498841 -0.5486088799290617 -0.4749899688913304 -0.1093166215496569
Ni 5.507858639884183 9.337797135275645 7.524393074908491 2.130120916798577 -0.33783472786285046 2.447551884194094
Ni 7.800830069774448 0.17299671836929792 2.6487057803874414 0.43686796520862825 -0.3316219141839192 -0.7921720535008356
Ni 5.648012831717905 0.8309307971798987 3.933726792845371 1.014887179979007 -0.015315547311147818 1.1138497119878492
Ni 6.90805989701406 2.2651940315873755 11.522294381313998 2.0568776439327094 -0.7453599782433035 -0.7498036158369539
Ni 6.726767607859032 2.4155868346963776 2.272300454247411 2.148905910715564 -1.1393164888003862 2.3296356939008844
Ni 6.591480199860197 6.805866619092452 11.503733569681062 0.26133540995353055 1.5625105560663475 -1.162543834759443
Ni 0.7637315315533271 1.6165619377291143 12.009281300532557 -1.3048569658397786 -1.2738499759353028 1.9669980480617415
Ni 8.222559845594889 3.45379120062079 13.554857063854897 -0.1200707747423674 -0.16546437238581824 -0.6445544794884512
Ni 1.9132245516039794 7.226466933758758 8.704705692289387 -0.3742369206409684 -0.42326837214732266 0.4724602604909412
Ni 5.371193840233964 0.27321573492392315 11.533664290265612 -1.1890565363379908 -0.5011802541334529 0.5309328028055373
Ni 3.265364022711599 5.399320177755205 10.118990319924103 -0.3319826399574476 0.5539323490245041 0.5877166445638007
Ni 4.0337649119631145 7.64980366650581 7.726928416372248 -0.3655558479272027 -0.5523475210358875 0.5735424099459477
Ni 0.6583472963060156 0.7769600009732092 1.081676682964261 -0.9975828843726047 0.7148489541386399 -0.5882995136504642
P 1.2335276847015275 6.86333139878815 10.762226711553348 1.1191541549198984 -1.2091746472441047 0.05725435363677881
Ni 6.313237903669827 1.5287027155928987 13.833193022677563 -0.30325956099114226 -1.1591726042943649 -2.909997440761511
P 7.381037824876954 5.406326509955239 0.48302094952367874 -0.6076236679003729 0.12988081885425373 -0.026255334152103172
Ni 4.451472704161515 1.585010486301435 2.1846469225978016 -1.139107972334006 1.7587242938198806 -1.3017492734487324
P 0.9438530378046787 3.930983946936917 6.696185840153927 0.13210970818477247 0.8881814164186252 0.6758052099726167
P 0.9646608343515707 6.4882676521165665 2.7186993145441187 -1.8807015415563415 -0.1834744358099937 1.7911926987612312
P 5.1349436241887565 7.493488079295861 10.110456001252135 0.307911972161489 0.22261793877867467 -0.8799289466018458
Ni 2.7612294956944217 3.720839893990921 8.135938439422715 -1.1562957969672023 -0.5937237699898291 0.4570878917999289
