# total energy = -340887.3076844684 ev
CRYSTAL
PRIMVEC
9.12678831016969 0.00000000000000 0.00000000000000

0.00000000000000 9.12678831016969 0.00000000000000

0.00000000000000 0.00000000000000 13.35797724183392

PRIMCOORD
 96 1
Ni 6.864777561076546 2.082504875974884 11.329434369391196 -1.9257336420953157 0.47816348152330557 -0.6814387541093102
Ni 4.898748754904188 0.557495248564147 5.8587955957228495 -1.0329556074449435 -0.5971788184179652 -0.22404232993002707
Ni 2.7099259242882114 1.5759590093309395 4.716621872901103 0.8409160556737582 0.12112235593533333 0.3394547799647767
Ni 3.3831999560436237 4.089366932131297 4.480826738801183 -0.06455885771799204 1.1899546226722282 -0.27853017656526224
Ni 3.9262164679571887 2.772855128275707 2.3439645382274996 1.1987434246084516 -0.4217689047836607 0.9653607911141052
Ni 5.6048609702632275 4.818734203583177 2.4635446286647102 -1.445086474918208 -1.0316104062709588 0.8391072845997936
Ni 5.041875045974805 5.159692753628843 11.516352815149673 0.40443401304963894 0.9702502579959226 -0.37970951371976536
Ni 5.9437021054684145 7.908471414882212 12.239179830245147 -0.9940949258240042 0.3333820914081355 1.3571236364539787
Ni 1.8411195841603394 6.777543720364076 0.29273899044782126 0.58174088659634 0.6400671331410589 -0.05062810656951281
Ni 3.002768047441625 2.061595404425159 0.08661778251534848 1.4311163858913611 -2.0400106929740414 0.8009168895730013
Ni 8.156208951218192 0.040756584963968195 6.431131001746557 0.19382775401985972 -0.958442209617401 1.4524987082218792
Ni 8.681382592385484 2.454403237698231 1.2578073900821345 1.6823740998939154 -0.032300769015234695 0.054129949075184196
Ni 7.0345449466271495 0.8749295022678589 4.53443201606009 -1.0522800188051684 0.024042385661184402 0.16204197696783063
Ni 0.7023291616893054 7.844611278507955 2.573894798290818 0.37155654559532786 0.002038113475951329 -0.6468574165900149
Ni 7.490190716006661 4.254160218164396 3.9482175033643325 0.736179597295616 -0.5746400138855007 -1.3263493313855996
Ni 8.031792575763872 4.093775170786258 12.265441250339943 -0.12850656421454643 -1.1238991258040514 0.49735933772546603
Ni 8.80767908618954 6.981618702403293 9.642255407527696 -1.167178248207661 3.371650583334619 -0.1343789638349234
Ni 7.146046916912172 0.9516684493378027 0.11589743143663708 -0.42869982757553915 -0.216936057902549 -0.5997342378499672
Ni 2.0057394612194344 6.5833621766312325 9.043216844864883 0.7080758970808645 0.013190273438028897 0.24067222517722422
Ni 0.35419969422914027 4.820386152230275 0.850068131468448 -0.7473919210716677 0.3469896548892411 1.4747621476057697
Ni 6.693805439496016 2.0706217978615094 6.991444602477686 0.016790846305093664 -0.6624647841099687 -0.577981676664224
Ni 3.6666506142364668 4.616210775521896 0.7180728711713112 0.19593580150179804 1.1358123323018696 -0.9000442292944821
Ni 5.790372065295837 5.785854305183609 4.980574973664144 1.458073116985863 0.12332733400645213 -1.9266265862232304
Ni 5.518485047632676 3.08883365927659 8.795706565552731 -0.5217063991112628 -0.6452095965739468 0.8881297372450833
P 0.27856600119877384 5.808634768294963 12.283060514777633 1.2282761439602459 0.8904367881117052 -0.8458456317648918
P 3.854452533083559 6.563392764256374 12.79939942505879 1.0218299298454272 -0.3149675934566898 -0.39742570005260586
P 2.5118289884581033 8.73742107135332 1.4915918927624099 -0.5487618605671583 -0.4344156470133938 -1.7544452068285528
P 6.25882271838738 8.0126263207423 5.791644339557745 0.9902992062269977 -1.2318098681451173 0.17697005903257262
P 4.960427588921229 1.330055957404167 12.655013637229612 0.9184551277015021 0.2560512787364558 -0.07609411205110121
P 4.046233731544653 6.152203579738805 8.02847772632395 -0.15032880229596046 0.38001496077532615 0.5038282332792613
P 4.768856306586561 1.1332732790612527 3.6157368267898757 0.29552285446851684 -0.2669856662607724 -0.5881138800022194
P 0.07036114754181297 6.065170528364655 3.614615144531709 1.8556461412496108 -2.2712479979906113 0.8455648672996792
Ni 0.6578378950325623 0.2244760914914652 4.541765390302868 -1.1503678615185415 -0.7942520759583159 -0.0587273386378795
Ni 1.7808188951472308 6.640203812952351 4.900747521499295 0.3602632320696957 -0.37175169232526944 -1.4021346539470303
Ni 5.977471221458805 5.542023034156788 9.164680704367072 -0.3064924661061431 1.4602138174779498 -1.0434187117597966
Ni 8.969268869597606 2.025827521839663 10.054736032562193 0.9976476761722689 1.5850527030329218 0.16220447068762386
Ni 2.2230391592235366 5.17083656190567 6.839925317065241 1.1238908982739353 0.925223299663271 -0.05025298261828119
Ni 0.7581367329180712 0.03163162221607868 9.171907295189015 0.3400453623609241 -0.932247039279272 0.2063467124224769
Ni 2.261152626352149 1.3294444626010977 11.258477242586094 -0.9685024220668805 0.13839322720063907 -0.05188589023601387
Ni 4.232401955320858 7.034581453779571 1.676225903458079 -0.21399240189319277 0.4505914854423079 -0.4819455742735571
Ni 5.754668070227079 8.002742009224031 8.03187106614158 -0.22620077103392655 -0.29557170542858124 -0.06697363780707175
Ni 5.261219144514543 2.8521121561839613 4.834132007795984 1.1969331108725902 0.15675450331664617 0.13699634685311246
Ni 0.9215226682253012 7.3506512526615095 6.994958415898307 -0.47351544122833295 1.3306585002839149 -0.00683373509238178
Ni 4.848259363104504 4.5950366271171115 6.67622359488956 0.47331592362301717 -0.7561817514491558 1.2797275177620024
Ni 1.143358379917842 8.223144815184007 11.619957375687 1.0288207593409637 -1.375565130988618 0.2253566778660764
Ni 4.936177712924888 0.6045839991157185 10.584206565569561 -0.29787104298571926 -0.5014569048336074 -0.936676021584903
Ni 8.039942797542093 7.601327614767464 4.490951997525437 -0.4533412802733031 0.12354330667200013 0.22528648674977328
Ni 7.256672715539066 6.2538942528104045 7.05556302695533 -0.015489868105483 -0.4157453242974002 -0.6908348506122296
Ni 2.005091459263943 5.564328904286656 2.478786364800913 0.48530343500219647 0.0003548122362574534 0.47279578945348893
Ni 2.5999024936762805 5.367400197334053 11.40238204868211 -1.1458038962969428 0.15857972945084303 -0.31867640976684475
Ni 1.0038189165726903 3.584564282015504 3.7526961471375997 -0.34087454313043875 -0.7747134917047561 -2.0029500406763185
Ni 1.74282407626399 1.2862930084382438 2.622598077658254 -0.7864197243980907 1.246151224468454 -1.6243743834506796
Ni 1.018686454396567 3.4980423307752635 7.848680000645391 0.24257278463404675 -1.1560201747083123 0.6553957930783293
Ni 3.470689346823048 2.5651294309942854 6.858733801993077 1.0494098963462248 0.5042298395930541 -0.09467701725961114
Ni 4.062433780431935 6.860624872488539 5.9966630314870715 -0.8166888076952774 1.7471849257217138 -0.26592817153053555
Ni 0.5005377020340869 0.3199240414988952 0.4187689820391962 1.377162557382725 0.5867761350274023 -0.6096139588575243
P -0.0033413171254274357 5.7231167637463285 7.97966766353568 0.9608970989157968 -1.4108710053787636 -0.6023809314441948
P 8.648626549874807 1.5914928026865187 8.007853010563117 0.6259564047712897 0.16692398765048028 -1.6441757344473233
P 2.158713556655898 3.3609397198542834 10.422721740224707 -0.9008703247402032 -0.07955764511966942 -0.3161168765697846
P 4.014983609071385 6.0011369830163925 3.5778807350858393 -0.4289831631439128 0.47383708623380977 0.8002949397182862
P 6.686859953747722 4.098685382787023 10.469768507550993 0.6543622096074925 -0.8814618383066045 0.25632844365724244
P 6.663449742257088 7.80333081590673 10.226920191603137 -0.4244333389897013 0.9348052869247513 -1.8823370202772356
P 2.2737110867853314 8.619530349394438 5.600665385771125 1.6911824422141648 -0.055275632643853184 1.8371190289797004
P 7.366997330158479 4.0840733950301 1.1644147927560655 -0.45660966661192975 1.242508228399228 0.8347428369835108
Ni 5.617921404042214 3.2195748988880295 0.37444382292597334 -0.58933052601814 -0.9845787588034527 -1.028211407891739
Ni 1.5679548161624068 0.9980142793375856 7.130995930647375 -1.069598455478958 -0.04405919510274348 -1.6383359878370944
Ni 7.019750423108116 0.6846551365229842 9.111275303767677 -0.38723461845221696 -0.26646038988492177 0.556857493091099
Ni 2.848178510510486 1.7141750884007925 8.929086359605474 0.7581594440008169 -0.13042126473875604 1.329679424200097
Ni 6.6059874843447925 2.156450113205731 2.47051749477732 -0.7467604581352559 1.2602526968668424 0.3229256719615019
Ni 4.264756419154894 7.141054563818458 10.05434905674652 0.9729756273468856 -0.07360811240445388 0.4790744233733491
Ni 8.521937604182213 7.373148785341592 0.3257076871213573 -0.8143100230504556 -0.49206235099258483 -0.4902124422680396
Ni 7.910643590451324 3.833479174017095 8.364056947460227 -1.581322032345896 -0.03756844517207723 -0.35780062946181607
Ni 3.5484495814819987 8.765367296532393 12.402200694028156 -0.3332954452316002 -0.9806457422976338 1.1739644178915587
Ni 0.1946926438667524 4.907410076816318 9.991432630262373 1.2969991603582567 -2.6357774615358287 1.9899909094124888
Ni 8.874934387739048 2.213748088932127 5.586799969281233 0.034473865407153526 1.3361956280520602 0.48997101568119483
Ni 4.1712889821663595 3.0939172802513593 11.304134912762722 -0.008349143295643686 -1.165475149473625 -0.016671032897777743
Ni 1.4847002550639388 3.4964360160686936 12.638182014605428 -1.2664791373925286 0.09385632113052868 -1.2969407963164952
Ni 3.3409429271151097 8.567516783981134 7.899920527106159 -0.6342518120108626 -0.5156154557221765 -0.07165021734713467
Ni 5.694549916976081 8.146488921885824 3.582208658005472 -0.34913498336701804 -0.5028987794864566 -0.2326313571506187
Ni 3.1261074618994953 8.57020918647226 3.530833967759553 0.9111135997347662 -0.937985741535262 0.5474446844176314
Ni 3.366297144472218 4.225273933810455 8.897948496625903 0.3065996811079688 0.42202678643073765 0.12369320198630311
Ni 7.4364156804889925 6.203030662698394 11.376534984767305 -0.14041565694730654 -0.6375741915158761 0.44811371332577665
Ni 7.882441815205296 0.1285115652772633 2.21367051123323 0.03757667270219335 -1.3432062550419384 0.07469414637978104
Ni 5.2470634961628955 0.36163711385632086 1.4391886134969998 -1.4061872267498492 0.1767034356347473 -0.1449603388951955
Ni 5.959007729121357 5.691319033986731 0.2792067017237807 0.9645853464006613 1.1104391436444037 0.04609550880648191
Ni 8.188326118561484 8.89786087946009 11.564494797048622 -1.2941876590513903 0.582548727209616 -0.7390569188434111
Ni 0.13085258642632674 4.795743824345395 5.579186402643615 -1.0777174850416664 1.1187936862566863 1.162687816536475
Ni 7.553585386187538 6.064668555018853 2.391986046523454 -0.3928856460904072 1.0528258640063093 -1.3791196811090958
P 8.64699285480392 1.7037888035367215 3.388971736841549 0.9248060096201943 1.8153047613180868 0.08359787662731409
P 2.122361559631649 3.4158738574613516 1.4983511920333512 -2.5515365520078768 0.29717581669090753 1.2693780562068782
P 4.902244314748599 1.0613906959422512 7.976515270924036 0.10198254978208887 0.5265488148052286 1.2712220513941526
P 8.809759993877597 1.9313743917357338 12.142681386926773 1.1403176763713911 -1.1566642360502144 2.6339383514445607
P 6.544472932513651 7.777766682423195 1.229688668607867 -0.2608348161680282 -0.8410592661198418 -0.22480697601019348
P 1.7962888009860711 3.304344506812012 5.737477764830349 -0.5941593148653509 -0.3394604363917315 0.5725666762962397
P 7.062299509256007 3.8443400518626527 5.907324553437471 -0.5677931661669964 1.2123430176697574 1.198710000267355
P 2.6829015047077944 8.525670460517368 10.159930479587498 -0.5076229244350032 1.196390865215875 -0.3055622409823899
