# total energy = -381170.0865554192 ev
CRYSTAL
PRIMVEC
9.30429095240551 0.00000000000000 0.00000000000000

0.00000000000000 9.30429095240551 0.00000000000000

0.00000000000000 0.00000000000000 13.61777030098476

PRIMCOORD
 96 1
Ni 1.2841317326972248 4.896755349789679 12.989528170791065 -0.5453281522952609 0.07189190104429553 0.6460446908807326
Ni 5.963613277306701 6.3525326442359775 1.6999609702732195 -0.6061087739177432 -0.02964199123614895 -0.19009271245745973
Ni 3.1856124825026884 0.8969345900459063 12.398843391045167 1.2330977337186053 0.2658638939515034 0.014799012686045478
Ni 0.7545901017497912 6.925034978363375 10.735950716414203 -0.9002751143583656 -1.3295061318470265 1.3064237961062661
Ni 8.09853869018048 7.8898806585356 1.6054805465535227 -0.6060547807513562 0.30285229825039456 0.23040658158515803
Ni 8.582240870289384 9.238491128381625 10.013200829151701 -0.0020077744586481554 -0.17880634091036304 0.4122303691656061
Ni 2.2111740782322804 8.367097747765326 10.198566498519767 1.3625844024582339 2.892379984790064 0.4581466720817464
Ni 6.854480539142689 7.114926254910255 13.374407614535635 -0.9246275750608012 0.40465924168656764 -1.7567959664489166
Ni 8.101357890376162 8.611698255832401 5.584130322385551 -1.1821089013755641 -0.9456491716177906 -0.8080069636505632
Ni 5.92764288801128 2.964737916676514 6.987700309181687 -1.335298055938455 -1.6414727336938633 -0.04941968808370844
Ni 5.319123643133087 0.8342618157947361 2.4925153708957746 0.15842469193021746 -0.3116997213386955 -0.4000320273272014
Ni 1.0356234223787075 0.40435239453515115 12.437477598875322 -0.990719838704184 1.0272950667250567 -1.757726962903618
Ni 2.1520918299069 7.751581675998835 12.83876609035952 0.7033486668085241 -0.7790555707235357 -0.3181601322520585
Ni 7.968827568305813 5.446620343731936 0.930709166647659 0.5779004298043273 -0.8368192598965654 0.1837153481762062
Ni 2.6041594203612717 6.188265385309269 1.073675181587575 0.5016240265390909 0.01826460263714274 -0.4971240817862083
Ni 1.1455443171371396 1.0693328689429362 3.0511571026089497 -0.3177680390199625 -0.7760085563670958 0.8318655154357157
Ni 2.667037819445196 3.3597515942598255 7.671339608911001 1.0177092228088342 -0.27498899618122313 -0.051534677544182214
Ni 3.632497582828361 3.884829956778647 1.253783926498344 -0.5747842527728487 -0.5311369483965434 1.495916927306514
Ni 0.7179981858105698 2.978210530152916 9.306493400560479 1.3512188409337695 -0.7062301021213773 0.08396734415159086
Ni 7.155679049818156 7.818060835728732 8.128515255165473 -1.1120044312489945 0.5719701803628214 1.0844041530332227
Ni 3.7882793282947933 5.824867688798343 6.9340871231501096 -0.3835908510520426 0.8375589662760672 0.9523317258442888
Ni 1.0744874461984104 3.305972791847117 1.7646862711355042 -1.275111616256546 -0.2976422148043648 -0.8474404870558373
Ni 3.50995076508134 4.1655869399626395 12.708211999713471 0.8289995067418303 0.749477857066419 -2.0491923594733095
Ni 1.154560175188682 9.05811814160433 5.353199678765665 0.7807725534146425 0.14234064188416132 0.4680706160636778
P 5.201191753759198 3.430845682362854 8.887025254745105 0.07343687693391224 0.6443621609719871 1.5739694486355666
Ni 7.1374705521846495 6.352272124085881 5.057040372136345 -0.03417124656507019 0.43297197258833175 0.22838877982418088
P 7.972046853017715 6.262504323795603 7.0557621288234165 0.9598681434306501 -1.4980427154002653 0.13776716358086596
Ni 6.73379457961064 1.6473526476777287 9.442875699135818 -0.25996886862330715 0.6305795053655978 -2.1607406985669626
P 5.4439220993202255 9.113860149433835 9.295666927465767 0.5011817967953498 -0.3258261334377486 1.1519267213652291
P 2.016360831706798 2.5171829073934515 0.05432868601523288 0.08302837727708927 0.16724100467026679 -1.1918351275243926
P 4.43294574399883 7.2664466350644 4.4168828158871865 -0.39019498663212154 0.495735686079114 -0.4397964517093329
Ni 4.339186402837435 8.075240745329022 1.7200331174090215 -0.5611880021456529 0.7817508581675118 0.1936655174103826
Ni 0.09295545041252687 1.2092694067088767 0.8542846501878414 -0.21147169235386806 -0.2640636075179711 0.2738739087401735
Ni 3.022461738504965 1.1644785494744858 1.435231558894786 0.34708324304431193 -0.6016011158553768 -0.4972444094141565
Ni 8.809805221398385 2.155357636074177 11.040008435736976 -1.283591628703099 -0.49068989612509034 0.4433003510975333
Ni 6.376584236664498 3.4632990496319764 11.140235189624507 0.2904112442735644 -0.04276695865388118 -0.03232982248095722
Ni 5.52272014043324 5.735546494479658 11.816316613713713 0.18649213959039496 -0.556109559181481 -1.256862440238371
Ni 4.949091987085783 6.87925786627505 9.575961487383339 -0.6948712254651322 -1.552183977329359 0.07679473766255161
Ni 1.88949682290104 4.597259524380911 3.3059178965297753 0.50890024848553 1.4195217390752262 1.7977898923627746
Ni 0.708229610611071 6.055176805774428 2.025262246978119 -3.03382639699473 -0.6774378604800333 0.5701513819865278
Ni 2.1679091247341673 4.82696386243713 5.787389073919687 -1.0929695261047305 -0.2965055300967603 -1.165541483935186
Ni 6.741954442883295 7.626308700966879 10.665329286297776 1.6668924593185483 0.40157288945175995 0.852174659306713
Ni 9.07963896686049 7.890745957605563 13.128947389973241 0.2846751131207355 -0.22235594336653963 -0.47086283409683427
Ni 2.976312454773644 2.6220701806803826 3.3392133021411725 0.7634787993312012 -0.5072593704479974 0.5062800372538636
Ni 6.930143034163475 3.9204653915953727 5.320449504611255 1.7641616627853682 0.6941531163521851 -0.701512899151366
Ni 4.624604835849934 8.252031580042495 11.584596035781571 -0.640637146711916 0.5422114610431501 0.31679539069404794
Ni 6.300605395747166 7.929730937209238 3.4270476707460946 0.5535073456719435 -0.35367298044668766 -0.5503816555587682
Ni 9.184963541827939 3.1745403761236015 4.008241143166523 -0.052191594401890765 -0.8186297334717321 -0.5520413026493783
Ni 1.8075725399868707 2.239059038583645 5.707956480155366 -1.8058425874639221 -0.5715037822493642 -0.7445865904123886
Ni 1.7021270092354477 0.5829408182842876 8.067167411963363 -0.18891823253338433 0.23261181676659295 -0.4674594648422401
Ni 4.9067946798594555 5.0528534411526556 4.99058633399235 0.3284707701494472 0.22388163598244668 -0.028706623906073144
Ni 9.10503037720379 4.135524775499757 6.251209844859826 -0.15312436276322663 -0.031016502986172388 -0.29786230123497087
Ni 3.9044434023644583 8.096659223383355 8.012382815685461 0.47376123869055176 2.3958102328454287 -1.472319085381916
Ni 2.5654070480344666 6.5648100451089775 8.869430840322536 -1.1146464968575318 -1.929040852091678 0.6276114238762094
Ni 8.21702883701886 5.993842919008932 9.62818554275744 -0.8619265964871543 -0.10484264493870331 -1.4547329968690366
Ni 4.317051494370335 6.770714006595696 13.432595720488722 0.8720649704727368 -0.4906397596134453 -0.291216256673363
P 2.01994298377062 7.725343575167722 7.026891844047224 0.19827576248888434 0.7883310824881907 -0.0761200801930302
Ni 6.3529327287521955 0.754337025032555 11.393089534304094 0.1752314790749111 -0.8984115787870657 1.5040197589193065
P 5.058603493036921 0.20404496412996181 13.477166996453745 -2.1553300690743527 -4.5042354098381265 0.9187682880665468
Ni 7.89602149064501 0.861280546647031 2.9321235851717966 0.07545365025362488 -0.4145484757758216 0.3512484301655951
P 2.280453829575711 1.284578338668818 10.116791084262797 0.29560615821094255 -0.08830608073626083 -0.11185147215636866
P 5.275235302132958 2.953358768691957 2.2432962127391374 0.7931349316347373 1.0661884013561442 -1.1801168106461997
P 1.2196529955484239 8.052352189284859 1.6384493715481925 0.06723434766762615 1.3897542780048064 -0.4061584519399134
Ni 5.741743152335516 4.268427269213101 0.08937050706138212 1.1904768137242852 0.7084623338860057 0.7146301532596144
Ni 5.802965387608116 0.4224445885302223 7.2622476085023155 1.3450340522792965 -0.15016348036268976 -0.17944166050151678
Ni 9.202930127893499 8.041354517234371 3.5585954596789384 0.5712430723888097 -0.17621312626189006 0.8179231943230106
Ni 2.2169706515719203 7.162545616631405 3.757006675563071 0.01596037998399832 0.4136308490575586 0.08501481157949875
Ni 5.401978355154743 2.3870437881293416 4.269539131996548 -0.32732482947046204 1.5690126188509235 0.8240002537550261
Ni 4.158999501881637 2.503217166490082 10.76236932049217 1.180142778788129 -0.8222202790364678 0.42069315522097867
Ni 7.503761883219858 2.927316057973415 1.6081359912262885 -0.32884152322530463 0.9031087271524187 0.402104593585514
Ni 7.707423510557535 1.634428987374744 5.146318766716084 0.8441841849020687 0.9198239830245707 1.2753610132631905
Ni 0.62847508837556 6.61360174750556 5.896630755429654 -0.6212492291036076 0.795647927864578 0.6959577736610917
Ni 1.029398851649624 4.898355687854555 8.037030813171882 -0.7938946926188972 1.7021407409978813 0.7990057885932175
Ni 6.916921636546094 5.018725301490058 3.236345060017487 -0.3753422378900052 -1.2826896857141201 -1.2004789192423198
Ni 5.5584207052874905 7.37448806302571 6.304823030891401 -0.6380264485619463 0.8544254030141027 -0.02343329132227577
Ni 3.968652315072088 1.3226701063293076 6.175073761423329 -0.3061556515920147 0.13711950269453804 -0.8293481483305007
Ni 5.302310789160809 2.0858731903270997 13.078629783840384 -0.48458943965430734 3.7991839014058835 -0.8691956193447418
Ni 8.38862787731256 0.44295496777565047 7.459256667721466 0.1269235359981427 1.6261774980976897 1.044295972158427
Ni 3.905243571396897 5.730177918529462 2.8716066151626722 1.0477715894118538 0.039676749764331665 0.253944259695782
Ni 1.9139112826814806 2.9281255312969283 11.442740022766886 -0.9749965144316564 -0.12080019670922423 0.6540305372996865
Ni 5.933346418440172 0.3146692632936536 4.854912091967804 -0.6994801849920534 -1.4192489450298138 0.7282001786345653
Ni 9.006721237706786 5.4949003101194 4.199761601080612 1.0330854481545886 -0.5546414592763868 -1.4655701966938566
Ni 6.868809147397979 0.8370447292552277 0.7325817316413101 1.5081150120346027 -1.2186157380523464 0.1525504925376276
Ni 0.0010672021862867926 4.416402714467723 11.014488626176842 -0.23736912894592022 0.7579771527866817 -0.05532911158960794
Ni 5.913667842816836 5.391417984784773 7.739482375885083 1.0246463162483 -0.5427148830421298 0.5293037518425464
Ni 3.4740734186966677 0.2550780702464782 3.9327303080902567 -0.432206555177217 -0.8545575577165928 0.20474671492520868
Ni 3.9854186475889914 1.530081362970155 8.499368480114688 0.5760057838847757 -0.4670437174610602 0.9217757074343029
Ni 8.263894551162945 3.6288503007270148 13.00546083882766 -0.3240908959141967 -0.07436453095450418 0.01623368825004301
P 0.26365569618839446 2.2612311642150438 7.382165964020687 -0.3389991804845968 0.17495225727159547 -1.0338711772806777
Ni 7.770041389491364 3.538663807338367 8.366880957783282 0.7124609135224376 0.48182396109402836 0.14011175255364255
P 3.273435685958321 6.369578105485126 11.19337199595305 -0.03227737197646699 0.1613071556843351 0.10368744828833755
Ni 0.24382266933321636 7.825485660006472 8.363122024189037 0.7125244197705213 -1.287140779506938 -0.2184887471016495
P 3.624895977020198 3.340138148674014 5.317303723798844 0.6314433960277899 -0.43376772901674976 0.40161222733012775
P 8.184473122547914 0.8294263757231298 12.621399242268572 0.5374932296318743 -0.2564526279399325 -0.23397887231744866
P 8.27679960288378 6.209404734631359 11.88558985205339 -0.44640418683383765 -0.3293074071181296 0.017398397982105518
Ni 3.3515917309871703 4.45160084760393 9.953964129594478 -0.18363512975757407 1.2325881410720383 -0.5104881617979401
