# total energy = -340861.1942793976 ev
CRYSTAL
PRIMVEC
9.34788981214875 0.00000000000000 0.00000000000000

0.00000000000000 9.34788981214875 0.00000000000000

0.00000000000000 0.00000000000000 13.68158163926627

PRIMCOORD
 96 1
Ni 5.192313535871146 9.061984769866267 2.583780161595355 -0.4604912610545231 -1.1134275368487663 0.5707306515287655
Ni 0.4607761931435433 7.465084723718586 9.862915722942141 -0.26570602821740047 -0.8173662933782762 -0.09243244419980855
Ni 1.8071247440216798 8.583531716760977 4.919322430692468 1.671166146993238 -0.31294002150369976 -0.5093913291893356
Ni 5.905436019161366 2.4160743413183985 6.94917654502116 0.3584459763552988 0.13163971052688941 -0.7851891944250994
Ni 4.393321335178173 1.84494630690123 1.7070649296216052 -0.9978893598694298 0.8321236541931087 0.5254702370290693
Ni 2.2784266612884 5.851302388257887 3.5989815793307622 -0.01338799127113178 0.6016525379186025 -0.41456827327016343
Ni 4.5481036975507845 4.908726597394403 3.5019373942398677 2.0509977881131647 0.2902592920767324 0.5709242555968103
Ni 8.634038366350252 3.2963090538715227 8.483826187391335 0.5809502723742446 -0.9142387756273095 -0.6209931472287434
Ni 2.465646201909168 5.66498959296567 6.015504619368444 1.599473506443942 0.08401542378070692 0.6029540303388454
Ni 6.888002083380934 5.304824739731321 11.562756603183294 -1.4470363995557274 0.5862200054136163 0.5774047211148314
Ni 2.663391466653112 1.2446902472906165 3.6831368937102575 0.3307348835932756 0.008986776879642588 -1.8870241413402598
Ni 9.134225263670805 4.586878745208811 2.7775114423797147 -2.251926414843864 0.32570452025821967 0.5405654407992948
Ni 2.070847416280173 3.7555895846174567 12.965460778414357 -1.7178684361457834 0.2323595915464708 -0.1443201342080353
Ni 3.849489139517377 8.167401046186077 0.23357479226767836 2.147061144197341 2.0591998643079825 -2.3941546995198766
Ni 7.084120815267479 6.013609802068472 5.051828771230682 0.0674498061125419 -0.10572273355081147 -1.4122298333995031
Ni 3.000298769604635 5.726610883747181 13.40758045272572 1.1650025807125808 1.6155074199783532 0.352665879338412
Ni 2.944856434103248 2.467506432016194 11.333083620195378 0.3184419251585354 -0.8348893898637041 -1.8166718168689422
Ni 8.297804111477653 7.17185076277726 12.60069582851836 -0.17919149216392366 0.15131430613768135 -1.6300503507895345
Ni 7.021695605947253 3.764498123773218 3.7682223231432657 0.6194949654166622 -0.4828719427425684 -0.8956363300347735
Ni 2.8609123820374154 7.6785157478574595 10.059820612376429 -0.35452555825497006 -1.109129680804361 0.8715276099120282
Ni 6.428282201805702 7.595459745340208 6.495357986393495 -1.135545194683412 1.2385348455737766 1.3371387086916195
Ni 0.4611332825409725 5.133814440344645 5.030539886578708 -0.24601831998048598 -3.401227011440155 -3.101094683224085
Ni 0.6267545233512608 0.036474531932702906 3.128197535169215 -0.24804820592632118 -0.8915454477948517 -0.33732950609165774
Ni 4.016162017950984 8.582737146112247 5.135340950779205 1.0772238332346997 -0.48215229096772444 -1.3550132749791952
P 5.310947607671534 1.3614547410939923 10.573919974361747 -1.237754001543694 0.1201929021425285 0.6737321294936719
P 4.4828086860051455 4.367306157349752 10.338788758411555 -0.10925311530157314 0.27115522425742977 -0.6117945114486109
P 3.541896819559001 9.040615493360422 11.82523787565177 1.2024452989400711 -1.8693622052841223 -1.5038670353915262
P 2.981874078444083 8.494100453273914 2.912193036917454 -0.9558605649331537 -0.1422082300713551 -0.2964703059834507
P 6.369708323159321 1.5810086331730804 2.756401102426455 1.1893411574579453 -0.059341832293426836 -0.7115548567684005
P 4.008347181923475 7.176019921710596 7.441959913473546 0.2916014079269236 0.10156577395964443 0.4278253953903858
P 6.779501124324351 7.537203694953318 10.962353781699914 -0.3284121489973699 -0.7042408396054903 0.6408904003733027
P 9.160240441499225 8.729087711718336 0.1115810888066604 0.7412963496968912 1.1260148865954738 -0.5426480343599364
Ni 1.899519288634006 7.668672419703192 0.8344945520672308 -3.1647325717897044 -0.00474291400162409 1.502007356474968
Ni 8.03561449317671 4.220123629534994 6.045973131985746 -0.6838363078072094 -1.8218453906500818 1.1961345262306948
Ni 8.371540267679801 2.0505624950125942 2.2671886279483617 0.581123050506683 0.4588257004266421 0.3308683238473463
Ni 4.412437770197618 1.2547953163644656 13.053364596677861 1.0863638478627546 -0.2443825841492759 -0.8901351977108863
Ni 6.163531261648853 7.698202404165994 0.454973957829817 0.3340894018878053 -1.1708423273228092 -0.12022966891773487
Ni 4.542308005760048 2.433872723849951 8.816369895297832 0.12624707875640837 -0.39622396643502084 2.0508522636742357
Ni 6.883262703158509 1.1538381045258252 9.081970558654323 -0.21113462072942346 0.8167386870966064 1.0589533170602858
Ni 6.466215939365073 0.6459906113625159 0.7551907925899817 0.15606467633847315 0.9109868443489149 -0.0661097471448797
Ni 6.584120875746627 0.23992481393452916 11.922390496266493 -1.470255517984668 -0.13601701365897864 0.9561076479469532
Ni 6.453568244215289 6.438116182069985 2.7284219329121746 -0.013878300643989 0.041222496984896745 -0.43319205901893787
Ni 1.6020320377494788 4.493661586277799 1.658358683643452 2.873989140987702 -1.2754008653621907 -0.3295053820615486
Ni 2.347797352867525 3.3724289220198607 4.852939324752567 0.8032820473710682 0.04346707004469934 -0.6334365151984188
Ni 8.317462724116234 6.367735918372474 7.302380024583636 -0.9139698382366388 -0.05575000117711044 0.9540857324209182
Ni 6.403678555365026 2.8794492478777878 12.650688344158457 1.3308521043519597 -0.4366741040302673 -0.394708815342075
Ni 7.672822882856559 8.745689564331801 3.355530741293869 1.1230354922521755 -0.9776645481821227 -2.3146129952398073
Ni 3.5089361594716815 3.657726524363871 7.402119206357224 -0.8386791959234394 0.7736248866262676 -1.6687002019512487
Ni 7.251550872789876 7.9506889126624465 8.941857840035265 2.0389735099587787 -0.0074477145272968505 -0.7173539799486807
Ni 0.7675197246912764 1.1337027494980074 5.255669795033884 -0.09768700773052853 0.8446102166958938 0.19628778552457807
Ni 1.178703491886083 3.2308364324161674 6.719284821407594 -1.5036793448607522 0.4544311709033722 1.3714325968774832
Ni 4.425309814707045 0.21601010698575193 7.206855806404312 1.1751805496868468 -0.433778270539711 1.133689372421596
Ni 0.9844262943265955 1.3867875229535034 10.851286826842433 -0.49618871445613255 1.413980497542023 -0.6895703820775091
Ni 5.810723197832745 5.94866066245228 9.434544925220804 -0.1369364401494545 -0.3585025406248471 -0.614108247183452
Ni 8.299262382315323 1.6264019869405284 13.21390432449227 1.5150914433524358 -0.41734866422877803 0.2590111326957281
Ni 6.976947256588773 0.8020199822591347 4.9138361540602356 -0.5969821290261267 0.45674876329295533 1.3439585598269306
P 1.6526882535785152 6.485893247783623 11.767036043026794 -0.4508462817655913 0.2874457338873372 0.1406326580541191
P 3.617904513027518 1.3203520688296868 5.512131026351984 -0.5295675470268945 0.7107580718987179 2.1012358583331103
P 2.673262838477335 2.0482629140762696 0.28551447339166336 -0.5960007389494638 -0.6026295571198912 0.5135012375926512
P 6.820229880989255 4.413652995895676 7.9192687848446655 0.18203101849524778 0.42870882643660363 0.23639956594379932
P 5.732359836087993 3.991137716460981 5.399668431519732 -0.5960552463364831 1.586059032810249 0.7114085609985231
P 8.909847860359426 3.5560869165563207 0.6537979690780373 0.2136699855567675 0.22203224147853373 -0.23181786011038785
P 3.1110432222576323 3.6485562442885273 2.881943264925802 -0.3029399728681944 -1.6592606538049037 -1.1209498133677402
P 1.7147021557393987 8.669373390493776 8.471813213971535 -1.2494643480020868 0.4912236571413734 -0.4890487609772417
Ni 2.246241876069841 1.2483452722747748 7.295293389185963 -0.5022986840086123 -0.5798058743571562 0.3412530095157801
Ni 5.0747451235290555 2.2209932252201954 4.226240888741216 -1.4883735677416174 1.1317147651937285 0.35287259603257937
Ni 9.095309997663003 8.871829991790191 6.731694145362761 -0.32344760590324295 0.3612968155405326 1.344685410690626
Ni 1.4806496862934837 4.77593047226665 10.585645032770007 0.18143169434835205 -0.9914420615821893 -0.1818721243198803
Ni 7.433619726028876 5.13516988439248 0.05786624337451262 -0.004663209803624228 -0.20410933845152593 1.0548524075180348
Ni 0.5773079244862911 5.652397985155795 0.20105535258765403 -0.748994232561781 0.2662577869558124 -2.782181474856086
Ni 8.22154402497954 4.944351406127463 9.836058300226068 1.6730039715329252 2.503341994580521 -0.08290933520072172
Ni 9.24293187630706 0.9480256107247745 8.871219574574166 1.0335418189657168 -0.665408697229641 -1.4828647221082463
Ni 4.414064303055019 3.7560569791167095 12.356246635831061 0.28137844464733475 2.334933194854398 1.57730314099449
Ni 8.502335944350751 7.059834997086295 1.2362509722121051 -0.26942384338861985 0.663389095696451 2.1818836511931647
Ni 0.8415204261800013 0.986566961133174 1.0931282330178576 0.5837635734533236 0.4567104538558522 -0.5892737046382754
Ni 4.538288413066472 6.317229268783198 5.480992270022752 1.276467358953492 -0.74282589896754 -0.2976990361842292
Ni 4.630841871808545 6.885954895474206 11.735281260747549 0.6239637998212931 0.14410287599090665 0.026120608346451787
Ni 2.369045106803565 5.390133583734971 8.576313276114513 0.8273195479362462 0.8344610440770337 -0.2523378344406106
Ni 3.316023753850013 0.5816416062833646 9.44572313206494 -0.9905486032336422 0.34374672247191124 1.3433350673103186
Ni 0.5571276995865451 7.107303582430426 5.616385238988355 -1.816919414103374 1.0859252176634395 0.3539933399005839
Ni 5.936209272992182 3.7130753809654067 1.422925530846744 0.1350713619162577 0.4540681311369987 0.05705920690683721
Ni 8.568453570215075 -0.12172261465145125 10.919475945127447 0.43204457567805593 -1.7267909354463937 0.17561303078404594
Ni 4.030296027608395 6.851031178490024 1.9870174084721584 0.472359987467651 -1.6951622527975192 0.8589896253460175
Ni 5.012908831277888 8.292176681706648 9.346558845525433 0.031034757818617517 -0.31553272193154047 0.016685945296113197
Ni 1.7800532546249481 0.2904239852118165 12.61667604644782 -0.9838272253494089 0.06775705294031556 1.7449750625545883
Ni 9.134019610091134 4.086121626599168 11.995819106888131 -1.3361416348856732 -1.0225459820758453 0.718644159515014
Ni 8.385767756237062 1.8885542136815314 6.583673111816342 -0.34324895689988627 -0.559284871585669 0.24716091822536143
Ni 6.506430562080799 3.406371110555611 9.859536460712544 -0.29286407668943115 -0.35570929415042607 1.0645459806567148
P 8.105976061094252 1.9476235304971212 11.013194150961656 0.18964765450024113 1.489308677961377 -0.24309034770041363
P 9.143040323926716 6.87389611739348 3.3373752693648866 0.0001344686953352523 -0.12525566137741653 0.942356359799132
P 9.424823119636343 2.880748604585711 4.383661225667612 -1.155657649162571 1.492312497784707 -0.3149645081328963
P 5.243736278678957 5.6343472095946465 0.3220422882972811 -0.21941100180560277 -0.25960042954029483 0.09870182214828808
P 0.7516731815886037 5.341365641682917 7.144782077747523 -0.3955048288808092 -0.40982664482012005 1.8610603702866464
P 6.966234574665895 0.12941873247615057 7.331959552863359 0.509630184673019 0.6271118585319716 -2.0768232338167008
P 6.021368550756071 7.976105825531823 4.396522052709057 -0.35001995707513267 -1.1668702300489386 -0.03655363075431769
P 2.1111835615657037 2.661419061866265 9.106146071733683 -0.17881971064680172 0.08559742355584612 0.005995298351486449
