# total energy = -340858.9929637506 ev
CRYSTAL
PRIMVEC
9.34725414561668 0.00000000000000 0.00000000000000
0.00000000000000 9.34725414561668 0.00000000000000
0.00000000000000 0.00000000000000 13.68065127703877
PRIMCOORD
 96 1
Ni 3.114682601987448 6.488844972629059 0.16529496876536343 2.306723050968769 -0.40079975873116136 -0.17708884399862404
Ni 4.636480969972979 6.345430055825716 7.021854367295601 0.2607592257350864 -0.967388105956779 0.27392481658276696
Ni 0.7372599788441205 3.946036712357402 9.483974327604964 -0.727593912509134 -0.26897518588697544 -0.649778704001868
Ni 6.827626843490065 8.706518352754232 8.734617132745273 0.2892133673107212 -0.419570097360129 0.7448416438459882
Ni 4.778503145943128 9.127247598679757 0.1547783733866603 0.9887886831197423 2.057117784967973 -0.9611336404066351
Ni 0.7715298158692199 3.0604217930163595 1.4770586718512984 0.9174714236319942 0.05015733758068136 -0.7327777707029186
Ni 6.877120552964985 5.569636022720904 11.793336790823883 1.7881811656284172 1.541666879848119 1.4468517943487467
Ni 7.906225167140684 0.6339083270418073 7.0848258821891985 0.18990270793384068 0.06478845723029487 -2.2296879151606372
Ni 3.0242385731150536 3.273455056971584 8.82681096755038 0.3407881540642196 -0.5374387222448551 -0.33879991998959713
Ni 8.504178347276687 3.6665538203271617 5.5115241451372246 0.23508778911091127 0.31787936778684606 0.6553250877413941
Ni 0.8895071158708547 5.841042887369401 10.564444906214566 -0.7192763937823742 2.356565428412193 -0.8751757481875766
Ni 4.451854010662567 7.822436383055096 4.231616818115781 -0.530212636810061 -0.6722563162790939 -0.02070663641973208
Ni 3.013134035465156 5.682345210416578 4.911859482809557 -0.0009482228458822379 0.6771599242282983 -0.45717633774867716
Ni 0.6455092038745408 2.7027865110107068 7.534892419249375 -0.13843102241711 -1.0592687914181758 -1.3769141888173448
Ni 9.220439720202883 2.0814184598199956 3.3406646167898133 0.3616431431363578 0.37357614712851794 0.3843755517368671
Ni 5.567663752145039 0.4064400988671079 4.89270695953966 -0.6887774538625686 1.0392195860767843 1.983329438231913
Ni 5.878151485408199 1.762088224354139 12.516016923012861 0.16401195621000786 0.3267023653951147 0.96505431561728
Ni 6.617154727107291 1.0973302204943851 10.301598256700563 -0.5752516793275706 -1.5596843994714622 0.30208456684643453
Ni 1.258841420875339 7.238943404724134 3.5941939236022886 -0.5728829219850778 -0.835881064353012 0.906335975840465
Ni 2.4526446490166847 7.235830769170755 8.891889353476204 1.0063287488860346 -2.5717634205777133 -2.185207059139443
Ni 3.7697101145226712 1.1863815085335858 7.3785773573192435 0.7517658817696472 0.9901446829270045 -0.9517946223938961
Ni 4.7116983222193785 5.661603653981291 11.194794733691294 -2.467927876747285 1.0406185233068401 0.7605623970153547
Ni 5.444999739030897 2.5883013450713626 2.4842009782305334 1.12775115256029 0.4142497135884802 -0.1549614159719654
Ni 5.731829572637585 4.275695663398289 13.36818456367324 -0.5004132940604414 -0.22443982247876185 0.17386776595816508
P 1.4369346496998265 0.838943145822775 0.9498464440622532 0.8674045888825901 0.7750940149726264 0.2821217505712625
P 3.7222541064010146 3.329473149678515 12.433687245263258 3.044238336356673 0.6647571796885713 -0.04786494200207886
P 8.159900291114218 7.690630755613007 7.425761360352001 1.0582231237624806 0.3752347657778634 -0.7675046326611428
P 1.2097683378265511 1.815105848554658 9.610274422491672 0.788493576207984 -0.278491610017843 -1.1799059801869745
P 8.380037468044124 4.2105920398868975 7.8677013948592975 1.3174399447111118 2.7865680339595555 -2.235939552497304
P 7.145246531489649 8.375990107099339 4.69206628482369 1.257716303598234 -1.4930486046197833 0.12356001884254851
P 4.034611290446986 4.3076913135460995 6.339161787350951 1.6984710054557783 -0.140806464627822 -0.31392989622079487
P 0.8171584358506786 5.609773131027856 5.5789963627904395 0.21179128047681592 0.12571331774012545 -0.2767193486087686
Ni 0.3244908543518061 9.069995668456171 2.218385640873424 -1.2284484078720521 -0.603089013254813 1.1995769762533406
Ni 2.376427140601481 5.331402562213388 7.383488404525688 -0.5721082486025825 -0.6128697467906606 -0.03686422001620103
Ni 7.804564433571422 5.8844702290541 4.135182134209868 0.4135112927605588 0.14344570202288198 1.27471952302445
Ni 5.655322299351045 5.558241720199671 4.809651934886325 -1.147439889238469 -0.3576162813651519 -0.10428188733922686
Ni 6.136135693436114 5.4110598600689634 2.1549897606521298 0.8171935152458378 -0.7936527518114203 -0.2227143551472229
Ni 0.2874757288521488 6.147343050879066 8.350902077594014 -2.3675239843062257 -1.604685903882817 1.14462658815939
Ni 8.802991360401192 1.375897081641048 13.614464140349975 -0.3963640915573109 1.726962685137568 0.7943024695802772
Ni 2.4620573337081377 4.414072410341957 11.042487774239511 1.8411808577539 -1.1961391542163853 0.2665251816845861
Ni 3.626192377926273 1.5911736865356456 1.519058687863321 -1.0297445567068135 0.09572139936372547 -0.90390294091894
Ni 2.8031947125554844 8.615728475487018 1.941257322104134 -0.8974062774510028 1.8183348063936617 1.1574245112550066
Ni 8.382280808983499 0.24296223626263672 11.573529571957144 0.8071921810587517 -0.6970571773728577 -0.26659974367626343
Ni 9.359218399064856 6.758765623905222 12.333107054246462 -1.3826192096219223 0.4928007718205062 1.1445222013710417
Ni 1.3779628247560542 6.982809952971204 1.285252086809501 -3.317885216687705 0.7456173456697481 -0.32610381257916743
Ni 6.185610708403206 8.32797326374284 11.146173123006555 2.9203589865014936 -1.0722508055001403 0.8249464197183792
Ni 0.39059743820817633 2.8156452547690054 11.583365687250904 0.5455299838934218 -1.0370678298411042 -0.2795745586693766
Ni 8.044386927244329 3.3951563029325786 13.214797061668992 -0.8685335602807105 0.8717646656234986 -2.199544301697722
Ni 6.9027881122129795 0.10397230946220648 2.7471981185325554 -0.16931974157616647 -1.0412134765783616 -0.9387717277716672
Ni 7.723196588249575 2.8796365550646246 1.6522673381179085 -0.37261095500177116 0.2360879482406515 1.3571125807103852
Ni 3.191965697348854 3.816128577459868 3.2029683499310884 -0.5590470445432502 0.7886054191955 0.1395165421718049
Ni 4.145217346011997 8.027066465741585 11.801367016661448 -2.474109837188281 -0.48939663123496363 -1.1536750715149036
Ni 2.318502208096083 8.901894654065808 4.921956386487519 1.5285267429217353 -0.6410132991044122 0.7869056628955738
Ni 7.6521013749792735 4.86373140713148 9.776097511103181 0.24793559160785683 0.2784934097900559 0.11089630733195095
Ni 8.382579921108748 6.78776080554662 2.204281569442507 0.09497140857157838 0.5309955377226726 -1.961958685865621
Ni 1.0143733420071481 4.639275798893282 13.080535910623682 0.46435871442972926 0.39427172780465647 0.8843090779474124
P 3.390781788100801 7.973291713974027 6.667949574327047 -1.7977999196651038 0.9462682932590283 -0.44509780931758824
P 2.4163399148144955 6.520849970030783 11.936901263689853 -0.8112928334906867 -0.021232169905898917 -1.658401648238718
P 8.308839434980769 5.3423108075310894 0.09751335700759457 -0.19151427539533467 2.4753323967414724 0.5483330005598556
P 1.2085251530559815 1.3059048443326053 5.530526177619107 0.6847223099565884 2.3943243923285213 2.3167112725297323
P 7.6758620944288 2.4902486515129274 11.181058944064592 0.3327107763727237 2.3774885517181055 0.8733399805304185
P 6.663909691185393 1.1437767251933237 0.8660866364637989 -0.547075988224303 -0.5903630810477123 -1.1652884873841158
P 1.707546997765629 5.0245322162149675 1.7295896919457532 0.454768756748449 -1.6131931700228797 0.4118984397474842
P 4.110894229639587 5.218945750373393 9.077590312261341 -0.646657641874383 -0.24906276323376458 0.18057448855437935
Ni 5.617699602346974 6.758055232607753 9.295920665009659 -0.14928699129500742 -0.10045942826934312 0.14141504474609842
Ni 1.7390752852177358 0.5263784527399115 7.68680212040981 -0.9611482956946543 -0.8447768241807451 -0.14563731035756208
Ni 2.283216324570526 1.6647552693470857 3.651872088604356 -0.042977532002790496 -0.051726996060646395 -0.30357246424587075
Ni 3.8720999338972284 1.5492045164615393 10.7934320631503 -0.07845001387778747 0.07635687879418461 0.5468764706189871
Ni 5.5769455752816945 3.6856876490892323 10.840684301136632 0.6839538072216802 -2.130033756401409 -0.6153626884158434
Ni 0.48955681539627516 4.6287134019703995 3.6373296309648695 0.7791080212280259 -0.22175790477122456 -0.9047622035954419
Ni 2.178414913686143 2.2159254436432447 13.157557282875494 -0.9924764163839745 -0.2706556589131919 -0.3725376785616745
Ni 3.8052296793960796 4.168622869812791 1.0144116657481956 -0.8063843404454757 -0.13431905713126546 -0.5428704347833876
Ni 5.368670063568725 2.0001908233068586 8.83786503002914 -2.6187318189074515 -0.17775784504119063 -0.18517187811707464
Ni -0.09694130506805441 8.678485938265982 13.626639873298423 1.5935571409595073 -2.801282457351595 -0.11645400392538653
Ni 5.295639968738214 8.877545057619693 6.989827871209876 0.6698351084321109 -0.8331901477844103 0.5790743955077704
Ni 9.081548874293942 0.10741303362797008 8.972345841541431 0.6576251966294804 -0.18468285429579806 1.5972595295117589
Ni 4.676776981596469 7.601168188401589 1.6867830079209474 2.548603694631798 -2.123044726678086 0.6383833176807328
Ni 9.412684691453249 9.358003256056028 4.538624568746739 -1.977916237636142 -2.186532977039718 -0.22465091004830343
Ni 6.911864295763526 5.953630560764193 7.406922904813615 1.8092775812874 1.1210739976504305 -0.8532151847560854
Ni 7.707857744576611 2.541144449074956 8.693876191835473 0.906958182805496 -2.728015530336644 1.5032504848534498
Ni 7.508022803148032 1.3281232668863137 4.565739082900629 0.2434328186414969 2.4410071410970415 1.7125418817265474
Ni 6.999560231985189 8.1780433109614 0.43723088798539606 -0.15275695212147886 -0.11559499835920092 -0.03487264350746897
Ni 2.2565579564076415 3.2960941059514255 5.782100038912763 -0.6084623617515843 -0.2035105285252624 -0.5455729213162153
Ni 0.9838358634699309 7.52352989739145 6.893132398919762 1.1125199374328323 1.6172688827541504 -2.4269707176086333
Ni 4.929190226291606 3.039119401346229 4.735885276447387 0.36956188376280225 -0.5549175957559088 1.241440706366662
Ni 6.056001685630921 3.994249848046097 7.9864769503451924 -2.4228785498171304 0.498093130567697 -0.6228924211339854
Ni 2.385129433995466 8.829733853849303 10.156337257249191 1.877468893551657 1.9933251159920444 -0.4222646134731567
Ni 2.572429707925297 9.044561790556026 13.096938471792066 -1.169520266077276 -0.13812788935439435 0.8580959098871545
P 4.84010154923675 9.022100339400554 9.646035146516065 -1.7864423285604396 0.3548196924566212 -0.11618892318945796
P 1.2655060129160602 0.2771591647072065 11.539670079378872 -2.6303827728828186 1.7522240308075177 2.2612700608422927
P 7.366907310807545 3.7578858383213922 3.613005272104324 -0.30606309187820835 0.25534499669805055 0.16022832079785954
P 4.314028751699828 0.7632874073678062 3.387328912504949 -1.7769531581230817 -0.012604833248204099 -1.5072272101130106
P 4.234521009906878 5.947321164372205 2.902322340314036 -0.23592571163117432 -1.0333006494891883 1.7839750979668694
P 8.282339970134423 7.600598005912832 10.293034302664505 -0.19499812017887708 -0.4436443647005134 0.7653266511732174
P 6.2891221982474494 2.0412533097513017 6.945461130506814 -0.6607783975464814 -0.7371563593865885 -1.800005411956855
P 5.263560193305177 6.844657540121473 13.13005953131113 1.8946929707394273 -0.326432913783812 1.1284620625843857
