# total energy = -381170.2670980531 ev
CRYSTAL
PRIMVEC
9.21984220138819 0.00000000000000 0.00000000000000

0.00000000000000 9.21984220138819 0.00000000000000

0.00000000000000 0.00000000000000 13.49417101765963

PRIMCOORD
 96 1
Ni 9.295260640327916 9.045227736178802 5.404523134424323 1.187095555956878 0.6004564607279723 0.8709010320716226
Ni 6.953190192432402 8.708067322010546 5.858925829614421 -0.5931144185406043 0.10058489810361386 -0.49876007472773465
Ni 3.5722002512578404 0.6309488460474046 8.067504024381346 0.039291084290138785 -0.6121359539484297 -0.008791887260017115
Ni 5.6185350365740945 5.0266119391414 10.166792052136111 1.146557743743832 -1.8803374733487035 0.29806978926008665
Ni 8.710685757232286 0.37081007272030425 11.764704131997549 0.5665724063860178 -0.9449506028888693 -0.3060468939282923
Ni 5.786096451080748 8.713368731350336 7.972356173519278 0.7859777517646657 1.986187990726631 -0.09601553356537658
Ni 5.133396153008247 3.6051980669571533 1.7781535435246345 -0.09112298135976565 0.5889757137818824 1.4182770680348478
Ni 7.063874399604867 7.17690044672917 10.09890266512289 0.08531048844304662 0.24339039543933566 0.9838876462736991
Ni 1.0146344285816487 7.718243489139111 1.8661763002340264 -0.34443037880249716 -0.9717160439081716 2.0558569159776785
Ni 9.35703358393937 0.7713403071915824 1.8603336861494624 -0.2666735343369923 1.6029028438404653 -0.592685815643618
Ni 4.4562909322880575 7.550820372267406 6.4882538273802 1.6201009528863064 -0.40018629351687857 2.269102412402518
Ni 1.3838245750045601 6.880205920547583 4.544472270285525 -1.2446761825848243 -0.14255764299097384 -0.6826068062754824
Ni 4.801011617166968 6.674409819898136 11.542981675707143 0.7370298611110533 0.8102492227175208 0.613842138006259
Ni 4.700367818291946 1.0479733784471745 0.9685877700325903 0.5612448235255173 1.8068574018816816 -0.10094073878113584
Ni 7.60821389077208 2.1259573436787202 11.355979301663307 -1.6045486069740043 2.6847631474059113 -1.644920840143464
Ni 4.450298034773512 8.756185679131171 10.247514537688556 -1.087504389225101 -1.0112436696891487 -0.12592286264777025
Ni 5.091298352929158 1.2787829113380957 11.866585233713266 -0.4572074480969287 2.6102181250094856 0.25857610204083853
Ni 2.4124086250316017 4.907823490560805 0.7913787125117522 0.908349663836384 -2.4071752801492607 0.8513179677333726
Ni 7.2979293169959725 1.3134679581838116 0.07899007717862422 0.18952141333502198 -1.2190777652904294 0.05524889317097582
Ni 7.2550662700034865 5.160364191823697 1.0733159590598322 0.43292749250364154 0.8376535828724025 -2.4980848599466396
Ni 7.56884516402269 3.9595073878593348 7.204618980710287 -1.934014394046869 1.7072600645023177 -0.11527052514024663
Ni 4.960201414837921 4.73480392939475 6.913117991713227 0.6802169658870673 1.7161851349060895 0.6934499196375735
Ni 0.8694458834731366 6.560452568698497 9.40229286795344 -1.2142322642726702 0.19621373775353304 -0.2911578926316018
Ni 0.5439974350167667 5.080142343709775 6.964719605266151 -1.405791019752695 -0.2808883923847937 0.950808090110911
P 1.7966153558063627 3.0912379562675154 7.549124843262907 0.3261040696894836 -0.005029334893791339 1.7026133097589258
Ni 7.1144175752583 5.431077202319153 11.957360113358183 1.5463267472176336 -0.6627296077355812 -0.6957651980343114
P 7.121461534798472 1.6531914885198256 6.2879057315635905 -0.5754473402781445 -0.739300916533417 -0.7093051415022752
Ni 2.6831861744233674 1.0351116983967297 12.761019655853586 0.07764243037482757 0.5571104896421696 -0.5939551692743448
P 6.812642915952845 0.21333239977004445 2.433930502982679 -2.1599901935541834 3.0673818643526722 1.7173423884389842
P 6.374543667955006 6.77533021404306 13.314658279994905 -0.40999865162161003 1.7777203753064093 0.9717309563065072
P 5.50822884293716 2.591374984500551 9.998074469401267 -0.22762644773685958 -0.016539392415919903 0.7325368583367061
Ni 0.9778288180000174 2.7005286978462255 3.692693448685265 -0.8987625343685812 -0.9438249739248583 0.7879104500110043
Ni 1.2210021594555598 8.138354824750987 13.111328487168752 1.5877631599855495 2.7158403284266903 1.1172304555346242
Ni 5.679450534848852 1.7807111277869956 3.655449895592956 0.6583093671806984 0.22300797512824175 -0.6001921513229922
Ni 8.429250070106962 8.260213480827495 3.39350034523223 1.0400359113304927 0.5445095130487074 2.119558053681066
Ni 5.068894136067092 8.112640684492428 1.621109203163888 0.9864304673002107 -0.7266891413066775 -0.05795986434423566
Ni 3.216554053217799 1.467264148091675 10.50532069090615 -0.7458122352893736 1.6347035332908297 -1.0343329474084444
Ni 0.5437909105485732 6.042278990064018 0.36795376556644915 -2.4331539636012094 -1.152194887424951 0.2198825421253826
Ni 1.636946126334246 8.663526263713988 10.703347230424049 0.6009501125349391 -0.26368359847073297 -0.3979980276163081
Ni 3.605345584434435 5.990113122160492 5.219680047454189 -2.230338661370759 -1.837369711537926 -1.5553739450215665
Ni 8.600711477919235 3.544098171835793 9.309547708002588 0.7653600755143142 -2.6372962121732 1.0135540629898803
Ni 2.516325467933797 0.2625728117022384 1.3603066011890228 0.1322500904173787 -0.22485505563930952 1.5453322445148483
Ni 0.8502953489693524 1.535924313923691 9.796444815500779 -0.2582853102732971 0.4197122793649481 -0.14929110506006546
Ni 0.36109420287287863 3.857462172950143 1.7330565287355733 -0.4069169273724928 0.42954623473623443 0.22191577050532751
Ni 3.8742515058331968 2.768810850142709 6.867453956620866 -1.984016951217241 0.18889972059062304 -0.2756801087109768
Ni 8.550813691228907 3.518605307793155 13.086728103863663 -0.030788189025450198 0.7843965233204749 0.46048894706167787
Ni 7.388698664735491 2.612064310689223 1.9213810281695414 0.21502984201877162 -0.32916779621647185 0.40972765734841055
Ni 3.603778211238323 3.118740745938108 4.503760212508645 2.7934115392439502 -0.8516157014794494 -2.2119642726286295
Ni 1.9904625407960415 3.8412905695032036 5.563876123304519 -2.0360126275582417 2.189024118892688 0.8809010807071281
Ni 8.651153235307037 4.440082449471797 4.9467607286891475 0.4688072371193861 -0.36259573685761426 -0.4024277812528876
Ni 5.2679228724462694 8.41843519505379 4.037091439082624 0.6643936257015655 0.568722362849485 0.5064137346182503
Ni 1.2866105574763236 3.133510933350877 11.898000002484507 0.8002615153771895 -0.5713428311914677 -0.04567410499834715
Ni 8.258037598037598 7.837834064002422 7.848399081328447 0.27775447474150233 -0.592423820231483 -0.7966645420545506
Ni 6.298498408416606 8.767055873238322 12.14371525447045 1.2185347483027658 -2.913945369665665 1.7393803420756304
Ni 5.111812502113559 6.803589030784718 8.920672276220749 -1.7742352449712864 -1.1435906906957078 -1.0591911441027049
Ni 1.2589325908014595 7.331019331118586 6.784154525137168 0.45323123705800006 -0.4098698393532296 0.3249982382198145
P 3.971714459104345 3.1312705116646704 0.058377275681291294 -0.506402678874657 -0.561848004327155 -0.16444518709268455
Ni 2.652677716153173 2.637243700092639 2.238493817175297 1.1260565384666865 0.47815139733844747 -1.5846297565628902
P 1.4155223929353338 0.1294650259988143 3.552313973336117 0.015971692837907978 0.004517685364695445 0.6652932546976993
Ni 9.033610734842917 2.5058332873621803 6.7790126190696895 3.0940336626122455 -1.1749653483522473 -0.9516493550652838
P 3.256273133975732 8.074221601503034 12.235327295798937 0.3797879323661847 0.9867855366467844 -0.16006402730585337
P 8.711746039100245 8.669528381070863 9.735410381259962 1.0819058120914014 -0.0699805429541956 0.8415827427234797
P 4.680038065954146 5.807007053485343 3.0230314066781383 -0.06286938583071108 0.028694025500582837 0.21187381288829318
Ni 2.259792574941987 6.129314301659859 12.327748839284004 0.14103734969170548 -0.7841777224414495 -0.44635867830788284
Ni 4.6009410386044935 5.429362311645759 13.53478846951491 0.7843978088720555 -0.5738010629239731 0.4315874335359793
Ni 8.003440871935103 1.0072769944022546 8.335660372598674 0.36046197834406307 0.7131414845292299 -0.587773208833349
Ni 3.5799449188150976 0.7961785624287856 3.587573416358996 -1.2374110163819785 0.29286407668943115 -0.6925407775597427
Ni 6.717706199480135 6.863785381357732 3.0208186445189225 -0.32541038605656863 -0.9111308261259469 -0.737933089651613
Ni 2.993415429145494 8.669399303278242 5.528318879374379 -3.2090727884679766 -0.5537472295968915 -1.1805472133153991
Ni 3.880696175621914 4.091046878382415 9.060135299242289 0.7323517389090937 -1.362338862106331 -0.8271372567221109
Ni 1.9811965992543232 4.871488091938008 3.264752622966695 0.27943289088518974 0.4819229485657378 0.07930053480354085
Ni 8.45877200524784 6.800076270856962 5.5573042196916465 -1.1196367509832716 -0.8735958052949665 0.023958567698126477
Ni 6.244442472835417 3.3911133280529757 12.949654863974077 -1.7300850328166335 -0.14526038663411758 0.1246131426974112
Ni 3.184653398755764 7.58790257811894 3.3304015882937112 0.4524506501382337 -0.34622449458844246 -1.3739782461174725
Ni 2.9394516919876064 6.046271181792936 10.22547819253546 1.3559758960027808 0.1652694827661928 -2.000664587076251
Ni 3.121866272488001 7.162065720420091 0.8344280003193055 -0.1697732841738173 0.27318613864452945 -0.18397940047087025
Ni 1.9203732994028648 1.4921485025405286 5.585075306774044 0.17823067091255113 0.029972377992374184 0.4997797742415005
Ni 2.654374167141905 5.633498840675794 7.554643840881686 1.5704946027130888 -0.05872142510060855 0.7604268998787549
Ni 1.7669182436612139 3.9092315876334744 9.809479828587028 -1.2288749538865094 0.2886605801310448 -1.3999471593774084
Ni 8.01386851361041 1.7162367703728303 4.409774061780165 0.25769215677398843 0.28320752743627353 -1.124458340741631
Ni 4.639526078755827 0.8410413932226632 5.760499402819781 2.0044039995140253 1.126121330266351 0.6322316962570401
Ni 1.1324271341905972 0.09999656594345106 7.776448353768829 0.08060794076105472 1.039248896652823 0.500198606946474
Ni 8.849969915312622 7.420866694625099 11.963405563974009 -2.5224584036949977 -3.3354288819984235 -1.9026757318345877
Ni 5.876939557558908 2.2983038563546807 7.7831954343859735 -0.7013123531047857 0.06264312875251792 1.7732140027956236
Ni 6.235453126563601 3.703278749664417 5.289620849385852 -0.07219040612132083 -1.2197236264045446 -0.9670026975929024
Ni 7.147230994111012 4.567150316464794 3.116208977234271 -0.536087093312967 -1.0567848486540574 2.8717191140066025
Ni 6.583631252316287 0.3379099873496897 10.016102949093481 0.27734592644917394 1.4490482877794335 0.006034122009221866
Ni 3.5605187110256447 3.9879690411322546 11.569335673023408 0.7937090589706524 -0.233251764343437 0.26980848042154826
P 6.574365310774569 6.62056594069054 7.182933911549967 -0.15187094997209974 -0.5884663782456317 -0.08924556183139469
Ni 7.946453026492953 5.453610496973838 8.856197918806583 -1.009146677950804 2.4987561749820513 -0.5690751182032134
P 9.029258969263124 5.846366560392402 2.9153076908778575 0.28220094054863015 0.007596067179703047 0.09501023222931379
Ni 5.82023752722899 6.245585733284345 5.07920560772904 1.9557404728700514 -0.7265600719279809 0.22827282307160685
P 0.45548141674271636 1.580917144494423 13.150475015717985 0.3788895889216313 0.12995435240466652 1.6241100740456995
P 2.9376630425755734 7.689228645326387 8.526818129580672 -0.2723914106573761 0.24784328900436672 0.14887175813445974
P 0.4062852600537067 5.115528098572576 11.458751040148108 -0.4863197920818528 0.2972143832383269 -0.25442891264168443
Ni 7.7771951609975645 8.211237678370175 1.2704251242658893 0.6200413248384354 -2.6469329639320156 -4.833228113929315
