# total energy = -381165.7245799735 ev
CRYSTAL
PRIMVEC
9.27403862679451 0.00000000000000 0.00000000000000
0.00000000000000 9.27403862679451 0.00000000000000
0.00000000000000 0.00000000000000 13.57349296451356
PRIMCOORD
 96 1
Ni 8.385446540037444 5.127365511405432 8.738913535451402 -2.8688477059960786 -1.1642682736497176 -0.07879171348792237
Ni 2.756485379993219 4.024608136329787 8.243453590712686 0.46655777896357714 -0.7158362577525736 1.1534035630210717
Ni 4.956240952209283 6.255357545356687 12.057889755964714 2.0626315156973507 1.9925131616137106 -1.7259046761866985
Ni 4.296049970445987 2.242768562978677 5.050914047272039 -1.3452045164188897 1.6056847774609766 0.9474528004854328
Ni 7.152324005162303 6.174024227334237 2.4313385160781373 -1.3277025029793843 -0.29275480480507643 0.34562825576534023
Ni 5.973788461151488 8.484344887060407 7.905405611780383 -0.5225949723638033 -0.20781609787915176 -1.9992918750984403
Ni 7.962912069978057 2.289509717235592 8.648296904847372 -2.3382090373921924 -0.5065116936486954 0.5575123530662786
Ni 5.167485002142619 0.9992591049353333 11.862119439340438 -0.4612528218108959 0.32925649927553613 0.37566336867484984
Ni 2.1218165523003663 1.4957447583369101 8.581542375414578 0.9062012500348134 0.4581968085933915 0.4873418055884639
Ni 6.9428605706292315 5.179355771477708 10.599350585454767 0.8171760317443411 1.1654998320639733 0.6562635403952632
Ni 5.330058897802087 1.1406881927166734 2.8125636362552657 1.0278085160263655 -0.4052583087231472 0.6976783558966243
Ni 3.9711989483604277 8.860880125946322 9.385351118055372 -0.05412737797202292 -0.19212259840329493 0.4304828876178909
Ni 3.588208978648559 7.880410223099185 6.776783870612057 0.957122205254397 0.5921438270972189 0.19525934426006375
Ni 2.771054894544333 8.160337802482266 4.361027594093933 -0.16098242535506468 -0.4973948189490918 0.675103813030218
Ni 8.718542182387765 1.5039801045631285 1.33112130015943 -0.7599260489829364 -1.518066723930676 0.7687601023347986
Ni 2.378215895899757 2.816738808407342 6.276519046504193 0.28637332675876487 -0.8222781288575968 -0.29030480060268715
Ni 7.7394448372449975 7.368418377253648 12.086231217752239 -0.5743556498758624 0.4396923220313008 -0.3659638819988988
Ni 0.06956641791904186 5.98517698048234 10.797143569885279 0.8844767138735283 -1.5755213665037187 1.6548517261039306
Ni 7.2330359626023695 8.140111124419898 3.5265700088761065 -1.2371881017378952 3.2310598342620285 -0.9410037024259794
Ni 3.0287062333470343 2.8866743330603963 10.77736668269225 -0.18843203692558516 0.2474565950889093 -3.8978949795255518
Ni 5.19925785819107 3.959096328061762 12.125310161364897 1.1494605192129237 -2.379775547980069 -0.1705636412855966
Ni 8.174017009333248 7.069599581358397 7.550811820683443 -0.7673686213039107 1.4151866020349821 -1.5188812494121713
Ni 8.301525765261486 7.513297407372997 9.756328425642442 -2.4193571669274334 -0.6778782904515616 -2.4616762394106186
Ni 0.28754249243076907 3.0728042866191836 7.2273556139947575 1.3160731462705721 0.0682062246625922 -0.7768796461181394
P 2.069297672031138 0.5594489558779749 6.635402080427287 0.11390964023697801 0.07887990232635447 -0.8246366017874442
Ni 5.645135083263283 5.540514654459264 6.721132220122991 0.4228222857488395 0.3422608819550041 0.2817234866915793
P 5.726607511863879 8.319007327915113 11.227369000108407 0.3151033477036057 -0.4137429491553906 -0.46398461891976217
Ni 5.6095505973736435 6.8845825124247755 9.48697603240999 0.043838851561821275 0.11895697285289836 0.7203796541488819
P 0.374084110498989 8.817310692871127 0.8061244700649897 0.10075973311858132 -0.3613798621726422 -0.5738540276490955
P 8.07267031613492 0.9708249027623768 3.6046036239849424 -0.4344657835250389 -0.17170829641300106 -0.7070099177101954
P 0.9055291795924042 4.084073271467752 11.7025364211111 -0.09840768794663698 -0.7915282492692497 0.1944944410695812
Ni 4.338497244857475 3.197048580980273 2.9648989933632195 -0.8576480237164583 1.2140425168593671 -0.5507436668838772
Ni 6.3908605225090245 1.7997662898548044 4.991787414540895 3.657625903324017 1.2759613658513507 -1.1353824438533027
Ni 1.5500628020834877 7.89599060785149 9.475234172210648 -0.7582530321558877 1.042284341045037 -0.07681273538468061
Ni 4.349941408419585 1.0630088458801814 7.494224419705384 -1.3543363035168288 -0.37473571465425787 -1.0856439389775947
Ni 0.2889150501351388 3.287090221194635 0.15700854512979082 0.09693316028363952 2.625370150159575 0.4704542858045059
Ni 5.278411777155904 3.3366785052842634 7.616439554433257 -0.5533600214608019 0.11193683278132334 -0.17102104053798933
Ni 7.4565588395666875 6.769074362371229 5.150379965453838 0.043432360152021975 -1.8069556180224429 1.605989453185589
Ni 5.023310798952539 0.0916720161902289 5.369592269303351 -0.7125444743751792 -2.625733447036265 -0.8674441838712738
Ni 0.523268149310018 3.505363992343594 9.374696175173275 2.2055246876508727 4.7566264661141755 -0.07156254272933482
Ni 1.366844896627215 5.733850535965991 13.129056046147353 -0.27373069829408986 -0.8614283166944972 0.2887703662360317
Ni 9.226518369544165 1.9849688395592873 5.035263179826807 0.2811313616335352 0.24955332971693794 1.927079614600249
Ni 2.9704838193738374 2.5678885321819847 12.76364408908996 0.6949128773363451 -0.4797699067784769 4.792864622510604
Ni -0.04205683738882618 6.864689699749958 3.421253099777505 1.3739162825312854 -0.3821155520580968 0.356546959560373
Ni 8.158909600546638 2.9440991797188922 11.590527365799842 0.38961057488356127 0.6566553765170433 0.15939914002834485
Ni 4.712213176026306 6.144746087653864 2.2868350845197796 -0.18428793285022457 1.433567161424699 0.12843945842203686
Ni 1.2909461651909864 7.764160149962194 7.0415483969772685 0.4633199887525698 0.7859281294736529 0.07854951557012924
Ni 8.024881195522642 4.989191611152699 12.936990707921021 -1.1243590961596057 0.05740399184076565 -0.4541478353349985
Ni 4.758815219705075 4.651412579338144 9.894424423971415 -1.1258986727325835 -0.26342340283081084 -0.8084419943054529
Ni 7.765087553816498 0.6880965637392991 12.035385374036176 -0.010167170340988942 -0.8598861690183578 0.0031822543827235514
Ni 2.985971463740712 7.37871256003642 11.091647155646452 0.7941443467358581 -0.38333579761844305 1.526244888866094
Ni 3.2538520670563846 5.054434472302976 12.309868165390638 -0.8310833858540526 -1.5709630577090752 -0.16353244547042806
Ni 8.959388963350479 6.4802715281024605 0.8702702124556254 -0.7728329868525916 2.6723701730581975 0.4509894922116749
Ni 0.8087759176844443 1.3607333052273527 12.947090135894388 -1.2074445519268755 -1.6783845191185482 0.03755378988405791
Ni 5.651246674663145 4.4410959332591124 0.7204323539273121 0.7694198474059847 0.06175018462460333 0.7983527283902508
Ni 0.4007284232331391 1.7467187893886233 10.218655012878445 -0.0517323953772851 -5.263319936756374 2.719772059380929
P 4.7568398494954085 8.452840978129705 3.1387612487372745 1.8396842186037154 -3.2192954946372487 1.940091710589201
Ni 3.134782686202311 -0.07340123285658837 2.254421392408005 -2.3385335106111467 1.285710731928631 0.30622764248053064
P 5.739656084093934 4.03218502581945 4.47322583979147 0.5530867131947572 0.3632994477928582 1.1858226027817254
Ni 0.30611375461320406 8.862234135573605 5.121862296933993 0.6255568553400259 -0.29052642969518994 0.06972934617533799
P 2.9381637950513473 4.909564716222169 3.149783443545676 0.0022880247032283176 0.8450524464396348 0.9694066790487048
P 3.8679510772607784 7.2289461116048885 0.10201256916571705 0.08515930757716302 0.1426707715300704 0.35759494120891316
P 4.57513361232165 2.2535171736500588 0.9947927279730059 0.08463351698068006 0.9118975290886423 -1.3268267852426505
Ni 9.045006887179811 5.246305055719905 6.411588926056571 -0.0513097060175697 -0.15078028801108226 -1.6309718341625397
Ni 6.309443738139688 6.868863017094325 0.16312384614507053 -0.5995167225225223 -0.3491822916651857 2.066130787099861
Ni 6.835355915838326 2.887787217685561 2.374302251634595 0.4595209267214538 0.4485096632126147 1.2568680966653256
Ni 1.1395474859758796 5.009715058448443 1.9160747894346157 -1.2370130096126115 -1.1717877219552142 1.0578343729644943
Ni 4.175663676118802 6.007889100874242 4.947646700691449 0.4938492676896785 -0.1355045927989344 -1.6481316337712777
Ni 1.0186232974131981 5.944454677239857 8.179522078612395 0.8161018248435559 -1.2724556666909375 2.0483001866763435
Ni 7.004922436559246 9.058843752686025 0.6905078137604891 1.7881436275222622 0.08726915483131421 -0.16995351850542342
Ni 3.273429562420739 6.455602585577978 8.727213408425506 1.4892575130084673 0.07405008503787892 -0.3162179209240232
Ni 8.030232315761975 4.244523412300864 4.274958024587555 -1.2041532827701131 1.0391419387613137 0.35868997404530484
Ni 7.473094450288925 9.051767661277689 6.106415558951631 -0.05395357139831998 -0.0885001990249379 -0.2201440233168854
Ni 7.462382935771715 3.407235390519702 6.5646838269212 -1.2282038959614137 0.4450345601798206 -0.5889489743090051
Ni 5.097883342877113 1.853852482637806 9.542219625203163 -0.7111085132596011 0.03685573537576878 0.40694598083821526
Ni 2.346396669658591 7.022190696326383 1.6896964360028954 -0.3083233486672948 0.1358900011628111 -0.2773808934521675
Ni 0.7822549496629166 0.03631249791526801 2.859690590515571 -0.3188450741342251 -0.2750301338318038 -0.4112088698796273
Ni 2.243408471638147 0.5834037974346438 11.528578643140053 1.3191376441285088 -0.6689069401908867 -3.8317561789149486
Ni 0.1684434346533575 0.18587862711427028 7.9531706198924494 -1.2484639317620305 1.0475651298280022 0.3949008767482231
Ni 2.1883948750008413 5.136945593220392 10.319899691652799 0.39669807785796196 0.29585529810727107 -1.0045657434483408
Ni 2.394473285465704 1.3456258964407426 4.074151905034409 -0.4613114429629732 0.4993293169676432 0.7601353367802651
Ni 6.941831152350954 0.16494526731492334 9.63889034816809 0.3802797844009386 0.6244350830307569 1.2730256802617947
Ni 0.17372314479590947 2.923603554538777 3.050017973918937 0.2020264877805682 0.47855197521097587 -1.4949879877343415
Ni 3.2578491776684344 4.553506554439284 1.0795973186221148 0.17273082414024446 -0.9939314036629463 -1.0118692190882894
Ni 4.800798792189411 0.0752820078731166 0.7674359634749952 0.8681805478166661 -0.4457346715706388 -1.335876039929112
Ni 6.886372401863582 2.3592041168865276 0.07074143860244486 -0.8100052250275147 -0.02601313623431004 -0.7330847604203762
Ni 1.8760730789869269 2.1292543312118832 1.6621692347994481 1.2823472147730368 -0.13049634095106558 -0.3035765780109288
Ni 2.6709231003951444 9.234874278271443 13.596296019003457 -1.0779882222045498 -0.9745951652281796 0.0782893199302071
P 8.022562685886882 4.518404318553883 1.5641417199956746 1.2197033146895704 -1.3077800530238446 -0.625137251304104
Ni 0.788216301638382 7.794347145419786 12.421429284640267 0.37864327723878016 1.4620760674976692 0.2768491893184135
P 0.020662557873890215 8.917034429324422 10.714426565312207 0.9534766380820096 2.231280456458738 1.0157958078362055
Ni 2.657531388738996 5.510021615729753 6.55378497682542 -0.09747283483719342 0.17324684454471453 -0.9097753405393171
P 6.467232229910948 1.3739766322668119 7.144761026730455 0.32835172807307966 0.45613606940962087 1.021496971986041
P 6.429440522848066 3.1708401480576454 10.421917825241641 -0.308617739979262 -0.3938521237687346 -0.4497728461957544
P 1.2051334865522494 6.704174640647044 5.301888078323752 -0.37584026057234626 -1.339494610518306 -1.7761167782647154
Ni 1.3230065164342713 4.3781159375133365 4.627176734413621 0.4276181644755861 0.3654581460070739 -0.0826455400163738
