# total energy = -381170.5770671445 ev
CRYSTAL
PRIMVEC
9.28327462004340 0.00000000000000 0.00000000000000

0.00000000000000 9.28327462004340 0.00000000000000

0.00000000000000 0.00000000000000 13.58701077420811

PRIMCOORD
 96 1
Ni 8.709262071199172 5.00415856531085 12.622618209048987 -0.8425376504375812 -0.21492005591378469 0.3072511986490386
Ni 6.855076461889854 8.270144606513393 2.272536388262949 0.6415300908398306 -0.26190362375217474 0.551714772547895
Ni 1.6413851010223093 8.985003182643968 9.75300108039634 0.9886917525305619 -0.32386515305663577 -1.5607992298021958
Ni 1.3534271999380385 8.555215409134231 4.969517097059583 0.4716807020124393 -0.08360918948122376 0.7910999034825794
Ni 0.4853342482877018 8.287578596591612 11.567369795752258 -0.6797456826776035 -0.3349049558105651 -0.5460730008810852
Ni 8.678181667161965 7.416686737588463 13.311426059430095 -0.7861937244302137 -0.19500377660583187 0.5128492058309491
Ni 1.4620972147706401 1.5008641703439314 1.7884312455590365 0.281734799545489 -1.1263558148746602 -1.245933194920377
Ni 7.476508160412765 3.0390749552164427 0.8119839104193672 0.8308036498301047 1.6313780684620227 -0.27700705505251644
Ni 1.5828726199450933 6.096911408807794 3.4286550089036116 -0.9091053110554859 1.4691049493199924 0.5773196176001929
Ni 0.3028315639720886 3.834373107506635 8.563716103870455 -1.6200104500550294 0.5472346252893544 -0.4846156649065525
Ni 5.127533287429873 6.9513625881365435 6.866535736305483 -0.05425104803408077 0.9486496490070113 0.5813215396707344
Ni 6.319635737858177 3.980361887043411 11.091294685752104 0.10205531200155327 -0.5770414242381416 0.009539821169635183
Ni 6.231871657879755 1.2247238780826488 0.35074440188034284 -0.7725483657326373 -1.981819172234974 -2.080438719082101
Ni 1.4875612375526175 1.1237125649617246 11.771718810659497 1.6926955364245817 -0.6330279669060904 1.0936053599165165
Ni 3.765927522391243 0.6829658855481886 10.334403297972884 0.7040953151665615 0.40980633310514586 -0.7791208767438325
Ni 3.318529376582051 2.3423094816750316 5.325591955331253 1.3909755520064173 -0.28657207303313226 -0.6653909566178282
Ni 5.435051048522028 6.467768953874223 3.18388475885336 0.023368756632927496 1.258244665297878 2.9239893841652287
Ni 2.387676845632568 3.8143862168578573 7.148588546288181 0.056173204757458094 0.02596428527424561 -0.0321218202352092
Ni 6.537904095003584 9.12691660454265 8.920755494394054 -0.02707551606055337 -0.38733283459297807 0.33628692375975633
Ni 5.621682005142105 7.800225236034468 0.18048264371869074 -0.7970977729372272 0.6530149515509787 0.5885252565080251
Ni 6.300846389658862 5.588132250007557 5.292045913506626 0.42809638966358526 -0.1836868089311159 0.054614087800454326
Ni 8.891121424571004 4.867248828530464 4.875128472182429 0.7920183015317908 -1.1640726126991434 0.8073593027642353
Ni 0.39358857174668693 5.433723540225337 1.5128869395400446 -1.7517380923100345 0.6751884023242242 -0.30715992448681295
Ni 1.5109829398781476 6.011802345422753 6.07401885314598 -0.8509305024869669 0.2797895028936601 -0.32114055503662114
P 0.6808381589635626 8.259942287505957 7.080082619886576 -0.3567724453076178 -0.15728132235439365 0.2664822442617927
Ni 7.059159975137754 8.792041032608903 12.235578987675135 0.9923002958174264 0.6617345908121636 -0.2965451250854441
P 5.827167292885113 4.189393385760795 13.411289959785487 0.2551732470068767 -0.0454956704389539 -0.8843746410780253
Ni 3.377023291109663 7.134670132377493 4.912044342760196 0.18794069911146344 -0.13994103130373317 -1.0653013707655008
P 6.453064246587801 6.6497582730932825 8.87981810917205 -0.82521998509474 1.120129117238658 -0.8404483720087204
P 3.8824419044315635 8.136678964684561 8.408036513767836 0.06515972452678455 1.141074094921441 0.15752120627934163
P 8.048357888218016 2.653614818886416 3.7980996395451703 0.37479305025475457 -0.2541808011866203 0.6270151850531073
Ni 5.072381351830994 5.731893043591845 1.2914223508802978 0.48179413629735734 -3.131320314877846 -1.7423983029663477
Ni 3.908481490251267 1.1717627953370489 7.621117445313958 0.040828861090903876 2.3660571699527124 3.3044959398649927
Ni 7.3750976664753525 3.6217304148912604 6.358585573945068 1.1639186036197826 -1.2506804797973752 -1.441357604003395
Ni 6.347002831974571 2.3515649066526585 8.214095906568637 0.5413357433064161 -1.1054440044226574 -0.4556709568477443
Ni 1.8096166069847566 3.994918061932999 4.373781503188701 0.15788938825203777 1.1222754741576995 1.3715542100570122
Ni 6.050188686729161 2.1427469232557215 4.7094210886386545 0.07372664026018916 -1.434570920098865 0.3526831057295926
Ni 2.1176078150918154 4.540505405323298 9.524467277974846 2.4533546069188006 -0.046368045741578205 0.766045788727429
Ni 8.968228305076693 1.6691142428559829 7.892572468782655 -0.8866986612255117 -0.9191336418257655 2.8729565859581294
Ni 4.429412455767365 2.4831089105974704 12.25601426049685 0.8742514366010944 0.10765466046620169 -0.20721214574656574
Ni 7.567261454877443 7.135951224300173 10.69671373192908 1.2196135831892414 0.35475001556095037 0.16852912735407102
Ni 8.891047158372588 1.08954083041544 10.388493226934411 -0.9339025726048239 -0.6611499219532871 -0.35437437738908645
Ni 5.2656220001101195 7.870889523827545 10.620449772775416 -0.6547234496016531 -0.3782576117645873 -0.44332426235693323
Ni 8.652782627303601 1.4365774923398507 12.858041129701071 -0.899174167984703 -1.0087466142989079 -0.5752069421325642
Ni 0.5887852060266004 3.09964832329971 11.240031314630281 -1.4699729537472426 1.58778038637673 -1.6223002745304707
Ni 8.754703701355124 0.1476755505683051 1.216196261849501 -0.20688047343875987 -0.21149534650295188 0.12901461419921653
Ni 2.3824596451938254 4.366833900326859 12.063065107046508 0.7431195189485589 -0.27644449768082713 0.4481551080866733
Ni 8.746246638010472 0.05083149950601352 3.7497839075105075 -1.1410067320186155 0.08977238086914216 -0.21443026076155974
Ni 1.0512287553074486 1.9200690105793488 3.9441599002979215 -0.20787883279628716 -1.328921205877834 1.4958094551943721
Ni 7.7025002021934625 7.875781809648217 6.9575415358447765 -0.10631794393264916 0.46157163860289546 -0.566624856890508
Ni 7.565265550795004 4.660203950620716 3.0571866243552095 -0.9946919359780546 0.22350162693520864 -0.3800468424545261
Ni 3.9702709673336005 6.0938479281231235 12.96592113784802 -0.3647364373497009 0.1755965757238137 -1.6179941909559488
Ni 6.869131339940132 1.4524797420757336 2.457727508961231 0.18179344856314497 -0.41460838247947945 1.2802314539816146
Ni 8.182872540099478 5.581763923493362 7.070449365624506 0.29051048885559 0.6636099534580056 -0.04249365038783649
Ni 4.696297323051021 0.04007868230281835 2.3363134144803976 0.1695989633794821 0.3960938686150598 0.1124705937976063
Ni 6.422039542199407 6.010929717591362 12.307019357241662 -0.36731088294509645 0.0794771695907212 1.1324506149184883
P 9.062759892385797 7.317977676618442 2.404058112348236 -0.981174361107594 0.6283120494876598 0.25048689727480083
Ni 1.9005091505714646 2.111369454424849 8.943147681544039 0.5237367992777302 -0.9406923418331476 0.19055859635028471
P 2.7998728133924504 2.6314649252087645 10.8032773717091 0.2145441606316047 0.6156789341046817 -0.3260613893770062
Ni 3.2104256415123733 3.0386757743999553 2.778353254073857 -0.776456956758424 -0.6213759844894589 0.8406664015567973
P 2.825058337930367 6.382214293298683 11.034080006492212 -0.5525822627545128 -0.8443945011406618 -0.06661908268113043
P 5.132889736990647 3.334710124561995 6.300718280466594 -0.5583885850236447 -1.1051784094660966 -0.17687647087750183
P 4.991143414038401 0.199682312664256 12.128418433325344 -0.21971027821357644 0.2625983358263542 1.1480690381820358
Ni 0.6968341697749462 5.78762054222845 10.816279526396828 -0.5867540235402152 1.0975697438809031 0.5041331661141898
Ni 0.5455956983376208 6.36841006366806 8.465658728791535 1.4089136245420768 -0.15174110926245477 -0.32554382631063933
Ni 5.020376446390003 2.939103368873346 1.4022470137944512 1.7055137712351724 0.42028460692865033 0.21888572542975207
Ni 5.906882773610173 0.36982153159852127 6.756113967517739 0.9375645948374433 -0.39720509940136756 -1.4540369992432765
Ni 6.366878323325725 1.429652169337534 10.853901854187027 0.0513870962227244 0.37585003076435913 -0.5045278304494472
Ni 1.404076747257932 6.1614301686819255 13.290963865111454 0.43244901020532617 2.662479139196731 -2.3264742654537676
Ni 3.3797061575274503 7.224411549888748 1.4444079346353658 -0.8226797351713896 0.6362534158219235 0.057097773454256505
Ni 2.9991197404684913 8.287188699049926 11.911366185179002 0.07238401018936566 -0.10196275228774697 0.034166361469063745
Ni 5.276334899231665 4.011275192134182 3.7446205500656164 -0.765769652247907 1.0150648432074518 -0.6144610025371805
Ni 3.5647311076067756 0.31269968508664997 0.3125557943272185 1.621511460080588 -0.13894010084304456 -0.2854017068741149
Ni 7.412472130828339 6.141183346338691 1.182575025498977 -0.39091438129664935 -0.24491146006955244 -0.04485058065578727
Ni 8.042500141817932 6.994993979706099 4.516811703046068 1.1086936217082066 -0.28599974546943 -1.0898358655717553
Ni 1.6422762954033046 8.48869146190286 2.540009815169053 -0.332045374874583 0.16255105539376521 -0.09875478687341056
Ni 2.4518428410642223 4.774026182968445 0.9254793714940659 2.3034726623522714 -1.4833280348979099 1.9769104220794467
Ni 0.6304253351511209 3.114464429883755 13.554008241609507 0.9947351305111644 0.7227026458551037 1.0273372328169017
Ni 5.985363578786562 4.730998204261021 7.671538624073722 -1.5972410175689975 1.4820278280292476 1.9915546543551832
Ni 3.911869885554009 5.052348044808205 5.76077052651853 -0.006400247099388978 -0.35734425865068775 -0.2516510927862311
Ni 3.056035498279757 2.489384404363645 0.5443368862744651 -1.6797901412168232 0.625573053289942 -1.450771184007811
Ni 4.397691505768817 5.578171296144975 9.845718715809129 1.10525322856809 -0.10561063345297941 -0.15494238980857186
Ni 8.78823488994007 8.303935726792794 9.048718010920242 0.07722796854522829 1.0183291157810204 -0.012871456646029447
Ni 2.939929580330727 6.128335294012676 7.8805478429315805 0.8677069506143573 0.7385588961610701 0.44763420258619685
Ni 1.5513651852669925 8.733482135157677 0.1177648391561538 -1.5571372075695764 -0.4944406214167743 0.5350967043752397
Ni 3.7800566666399384 9.154005200414984 6.036790136207386 -1.121068598333792 -1.978341240988703 -2.9338678196212054
Ni 7.897411839936954 5.220013271007729 9.509942666219583 0.07039089101873684 -1.4819437529558734 0.12857212734515922
Ni 1.5615396544500209 1.4144925815858136 6.508110352853938 0.6224949285852505 -1.9639338073141206 -0.1677433982279821
P 6.852384312197264 8.60539150943922 4.9315280799147025 -0.6651783263863899 1.685981614739516 0.4134519002775331
Ni 4.637543476828951 3.048404646392486 9.496613740258823 -1.3718894819092438 0.41723502146904917 0.7308872385484251
P 7.859006932080943 2.892092865275849 9.744061286761982 -0.041205270593716134 0.22840883442883889 0.2980013979159965
Ni 8.083792148137377 1.4345537384330074 5.942550972054545 -0.07689218247236436 -1.4063564053378619 -2.4753925605554468
P 3.0599344736966114 0.4434787471877743 3.666414529823367 -0.3282712525441314 0.5375338530618227 1.5308764741008345
P 3.438395020825905 5.207313751078547 3.0379739588249213 1.2023108302447356 0.24211230005786047 0.08287539663899275
P 0.45171115528221745 3.177182234446292 6.48040627586223 -1.0641495165492447 1.2400340558271223 -1.4648759988403095
Ni 0.20197528154035824 3.3799939390463134 2.2492075186854392 0.010908933603019923 -0.6427374808843705 1.247312848876723
