# total energy = -340890.01869083225 ev
CRYSTAL
PRIMVEC
9.07324655355094 0.00000000000000 0.00000000000000
0.00000000000000 9.07324655355094 0.00000000000000
0.00000000000000 0.00000000000000 13.27961346893784
PRIMCOORD
 96 1
Ni 6.333198632325011 2.2065046661325587 11.45459623993883 2.1041111229983764 -1.2007717678923902 -0.4607314020897872
Ni 4.652851529842909 0.5247620983411019 5.954618330073608 0.30560594973613175 -0.14605331484905815 -1.2585454843677488
Ni 2.6919596460524415 1.8441101282852943 4.435085448287154 0.8040168686545637 -0.9133448030581303 1.7589032425999063
Ni 3.4685388126819037 4.36008508551959 4.602939600930318 0.05656118422449614 0.30526090769188713 0.17781723752421635
Ni 3.8286922586474357 2.6665545558951504 2.492450751073293 -0.5853435163459338 0.5399409198414185 -0.27697594470426495
Ni 5.43000231100091 4.5132233396891435 2.765983727498247 -0.057840565157551996 0.2429430234892719 0.31036634723925255
Ni 5.108646067004155 4.462131888733535 11.388875086351216 0.1846121489588627 -0.5027990206837987 -0.48400605634701155
Ni 5.997978467699564 7.910119798127488 12.4933142000577 -1.3526224061495156 0.9988797488071571 -1.937952552759011
Ni 2.2583219768069465 6.45840036056803 0.10623319914200721 0.6711520274713215 0.40663667712791257 0.4243526063504369
Ni 3.06869898659209 1.759901327660361 0.020506444380175813 -1.8306701880305634 -0.2238086166526662 2.495094409859748
Ni 8.305395781235474 9.24581963288649 6.527035840926544 -0.05973829640089712 -0.6453934304499788 1.746070609611612
Ni 8.723146195886176 2.3430207327420565 1.3235498503912786 0.5060231840480511 1.1001927833260472 0.5473433829530768
Ni 6.979077683341699 0.6955723146889962 4.744566627284673 -1.4108692056065506 0.8788660525549703 -1.1334186352587123
Ni 0.7750730077129944 7.475656463451881 2.1800742991224915 0.434718008745161 -0.032156787238202686 0.03619110520857637
Ni 7.698858326976648 4.143597424393536 3.8656421476319176 -0.8307676543858468 -1.1405071666743778 -0.3179667852943298
Ni 7.862086031237239 3.9560534195538235 12.607771389813482 0.7232996560091544 -0.20689281473393398 -0.11548649780579466
Ni 8.538160846555163 7.214229012486877 9.301891388837577 -0.35905867023863325 0.8451447490431252 0.5875870609644719
Ni 7.15398265582816 0.8991732438327646 0.3407484937086044 -2.472550977341593 -1.1855382387720874 0.2752800450590807
Ni 2.1103010336547903 6.714220545205461 8.866704916417135 0.1625130030669782 0.40087689182599995 0.748764375939162
Ni 9.533713743847501 4.993769693260778 1.2141301270838283 -1.132967920874539 0.10050287991276884 0.09340560674635526
Ni 6.423740558996299 1.8882151794476474 6.966670926098456 2.051014500283713 1.1569259743520333 -0.7387900383352696
Ni 3.932544637911845 4.686685665984529 0.7785371732208707 0.8160455176843237 0.04479555904813576 -0.8794638340399692
Ni 6.0658644978984375 5.774068890948986 4.91234184268342 -0.21395923466241215 0.33993120538056293 -0.31313773933680267
Ni 5.459072992738038 2.765734213219916 9.342194749722822 0.06923338037552593 0.925459069823161 0.4272227288093804
P 0.6305461717821141 5.822184317057598 12.322564774461254 -1.721496262706358 -1.89708563934132 -1.3472097197743766
P 4.412047568137734 6.118389521798635 12.364542149322935 -1.1503079548148833 1.8011850340872528 0.8387141629264329
P 2.504515446924061 8.624583519322375 0.991076157476763 -0.7856771898051114 0.646575623683538 0.7564692007825875
P 6.347171431911521 7.938863842991164 5.789858154481743 -0.17798873010507413 -0.07907196373250254 -0.12644428236887903
P 4.926101420977538 1.1276230731243087 12.51878461758968 -0.008414963536572605 -3.084862794746255 -0.2861439843567782
P 4.162306458645084 6.193806346579849 7.916774117099401 -0.013281547600254547 -0.08459237933009948 0.1557150063085383
P 4.919287412867493 0.8519161468416103 3.664509141532 -0.5422916794617821 2.0345998063711153 0.8124408310522009
P 0.15323715255623702 5.654229451378453 3.517782950653217 1.2524879653197591 0.16039158584860116 -1.2871456646029447
Ni 0.37192144665624827 -0.029593300734649542 4.495746452310224 2.41131681312146 0.5135482887805027 0.5863855844572031
Ni 1.682207118011476 6.882139117898666 4.549038165538383 0.44135839687981404 -1.0516601258329823 -0.6360335865016336
Ni 6.110749848258479 5.908516257359961 9.09138299714497 -0.4603056274062782 -0.7459387335649089 0.921286169392394
Ni 8.621543981749985 2.560878454087307 9.964224772354353 0.6172048838309048 0.0831762157088632 1.4879372515351472
Ni 2.3898840508357724 5.3224661936636934 6.859491387348091 -0.03407457308620584 0.1130740317095601 0.01476430279336812
Ni 0.8460838640012153 -0.008359181986397051 8.568949093851854 -0.48145166535627404 0.3848496631598082 0.6629666634470518
Ni 1.3938956377121676 1.2071863715490518 11.468738709234604 -0.05250604031851602 0.23712950213128836 -0.9945692943572614
Ni 4.172368688996667 7.305342553686702 1.12521321885796 2.167547179965835 -1.4084330853612326 0.0585149655167573
Ni 5.648041497275856 7.9250815815808355 7.99857669275658 -1.1974995248990217 1.6613612450876742 -0.7400501359946158
Ni 5.257873751938782 2.8182773836130837 4.905010659523744 0.41863395869910486 -0.231066326656344 -0.4840783043458438
Ni 0.9077238713199898 7.493077096702595 6.671106292559242 -0.3140170566179624 0.03828886827786954 0.4464820912596247
Ni 5.274840722865259 4.12498819585332 7.413914835772478 -1.170037829143643 1.420432938035586 -0.7014061983701727
Ni 1.2391060526823903 7.726205091881674 11.41106552527896 -0.40950757091780443 -0.45326697539194194 -0.34578663572007545
Ni 4.8543229680367075 0.23561134274195455 10.222606334474428 0.04330483343522219 1.029025676262918 -0.16717852686344756
Ni 8.106773342437886 7.287150694484787 4.417675702932223 -0.7310595024602313 -0.18139827000725534 1.4811423401005008
Ni 7.380060738488591 6.551773140142558 6.9834963543797715 1.1111963335254023 -0.9010806409787965 0.16813420590849754
Ni 2.5594358078962323 5.468091799743877 2.565408726057141 -1.3095857387740155 0.5468250485557615 0.1088085715649868
Ni 2.5302925401872263 5.192546377248608 11.053711175853973 1.1055933855163282 1.5318702054726714 2.1534238531905756
Ni 0.9586429305923878 3.448278253281465 3.5236660436739267 0.8441163077786109 0.43948791932997855 -0.24781269287674743
Ni 1.5222911487178168 1.0660338759858488 2.6542630288822644 -0.25935051831301786 -0.19356678704898922 -1.963082257947103
Ni 0.9645768337934121 3.533548623745113 8.073779388920753 0.04940786100916652 0.9641161200737268 -0.25369666246135014
Ni 3.531262165630957 2.7619143764498375 6.773452512907184 0.7676326735985748 0.027167561553727404 0.060558735419663445
Ni 3.995567407994895 6.998077061480759 5.7213751046641725 0.5531913570934215 0.114875346584357 0.06221272608331867
Ni 0.5310026772733106 0.1158517477404871 0.29907507260416316 0.4874742174012701 0.3582302608000669 0.14082831900469295
P 0.21445616123811936 5.828717054526615 7.980888398734566 0.8046249345522077 -1.5140282921952442 -1.0872588488731985
P 8.60004946082762 1.8551794889966853 7.933679389949781 0.419668056390574 -0.5369337575839785 -0.8743915617233843
P 1.852711565952834 3.3458231539757057 10.248302675843878 0.6326775255452072 -1.69535945640999 -0.2858048558498046
P 4.300537368840199 6.170016294296844 3.552854677615357 -0.13355441105109903 0.8799626280532588 0.36373782088185747
P 7.02684832608389 3.9690281620270116 10.508875426990018 0.3791302441775277 2.3916455599447777 -1.6214255852350008
P 6.566562531912695 7.907751680794969 10.016015770613933 -0.1795812714031746 -1.1881962452202246 1.0291760857978534
P 2.506039752333498 8.667273144033107 5.532804915647035 -0.916465608075299 1.2382042017072352 -0.9724560073979897
P 6.944218270347303 3.9878914414687996 1.314928451581472 1.140897460134261 0.5649379561063884 0.6780014462929872
Ni 5.405867475351484 2.810882687728015 0.2754819097698766 -0.5616436016258327 1.820458537604884 0.9627796606504903
Ni 1.5283248576301733 1.5388407503059947 6.7726694917355506 -0.45608927533208543 -1.311176480299903 -0.9864813751428044
Ni 7.243571891618548 0.7387137870746693 9.139176323003372 -1.040270395938802 -0.4367260403141253 -0.42442279746673994
Ni 2.67733357271903 1.7604275759564763 8.843147139244138 0.76084496125278 0.20231702243779348 1.6590256549759623
Ni 6.279512232874766 2.2047081633285788 2.405110773086474 1.271968442641874 -0.8165304277405421 1.2458339503383513
Ni 4.235445898558626 7.0193084582550656 10.289177651257662 -0.2620789729877744 -0.5672871730648552 -0.011670494359392804
Ni 8.333931141430002 7.237892039319097 -0.08891872287516527 0.09693881671059434 0.09517941081732641 0.8173405823466632
Ni 7.456784110763608 4.277554835494335 8.170030202280243 2.250993618616949 -1.0740238382401632 0.15274846748104662
Ni 3.4002535596377004 8.620364459706968 12.121365533661997 0.16486427690797414 -0.3063137744364337 0.4786375929462467
Ni 0.46481425149173256 4.952323103318456 10.104829243829878 -2.1595549057889776 0.6811119668975109 0.04316136587882244
Ni 8.651422182424255 2.610962774683108 5.805568480770082 -0.3481507650768778 0.8065782016238366 -0.2822675321205074
Ni 3.7279520029272937 2.416586615240382 11.235827564646511 -0.30809014961056613 0.9915886144623826 -1.897149659810036
Ni 1.4015534577452935 3.4252412804566927 12.595022571177763 -0.7472194000495455 0.4723268202368704 -0.500996420257421
Ni 3.161935667469346 8.812236403119904 7.539832443163142 -0.1981099263349814 -0.7933419054392208 1.8314404905376844
Ni 5.750859526441005 7.9557310082063095 3.491529511949603 -0.046043829632940056 -0.9231718164508811 -0.24165567213641606
Ni 3.240709593449916 8.20671515246737 3.177665047575303 -0.40829169623283235 0.19695652945682854 1.0371845579246266
Ni 3.674374482434865 4.4267734471824784 9.207101368162132 -0.16733407860470537 -0.28781391586003335 -0.6905862249365332
Ni 7.358511778087317 6.0687860832665255 11.304550148171277 0.17204999602313595 -0.27573590164957673 -0.42098677520199757
Ni 7.9236933748686695 8.929199623554773 2.4763557191340015 1.041062295712478 1.0763630278963012 0.7261985748235041
Ni 4.557382830330405 0.5171260540995392 1.5935805536731191 0.5238645831048462 0.09834289614697257 -1.2190682522087328
Ni 6.280392337783787 5.85865876792628 0.3773880776633081 -0.568314585888105 -0.9850184174440326 -0.3214783979920141
Ni 8.185701513608697 8.833023210816458 11.189150248105731 -0.16272769018094554 0.4764153884839472 0.7675586258275297
Ni 0.0825148255062311 5.117047893249031 5.648749210501666 0.014325929704368877 -0.16754696594645985 1.125797628378345
Ni 7.3833089607301305 6.246730593325377 2.476847489093475 -0.03628546469459557 -0.5843801239913999 -0.9523073003642567
P 8.631479186650783 1.746908438694204 3.7162466076373226 -0.35387249805200344 0.7317830108898171 -1.685304643277149
P 2.149125455363021 3.6446323804578658 1.3488633007590731 -0.14435844364513847 -1.6052410050553387 0.547343897173709
P 4.96699454288429 1.170185672384255 8.171609854493237 -2.161777624471909 -1.731713826669308 -0.18473916145503022
P 8.463342856041944 1.6914255364399784 12.305925347732877 1.9687335426956092 1.0059446260737386 -1.1204559044504574
P 6.588047979588574 7.991906041940994 1.224448222986282 -0.9725339118237767 -1.1870374490254332 0.48668437451012314
P 1.8027542708078192 3.5689796512680485 5.769660200482049 -0.8835475171910396 -0.8506006299513738 -0.6396914949691951
P 6.814824702228332 4.056766455534511 5.974671112129546 0.9815106614010901 -0.42241296612556284 -0.48300923965138104
P 2.508280844215231 8.813052995303533 9.99045189864316 0.5576105692070397 -0.352803947578173 -0.09711339461524565
