# total energy = -340859.19356512005 ev
CRYSTAL
PRIMVEC
9.39402195597705 0.00000000000000 0.00000000000000

0.00000000000000 9.39402195597705 0.00000000000000

0.00000000000000 0.00000000000000 13.74910069485978

PRIMCOORD
 96 1
Ni 1.5058523432462099 7.86739014649452 7.5228756600302065 -0.4911480667084316 -4.186532162617828 1.2354942589752398
Ni 3.762672204514648 2.7313119158499775 7.648349733968728 -0.053273771722475986 -0.8326260477508242 0.41446671469529267
Ni 4.793431275767061 6.762756485710743 6.021116292198394 -1.0048765898205403 -1.065269746196617 0.5654637467028713
Ni 0.4033764893311204 8.292601161314927 0.20813113469990488 -0.4784450173194664 0.8060940628985667 0.36532573419426756
Ni 6.898237071954556 2.332516891080714 12.728986325180895 -1.661120846942094 0.402804447866016 2.055162203903499
Ni 0.14002071710857666 2.620096088604069 9.968469334128214 1.7919655723715135 0.9922758703373943 -2.5042310820536935
Ni 8.839502337985447 4.117409265791783 11.699330112119096 -0.2129901858809235 2.147390759622618 -0.13316154648805456
Ni 5.561580460149012 1.9221202490592593 1.6873176069080003 0.07119718897011608 -0.3455454662435468 -0.21581197160043478
Ni 8.234555498965701 0.8100690684517338 10.055184612422346 0.07676696974840973 -2.737279729247389 0.31966165649824946
Ni 1.687373031638193 9.093206691936816 9.843654720538764 -0.8307229171908402 2.0133820346429196 -1.739242273835869
Ni 2.6872445583357822 5.587554931163028 7.649215862803264 0.10911093329675403 -0.3827521572008311 -1.0078644688042706
Ni 1.7905099999068668 8.351586225870808 2.5750414193706788 0.2904932624644094 -0.1914854790399283 -0.23095474077914419
Ni 1.5051947617015513 5.700856231307712 1.9321887619101898 -0.1949248437387804 -0.9523319829546051 -0.433778270539711
Ni 2.77939052078659 0.1477022089523962 7.682997705556791 1.6269048631820173 2.0828511851783356 -0.41797807028266076
Ni 3.7754574685472253 4.596053478126738 12.63596014286245 -0.898600297759104 0.359973982964051 -0.45387426995863767
Ni 7.817188492570867 8.641138168028137 8.164738187564883 -0.25073706561239395 0.8840673942502516 1.4172087746713333
Ni 8.110094100605956 2.163424493882779 2.725071466991167 -1.6051111643456937 -0.7006014430806901 -0.5124985073597496
Ni 0.7867765907377182 1.0545071590366553 3.3841485399627977 -0.41820381314022165 -3.027327162423631 -1.9007792861428232
Ni 4.36196384225033 8.179769562273572 1.9006483328217418 0.364378796899966 1.3556393385989685 0.41179019630439406
Ni 1.584762128605246 8.017309344654622 11.765628422853785 -0.6878595700339896 -1.3564636342724767 1.7462541863773282
Ni 7.149038673087359 9.42596174157822 12.353374807469674 0.5371237621075975 -0.5166446683176392 0.9327969982454709
Ni 7.424302307681464 9.232783071801645 1.3438881299923746 -0.6932606864449028 0.9247923827734396 -0.6365434362585167
Ni 0.19848159523314274 6.843225678732827 9.405842564518284 0.921344276323839 0.7812528354851707 1.878670884279558
Ni 4.804037126680197 6.049346267910589 0.32356018084266186 -0.2781630230338306 0.3419238103305595 -0.0515030529752984
P 7.044858968369298 0.3913277166285609 3.510076345167133 0.10157117327628315 -0.3898008365174964 -1.107874725351337
P 8.921916093575309 8.255710836659578 11.822247133251102 -0.9483886820361409 -0.6590097356818327 -0.5522408202546941
P 5.25773081640639 0.6473054239200348 7.361832060938894 -2.3968985808136014 -0.5648178855887562 -3.0940393190392004
P 2.4225398045444817 2.0668821291048247 9.682446726061286 0.561719963389723 -1.3144541226099105 -2.9647621952072165
P 9.004545911672698 7.886150008561423 6.336313914597411 1.2407143697235985 0.4006956290531293 -1.0255292330738854
P 9.166696126563451 6.859035817870835 1.7096321669248877 -0.967143851156457 -0.3966469129050524 -0.7558040563947629
P 0.8478959771071184 4.869823463212261 8.700926421470706 -0.48661906848982645 -0.3133441989206539 -0.03440933071780526
P 8.31959018671213 2.0605223761657694 7.188538657072797 0.4942706714978133 0.24446331678854027 0.5452736449082415
Ni 8.678977288912208 8.373136112491476 3.133186301052656 0.6290209026292264 -0.16930920005320518 0.9098756135626072
Ni 4.763595861683691 4.678673902202061 8.564136308550818 0.8879852412474191 0.8133126921341929 -1.1816903257809066
Ni 7.485316481003719 6.147044097402729 10.975398589604403 2.561592393581982 2.3318129040578612 0.02711562526986943
Ni 1.9817722891818643 3.280749478478467 11.284120912592947 -1.362822229500653 -1.4432702476450756 2.7243609643031923
Ni 0.9781525476797209 1.3553131396297151 0.5799850435845035 3.1007997776914857 -0.5006110118935443 0.3653038798173967
Ni 5.226937212072233 6.149768363802029 11.062320536384 -2.7480441668527447 -0.3705988096677489 1.523423874477531
Ni 1.5999710503309936 6.468789353182133 4.218485185619055 -0.4345956242346838 -0.9760424391976673 -0.01678956075351302
Ni 0.40472171329105067 2.426006198687039 5.135220556429866 -2.4206676582087407 0.5699708905446055 1.731072079320251
Ni 2.7125520537830727 7.461925366058004 0.40913502485791675 -0.2088712786165435 -0.07749767726684717 -0.4378280151290524
Ni 6.9114732490463275 7.836624724226562 6.218168117273007 -1.5191118773657386 0.2252450919888766 -0.6341307130519659
Ni 6.183793511727081 6.545040630296335 8.970793190387578 -0.005539955981622717 1.2995440382672974 -2.0080423675975614
Ni 7.9571876034286895 0.6980359612860352 5.5589125578821115 0.7096779514606616 -0.4825880929535624 -0.6073981821531281
Ni 8.29806848215766 6.429221732237816 7.712434813104539 -0.5831565359969441 -2.1061446084886373 -0.792048640549094
Ni 3.6046083892228458 8.76255590323832 11.201750369504591 0.7030347351125311 0.4633876087657116 1.437964519161446
Ni 9.02791823857428 4.143806467798793 6.760570496775856 0.4932391449095054 0.541611622675622 0.40062466660587776
Ni 8.326870553813707 6.4278408109940335 4.654785843489027 0.9406679163531154 -0.13351301629020232 0.7243993168312363
Ni 1.3383851118657881 2.482849426211745 7.4094043280861195 0.4719236712611808 0.4267774137418456 1.1990172470951286
Ni 2.78620118678484 6.91149203709046 9.633500113485724 -0.26783927251031936 1.4951808204714379 1.0462998899623337
Ni 5.786783351150462 7.8956191828045075 4.028088085776387 0.7095619947080876 -0.5177217034319019 -0.7001281029886974
Ni 1.7660479664455655 8.575877896731802 5.333345178824479 -0.3164866012043775 0.6228232584589468 -0.8678545319358151
Ni 6.791849772050854 3.4767369608529406 4.391036461741894 2.7171320506549206 0.2165244242864271 -1.1237957674569679
Ni 2.8564778658647154 2.885007510880834 1.3106840195959402 -0.28629696499487467 -0.6548869717627107 -2.386464272854154
Ni 8.871930502159184 6.196231196943195 13.004023563843196 0.9920125893736785 0.7874229688516245 0.7601487065167037
Ni 0.6888711533579072 3.1544562458157426 2.8314756761345876 1.578546269372972 3.446958966259631 -0.5788288551558677
P 2.0613490501076255 0.9422955654516921 12.374988573440397 -0.11711966253384347 -0.052695016400870535 -0.4731405743874174
P 8.442370055121964 1.6804026672648116 0.5977932912160661 -3.7807745456607593 0.46203443717192694 -0.4154625029496587
P 5.7008750193518445 3.8743389448197516 0.4656156431308537 -0.8205932849560061 -0.9901192290057076 -0.8496385231484206
P 6.045983208010764 1.1740460898335288 10.748854232251851 -0.9243221280052404 -0.5626432465349407 0.5035754938385069
P 4.010993783821882 7.507016671977454 8.03544168604748 0.3827192470803667 0.15168325944132585 -0.806116945716702
P 3.0132828821996003 0.7368079085613151 1.1451791994252212 1.325496496467001 -2.1490298378879373 -0.9539756892056149
P 4.303072717915115 4.6102478454692974 6.389619353411854 -0.14348298301872062 -1.306245875767505 -0.9715098414346366
P 2.0956560186946733 1.3353884188265583 4.916774785500888 2.701576876529141 -0.5026223858966182 1.5006030199282736
Ni 2.842424408853154 4.7303879936784305 9.997053464472318 -1.4380555362133558 1.6216418150108651 -1.6145699957657484
Ni 6.90359166453249 4.858607000864798 12.836132662067572 -0.7155035570035033 0.14656882103289595 0.21828691550348855
Ni 7.9974503820059315 4.696982851209771 2.05883145219379 0.24623840641109204 0.6989397391075511 0.24849994875175913
Ni 7.351442272533287 2.8467268709596345 10.539702906755519 -1.186135506036454 -0.1547341304525077 0.4652436881378439
Ni 3.428836842335592 1.0521868355862167 3.149245381775427 0.4752694478049621 0.2003753253303904 1.5524171763860877
Ni 5.566352623358821 4.173416425352566 2.541191000256066 -0.7472134865122745 1.0024417551268026 -0.6070824506849222
Ni 3.822596671277183 2.3757857567192526 12.332490017611317 1.0060587830540995 -2.7190714337694786 1.5695548645076387
Ni 4.587852496862637 3.039604932030079 4.3700004281282645 -2.455108870605746 -0.049894313727281814 -0.3337926965829929
Ni 7.519491933281835 3.842624726323072 8.421791510382976 -0.30508864378008105 0.4976627278984978 -0.5344207613541377
Ni 4.479736696898692 3.4487897452049485 10.399599522252755 2.1811778833753923 -2.3784717415669814 0.7774113502518935
Ni -0.22004933049573933 2.0512316883419492 12.285852455659713 1.5609393549244859 -2.13250355809814 0.22611721018118475
Ni 4.939583471078476 0.09803883249315604 13.685566440586985 -0.14897743047438858 -0.04656833467784238 -0.408233075080755
Ni 4.141364022061491 8.951723325592477 5.710606286810586 -0.47560214855403254 0.18499601466084267 0.07753701514521485
Ni 0.4143994348240125 0.326030808646165 7.192993302336756 -1.3297838109884452 1.9449384971585404 -0.1036375688870086
Ni 5.855510016589356 2.8363840526643607 6.239576154160473 0.014889258407006617 -0.4664233102682419 3.629748974408091
Ni 3.7363501546841698 6.075292556858406 2.59572048014578 0.6323114004550401 -1.1246933395705727 -0.9165021177401893
Ni 6.549624913064814 6.8823705686841485 1.5004254166983628 1.1543687551478183 0.00456062278748892 0.9098848695339878
Ni 2.2648329620912073 4.048673206330822 5.012908510318947 0.5052279418402654 0.19566275034606948 0.08624302755964502
Ni 6.438822422789833 1.6645925281268044 8.531605749536554 1.7204115142826113 1.1410504407723574 1.3091733338269453
Ni 0.4614888492370174 3.952825999185793 0.4564273501475592 -0.08680301382817308 -0.4765233748167213 -0.12311547510596216
Ni 6.575665142233295 5.10167732183683 6.2450340809811395 0.2976414434734165 0.8160491172287493 0.04061468819756876
Ni 5.833227396247495 8.359552356583242 10.617179164347197 0.9707138278959023 0.408701015856109 -0.4124674248770767
Ni 5.717530620475841 1.009537975404071 4.933658661361101 -0.8770056023074638 -0.32878598739702086 -0.3313884580168744
Ni 4.310400055127026 0.5831066771172188 9.392423203996215 0.49421230745605205 0.9658205043593431 0.20601632566625167
P 6.426976560963911 4.629928321698723 10.078929881999972 -1.1082668185834332 -0.09273557726252415 -0.3072105752190903
P 3.5608322463927133 7.5031463348860346 4.016373740259397 -0.5879840392925745 2.22529852784369 1.4232074154569296
P 3.379302163978664 6.783536062521956 12.211249829418191 0.11529289373774983 -0.6312320513479323 0.08123940369746654
P 6.115762003921112 7.416777696006156 12.878851977415218 0.2596274261234883 0.23021709128217124 -0.19720592646347326
P 1.2304102222328404 4.901575257797206 12.436749571516945 0.8409479373529583 1.0724323253833272 0.9495904156537259
P 3.232116626239928 4.052261722760245 2.8425033186385122 -0.29756353904762944 0.7646103418324831 3.3296606120560783
P 9.358559633250708 4.471282077038794 4.752376581129608 1.1587969661225008 1.2983723865566994 -2.309353803723397
P 6.5886194986630695 5.632683813170744 3.739645577625116 -0.4693697944910755 0.5178728842977856 -0.06509827516122982
