# total energy = -340869.8221131505 ev
CRYSTAL
PRIMVEC
9.28209945320728 0.00000000000000 0.00000000000000
0.00000000000000 9.28209945320728 0.00000000000000
0.00000000000000 0.00000000000000 13.58529079875654
PRIMCOORD
 96 1
Ni 8.434801610844927 0.15627992464244947 5.675472907824473 -0.9253863076036966 -0.6789751230601662 -0.3891076671052138
Ni 3.5519995796548867 3.1684539462379666 12.866303323321784 3.0485451912621433 1.532727411266644 -0.7593892026428599
Ni 1.7257186568389034 2.7447075398889136 0.28653284228843123 -2.911270908157296 -1.0029634319582277 1.0639726246517482
Ni 7.606652693503682 6.3793085229894375 8.319509581172165 0.08531177399462726 -1.5463789406118078 2.219835704956906
Ni 2.0149024667443785 3.3200027847655447 7.312663540687339 -2.1661423291985082 -0.45762730924316675 -1.1133637734903665
Ni 8.449198147168579 2.3101010771254997 11.978775887272585 -0.2939740219241582 -0.714287425208215 -0.43561146709370785
Ni 0.7644681455152942 0.5610778530733183 13.03708374380228 -0.3185306282175998 0.4680675307398843 1.1436655097977013
Ni 2.4930419761602294 0.2056309912611441 8.420747583992803 -1.019977707128037 0.0472447919195767 -0.2569820180808413
Ni 3.4953602085092212 7.491907379491437 7.182977759320773 -0.830186585071396 0.356166950513135 -1.469372344048766
Ni 3.209248773538065 4.560546100768011 8.828591897479393 2.4391394917606832 1.7949233694482571 -0.4861632118993304
Ni 9.058503004611207 7.470465729647699 1.9968608499472906 0.31883504683189606 -0.467795250915104 0.5771823206913802
Ni 3.154707156879276 4.8273786150788025 5.61880847501016 1.2337795902769784 0.43470875277378035 0.331905506862609
Ni 0.7891037657967939 7.415571393207931 9.332578341161422 -1.1480548971146487 0.3922089317383568 -0.5703964081177982
Ni 1.1787709438336034 2.3445469483679715 9.434997955248344 1.251104454708671 -0.38161547249322664 1.1812002735183655
Ni 6.93861999252801 7.346540419230494 3.2809567050111434 -1.0618969730696421 0.5613993468255105 0.09693213184237501
Ni 2.2166767456635 8.506125263398728 2.306891327118589 -0.3963820892794399 -0.5719344420288796 -0.6895639543196059
Ni 3.553623947067291 5.214776319787996 11.371580851046183 0.5245307559339353 0.36999202932168535 -0.4449697683801562
Ni 7.8960592737971425 8.45548212852971 8.158483719055644 1.7983200538346318 2.7130272844579277 -0.008140369718947271
Ni 7.058767488448936 4.969042017639462 12.571556751186286 -0.10248237223664287 1.1037925848621637 0.6572022501594488
Ni 4.691312318516313 1.829019142168322 3.3940674413015346 0.36898209999993226 1.1942087699628918 0.8736477415788244
Ni 5.7225907013035995 1.796726718009723 12.706227019984059 0.19918516167703115 -0.14697685510459205 -1.6693699743247636
Ni 3.556167242330141 0.7298681914211312 13.238621329184165 -0.6071981503271799 -0.7979493223042451 0.33042892231708254
Ni 4.725256956385814 8.063461938269787 1.47812050911088 -0.3982826487362624 0.5033032140137267 -0.62582887805449
Ni 1.5309802093403682 9.119681322412106 11.06724401370785 0.5020251186322514 0.0477178749012533 -1.589685830929559
P 6.070223891757133 1.7681192873524072 10.372926263369624 -0.1468706685440309 0.4775898684080227 -0.09610037996969902
P 5.593448850967702 3.836811520696119 13.554003864926848 -1.1129565107496187 -0.07731152939797008 0.23621444651618675
P 5.194300008292201 8.57657639859958 12.591173540268432 1.5201079227304208 0.1574309605583805 1.2765270085468339
P 0.49540235806493466 7.579326192577289 4.512476892090191 -2.1220872478608226 0.6595766639288964 -0.2875866303405757
P 4.040302988022639 3.0426536517218725 7.4315616660156385 0.5104843051431982 -1.0533351995425602 1.0922650438385382
P 0.11092108901846985 0.3957153940706534 9.219250403742745 0.4562715665462207 -0.26698823736393373 1.1404243771525842
P 8.348013980525035 4.706043010421945 2.465486207376202 0.48424722582354024 -0.01912103710016707 0.4992622111751338
P 7.18813210917282 1.9449154365184989 4.779156251759241 0.32056797036260276 -0.2375323939966619 0.3593078101349618
Ni 3.1781351760158967 7.395252877403627 9.444466624947735 -0.10243120728373327 -1.8903480635071706 0.8060243860028957
Ni 5.660391352557761 5.632108795382925 5.192039817064084 -1.286103339381359 -0.17729838890626884 -1.1253168320871847
Ni 1.646384552417074 7.732490116417773 0.302757952213476 0.5189517191842611 -0.4651344162534892 -2.2266817813444617
Ni 5.3834877602900635 3.0866415212497835 5.876548244651286 0.7623642261107839 0.8030406207842234 -1.4849840824440943
Ni 6.951373597240259 4.000501345368982 3.8761963970822504 -1.0736607984737896 -0.7074937993251492 0.2656949724738069
Ni 9.362760944103796 0.11118284422435444 3.254492511128251 -0.09680666200810426 -1.0414387052152905 0.7365776040649831
Ni 0.9898152443232275 1.484848174828084 5.044599235774965 -0.9992237624101372 0.9804691075104534 -0.7573017239862119
Ni 8.707621079332865 2.355806135060809 3.210299507201403 -0.0643804231585988 1.3498476716178558 -0.3198676018614685
Ni 8.498662455401167 3.371787617872996 5.52417282956348 1.4630983381145963 -0.8229139626693828 1.327375972877901
Ni 5.703915117110699 8.192213940426708 9.270887651468154 0.06820725310385672 -1.7901151494263365 -0.4807942342779333
Ni 2.4035532548859977 6.945470181958606 4.297747586899683 1.4429136356366052 -0.8046781563876464 0.3214218337224658
Ni 8.560156364585046 5.614677012522953 0.6085938486209708 1.2731264675057168 0.2522252201221462 -0.05933283343236232
Ni 4.05269459085441 2.9784400873846533 10.129029816921983 -1.011992374929715 -2.0539177899734367 0.6424420611311388
Ni 6.11801742207982 2.2232577542086123 1.4107241128552976 -1.1590268227451201 0.5903178296320737 0.6405579567345484
Ni 3.3655036365118662 -0.179813759713364 4.029532967973424 1.4391012038690505 1.1986056134790068 2.453209082479872
Ni 4.7143690536729554 0.9295651364722746 8.76612615247792 0.49962010873518464 1.762385544721552 -0.33188622358889935
Ni 3.0190956831922597 2.516340045903858 4.939502664192402 2.076663568310385 -0.7734071141885067 1.1686738589165808
Ni 1.111614953955057 4.831509149356059 9.245632915150042 -2.4217459788745845 0.6387517567637451 -0.05706434911315979
Ni 6.922005034423988 7.37752406735967 6.107607547491183 -0.1639227389303112 1.7661771505535 -0.3927079828619624
Ni 0.816669744890271 5.102722814630592 5.643438526031959 0.39916659400311255 0.6705899843202644 0.12628204575940188
Ni 7.2788831959789775 9.266050749418989 10.905157207618542 0.4130284395868693 0.12252874936455671 0.046921347141886935
Ni 8.298484697595951 4.611291338731524 10.496212965341268 0.5414360163297062 1.6247651911311953 0.4982941908349096
Ni 7.4706977821351845 5.22099532645263 6.508807734156064 0.3833568806643656 -2.2280218403121244 -0.3090869663061967
Ni 0.3172732994107215 1.4440533475279855 7.359600333226225 -0.41949116449307755 0.24979192809030523 -0.08481015176786039
P 1.9133098877228596 5.82483302729008 7.372792053034848 0.723009121351929 0.8302950856248021 0.5411498525478552
P 1.565361105886344 3.659560548654554 4.098994631367634 -1.4225065327351631 0.29218479123421937 -0.4280531951304757
P 4.034111827656504 0.7986847489001299 1.8136229237285781 -1.0780789821461434 -0.5726983167780976 -1.09365626775911
P 2.5106129905126955 1.870278074443393 11.52464638463197 -0.2999526081050963 -1.6267307994979983 -0.5796600928079114
P 8.861722495222793 7.689476867337305 13.288941446990602 0.3531806141913014 0.6662111385262784 -0.32972032628583214
P 4.730139340722527 3.937875020046169 3.7694838119768326 -0.4715192367339105 1.9055365983221504 -0.15189100457675775
P 3.0801811799981635 6.344862651746966 1.3429749968187363 1.646639108386151 0.894015249491583 1.2227708978713006
P 5.050548133344163 7.733186273880231 4.708865696879729 -0.5252655772174308 -1.9442836371833612 -0.3741389616105234
Ni 4.033369259696547 -0.24566468640228722 10.74024585865155 0.034300573054082864 1.665081631362055 1.2649765847050731
Ni 6.901250259943209 1.7877694919927503 7.247507843250924 0.7866796629276968 0.3095443655585895 0.024911161419382905
Ni 1.8442510674469252 5.228578801743684 0.15203986159109908 -0.8842764249372641 -1.041732068085993 -1.5527246803241774
Ni 1.5741605362118258 5.296310281791196 2.6463599828524034 -1.7018556056572949 0.7147656503962141 0.4034492805388665
Ni 6.589148946373583 4.149896736812687 8.785607422907374 -0.7138590794215448 0.3393527071692736 -1.2859195055053274
Ni 4.65211401233012 6.275683164177537 3.0220204727445377 -1.4944051186476779 -0.36104844697515237 0.41186758650954874
Ni 5.925618063655146 3.9353131605843203 11.001885038292397 -0.7847261387457518 -0.19059099225011691 0.13036752868268517
Ni 6.142373651166386 6.913149911501509 11.34682920452094 -0.7501651129414306 -0.1949837220011739 -0.6157686656050104
Ni 1.261158858990753 6.377247896900559 11.460062464524723 -0.25617906256357176 0.2054799935468074 0.44426991409965416
Ni 3.2582118483976825 3.955687368985621 1.756116604489664 1.686168276829025 -0.17925242730884614 0.4519631689788539
Ni 7.589749990315176 0.48992963220005686 13.468403415132938 0.42076566033012697 -0.3155100962237211 -0.5030013665025918
Ni 5.246892384056105 6.305645781361774 13.419985199513938 -2.1310884229181686 -1.0584946322563125 0.4705082789708929
Ni 1.5552807458299376 3.7492163477197757 11.526752493008397 -0.8784073677509968 0.84836942662801 -0.4312025393927348
Ni 5.976159095429671 9.5953703575601 4.572687086913296 0.656278967014231 -1.0056227239579456 0.06893076153344257
Ni 6.100771281209835 4.9339463994320285 1.8533735148349881 0.7896122631934596 -0.2264432260620358 -1.0633205928900462
Ni 8.086945650003406 2.543109620860282 9.59827936754323 -0.2296668752056561 -2.4487335632070217 -0.6740730577728585
Ni 0.8046299336295298 7.78025580044196 6.731715497215539 0.30365036867165773 -0.1709768175636152 0.03897972369730706
Ni 6.903570784818073 0.21938242166958452 2.0753707039335687 0.30642613164458193 -0.6730456449496086 1.341243989109245
Ni 8.164683233311328 3.096638342410695 0.8272921795574457 0.6788972186343791 0.4303335065242201 -0.2654301488481945
Ni 8.366476076429448 5.91334712811687 4.4016476958567665 -0.036045580769647596 0.2159847497328732 -0.716590876530411
Ni 1.8426545463330193 1.7169470728119198 2.712752055942145 0.832066318592612 0.6489466950188759 -0.5028401583343792
Ni 6.991462984978399 7.445385496800175 0.7268589347634083 -0.2809822376501806 0.397348052737135 0.24227556510860215
Ni 4.413758979283653 0.8134822719221587 6.361027428025263 -1.0188883307186 0.1515397918849261 -0.040932476548303696
Ni 5.146320835979526 5.883737230713613 7.551275687889941 0.7284752866728228 -0.28422876961193627 -0.7188750445788975
P 6.090774460048924 9.093877085803625 7.3034250670555325 -0.7147607653002078 -0.3982155429437529 -0.3691947302313706
P 8.007676520278073 7.072672073499118 10.421833645632244 1.4384435156803934 -0.31165961212937937 -0.8112175001680609
P -0.12061438552574918 1.1852220029857234 1.3942177553154196 0.20523625296711753 0.1778851146476743 -0.6030959552333485
P 3.351292742178203 7.314545022255878 11.932124055188332 -1.7804786547778366 -0.7059652784957648 -0.12444242144750181
P 2.153623443763712 0.25473144119335345 6.196454875690002 1.3722347810638043 -0.7503715725252819 0.9588255610987486
P 5.020492695164934 5.780993671354161 9.613332148301494 0.12864360401304295 -0.13909153881924435 1.3572632473556367
P -0.27319353709776656 4.2323403445668335 12.58205759035002 2.0794321321944573 0.11955861099263924 0.21090347855522387
P 8.60987128950412 3.682088204139728 7.782782387925712 0.30096048054432045 0.13922189374952149 0.05911197567080788
