# total energy = -340891.9341302112 ev
CRYSTAL
PRIMVEC
9.03365061302170 0.00000000000000 0.00000000000000
0.00000000000000 9.03365061302170 0.00000000000000
0.00000000000000 0.00000000000000 13.22166080755348
PRIMCOORD
 96 1
Ni 6.378154945528084 2.053466264330304 11.440015729603918 -0.20602223920352258 -0.6971103992082962 0.7108377760967176
Ni 4.930656943219804 0.47566146269044696 5.999368547288087 -0.9907658614507711 0.12387575031075442 0.9564470335642432
Ni 2.4861691040058056 1.7157432291673862 4.643196237743738 0.5536806380250141 -0.43102410483334147 0.23004199915688772
Ni 3.4771967313834375 4.20455015920683 4.911516443904486 -0.8183348279391326 0.08275635456262521 -0.5668701401320947
Ni 5.168169690056863 4.743768775466682 2.8505901907434326 -0.4811498178451391 -1.217961135187483 -0.488749484569268
Ni 7.226749000740043 5.998687410017758 2.564671529458949 -0.5031309501019205 0.6743296538683548 0.46427541068730366
Ni 4.92965420798099 4.601235833142207 11.59460317555609 0.28688960427355104 -0.13872027152275465 -0.2170126767767553
Ni 5.227367203750125 7.706426824576226 12.817170499861735 0.5927927735351275 1.3906775611500242 -1.7390887789771405
Ni 1.784615782867589 6.5800299399586235 0.31470077609878294 -0.1614501090201026 -0.4117326035935812 -0.4122694499336577
Ni 2.713690633057919 1.6048551655957712 0.34519928456510707 0.40080335827558716 -0.29927666508399425 0.0347541156517337
Ni 0.5334415965731684 -0.04531459914361991 4.706871732138625 0.9111416247592244 0.8141516430957204 -0.26613411689375455
Ni 8.909257428613744 2.0561673259195437 1.2380871363802701 -1.8854357138072173 1.0891460385935825 -1.0528739436354253
Ni 6.849566978882149 0.7168734895301596 4.63573895900823 0.6001831524619275 -0.07602340671416585 -0.05345632004692728
Ni 0.9408276298813011 7.35646319257913 2.560890043234014 -0.9368732251973736 0.3205312035873964 0.45473121864229427
Ni 7.455706880269376 3.83989781100872 3.8265867265547255 0.18494999191425568 -0.5409721893194102 -0.24468417455009472
Ni 7.8024816335340255 3.7002646705910864 12.611164416920294 -0.8081041513500599 0.5275016656368012 0.35977343691747077
Ni 8.002712503518943 8.84235421078797 7.16619282596644 -1.266927537783857 -1.5239944022690204 -1.410000172738036
Ni 6.974999220241976 0.3882066892943734 0.2877380385556303 -0.27997796475538234 -0.09790632283018622 -0.6681363805734493
Ni 1.9558215328316824 6.09706386723119 9.58265015011271 -0.07584702903730163 3.0226770652461297 -3.6583332138036866
Ni 8.989132968988507 4.70240368845288 1.5494599155242845 -0.1986948523041739 -0.5546466014827093 -0.7117734005371096
Ni 6.647014460641599 2.066294048466491 7.119573767647281 -0.2160847656458472 -0.16442050450233617 -0.7729386591925205
Ni 3.288248891247886 4.427952343494083 0.4602482476952625 0.41494828231740155 -0.41325238267221737 -0.08613478411655487
Ni 6.05451537196257 5.676050571691059 4.879679148389582 0.30527916252433235 -0.19484411109951605 0.5305857038787636
Ni 5.529217611585721 2.937734206551982 9.22422379404605 -1.029817576036594 0.6847940437347884 0.17194098124909743
P 0.18886111708787034 5.446695211526519 12.375474660814701 0.05481129141292496 0.7901812483230519 1.3696647063437832
P 3.7325599722015568 6.226877429229081 12.422491199769066 0.44306715204080466 0.014691026353271472 1.613081841255996
P 2.343229647395324 8.498696067049366 1.3704915494276382 2.187596385307226 -0.9419768649725261 -0.5318807685411033
P 6.35041260392088 7.840983053244187 5.909302145445696 0.6643987679078881 -0.29133555586004667 0.07074698880657494
P 4.764934619291391 0.9669348806936813 12.624068083723202 -0.36765361099649585 -0.45705575301041285 -0.06666999052372388
P 3.9775706492027245 6.279191301012642 8.074323156776664 -0.31749961584992414 0.5638773760523579 1.0535714839230823
P 4.518595995622603 1.0920509442755033 3.9560931444254117 0.5121251831807309 0.3160623691827653 -1.4425444252226447
P -0.0026586034304787167 5.672400976767806 3.6288961191748066 1.0866358705772188 -0.7593781468992663 -0.2244418793612909
Ni 1.4104600340277402 0.9661579867248701 2.4289517665679323 1.0032552521670335 0.3670792265502646 2.0526121837881357
Ni 1.9474202375875598 6.176180580938743 4.766567903356055 -0.7513010263180867 1.0496366676450504 0.2904762931835449
Ni 5.601911399574379 5.386467861642042 9.335802028538795 0.8399158965440181 0.8294540777807456 -0.42207023807416344
Ni 8.401810162217954 2.435174145239063 10.073900983988944 1.4823250475546923 -0.1485999925303118 0.5791065342972865
Ni 2.1517343177341353 5.422999945477774 7.079842868063222 0.4329956267374156 -0.9989414552830281 0.0744293227541686
Ni 0.4786723785021308 -0.09575579511631448 9.012915861450013 -0.08591161236215526 -0.11130511273459541 0.19837217885743255
Ni 1.5079782944151603 1.1228105252499512 11.0597342621565 -0.8702891095192367 -0.2698948694877674 1.3471336151208024
Ni 4.059704602277521 6.717278196565022 1.5703104849360683 -0.21075743989566284 0.5625874535963408 0.19867351214793527
Ni 5.694289512656525 7.804116724328851 8.316517141458352 -0.46779679357700077 0.16195893033572106 -0.4739170475421258
Ni 5.427056054687033 2.910570018595986 4.863614607171708 0.3883067684704732 -0.45590235613226 0.19090595238737443
Ni 0.9785702229242508 7.446176378675237 6.969653105698458 -1.3367337599437172 0.15516299045981022 0.4315100433308246
Ni 4.870745771113333 4.789063500578543 6.867105811910605 0.3004927968792825 -0.36238799172218233 0.037310820635316384
Ni 7.866846395484964 7.083917947939162 9.284990452883294 0.6070050604797674 0.4296452222079439 -0.4353386730482954
Ni 4.75459108912524 0.5256853039961754 10.371216499122873 -1.2245902104682265 -0.32334938976248184 -0.14306954963038587
Ni 8.215680821132043 7.209124348028985 4.972732978551577 -0.5792530871774798 -0.27262126727999497 -0.25507605930738003
Ni 7.342750110664531 6.085464659603821 7.110213098688185 -1.2161659909602733 0.8551149728819595 -0.2719936609983251
Ni 2.1972729514175984 5.320766119372686 2.426650895709139 0.4809405300478104 -0.9732489356129304 0.9098149355280009
Ni 2.2821802352880347 5.072313621416667 11.420579829907437 -0.023903031869842703 -0.3974174725224897 1.9080079426807788
Ni 0.9556879854475174 3.4274664837287134 3.7408049852868364 -0.026937190710476188 0.40367990849243385 0.1822657602138732
Ni 3.7640603125416154 2.7053977416233983 2.4382988850508287 -0.5288584367750118 0.38084208466231184 0.745131150061949
Ni 1.1667050344877905 3.3815303694100445 8.39260758214786 -0.7161465899041408 0.6561121024190636 -0.6215099389641618
Ni 3.735595278870401 2.680934615256642 6.858789432984003 -0.6347724604010229 0.5824345702292549 -0.40838579860853536
Ni 4.28962004879167 7.106194930812286 5.852687352516192 -1.0584568370398417 -0.19668167852888707 0.38469488274949876
Ni 0.7172194783558047 7.380953419898288 11.104806759458677 -0.03376552648621927 -0.35184903986407146 1.1102385975978235
P 0.12014665227666968 5.663864176761682 8.119118320999277 1.597937786525706 -0.12090535482852083 0.48678516175404557
P 8.718909372604172 1.5700485090628644 7.918704067903119 -0.42900476041046764 2.3830529331797603 1.0360337321496351
P 1.8501007175177429 3.1975962054685656 10.525130034725356 -1.168508794093626 -0.0457581800717212 -1.8772956011985864
P 3.8969995177163517 6.069917746576795 3.843880747646498 -0.2849473929455157 0.8919287992761994 -0.15153927766429384
P 6.830804086170276 3.960361544428474 10.558792127701887 0.8203868253721549 1.6465810014547064 -0.05188331913285258
P 6.3658782140907055 7.935989958709171 10.605729170529209 -2.325706276939491 -0.3561620654171285 -0.9257660595406185
P 2.414983935700769 8.418323675880595 5.7969578573651 0.18514076776882307 0.8291041506404947 -1.1492723144615176
P 6.683673015588533 3.8215414325828525 1.6623995211926093 1.240844981764192 -0.3266280605137536 -0.9376304150783722
Ni 5.172939457679332 2.83320583314366 0.34669345040744887 0.2581999496483424 0.5939497699577061 0.26712064917673994
Ni 1.641911201177911 1.2646569101136171 6.931773201163346 -0.334300746567663 -0.5234274955674275 0.03537323729297133
Ni 6.860398326191507 0.791815753202971 9.308789605916242 0.18494099305319117 -0.5637999858472031 -1.2342938109092356
Ni 2.7491025441944346 1.798563739702992 9.052051443446343 1.202035465096162 -1.2787116749029785 0.09612300567751832
Ni 6.532621340559533 1.6290472824385234 2.2013408043728977 0.16667099109940972 1.7483768891472855 1.3184964110000843
Ni 4.226899411286356 7.13525618543631 10.533300971874075 -0.1828442584251625 -0.1806768184601985 -1.3263076795143869
Ni 8.236955068766353 6.948169277365585 0.5252778863450895 0.3167845920607706 0.4307896202250323 -0.4742584900419445
Ni 7.769039058271939 3.924425681545551 8.29780845065128 -0.3004141211225471 0.1313142088666706 -0.17142058996925316
Ni 2.951880903704988 8.438459683514088 12.325628782429735 -0.07693152035073202 0.4157044437571357 -0.38407653243920953
Ni 0.0035971997486123853 4.942436823863176 10.283186282170833 -0.3355060797296738 -1.0947955235698756 -0.39721692647590945
Ni 8.68302771162605 2.1648421450451263 5.673679238356025 0.30608623180665995 0.8520229642201972 -0.124858683049314
Ni 3.6553403251620322 2.6130738304460537 11.33290734552708 1.1104836237290938 -0.4216406067359126 0.7578449980841915
Ni 1.2175735221433315 3.290489236646319 12.642009817577343 -0.9566195545863654 -0.09932917131964183 0.1430574654455278
Ni 3.255736782018213 8.51342995150438 7.848655332868739 0.18976181148060223 -0.08587715957979404 0.8924031678094565
Ni 5.531512158888954 7.675983421379784 3.619072927294744 0.48928478824744764 0.9001205910583723 -0.4504238495161921
Ni 3.160314328616423 8.219637560182502 3.5802670735526188 -0.7759537918697604 0.6370157479092449 0.5747883665379069
Ni 3.3668868214630314 4.399017559981262 9.156648472600747 0.9517349728005544 -1.5372252991369977 -0.09027940241254774
Ni 7.181680116898185 6.081661492616966 11.397244103160535 -0.2497855003324021 -0.34952707659911414 0.7492531426501224
Ni 0.661611937490515 8.975970939772715 0.18121051822523895 -1.0265972693270835 -0.05839258100628007 -0.934226531603146
Ni 4.501368823546753 0.48001116555071033 1.7958193165899121 -0.18798672185805046 -1.3736766557166535 -0.6742208962046323
Ni 6.079809594202939 5.610556603390106 0.36834620801028417 -0.13581003985449513 -1.2847026023790908 0.4561599806690208
Ni 8.038630299100266 8.91107319242457 11.220099631160435 1.004323802640864 -0.21241348744184704 0.19698506870191881
Ni -0.06810017655679174 4.913881453683961 5.661885807236453 0.45403599234748265 -0.7923499738395967 0.9595956064955538
Ni 7.863115497704509 8.657932229703283 2.564274952188823 0.43543611785810815 -0.33881123284350684 0.12648927667420154
P 8.61364023983024 1.6480902183252006 3.4324620926211864 -1.5678214267562998 -0.6912426275736094 0.9533624811016483
P 1.6806023275548745 3.1816698791079343 1.6690229939592658 1.6630987966040713 0.5789658949543641 -0.4454665055109167
P 4.772640323423903 1.3799895298788967 8.093705757933428 0.009173181858835814 -2.769787472067107 0.6305931322123527
P 8.490692252440448 1.5764353001785574 12.252869952155317 0.8128226398716517 1.3247850722222732 1.2125924146764018
P 6.20898176699402 7.624681318485837 1.4317866768366907 0.7080614989031613 0.13859762990196128 1.1869096651983173
P 1.7174776901210114 3.448280015172217 6.1056042806976345 0.03382594741050948 -0.6734158838048337 -0.9499403427939769
P 6.8752677154085236 4.107953331201023 6.259848447919401 0.15299220806073652 -0.7281487565713395 -1.0940414190126706
P 2.2892174492613377 8.440998139388924 9.954694734760569 1.6195430235003074 -0.37003625229605946 0.7486700164531429
