# total energy = -340895.3967745903 ev
CRYSTAL
PRIMVEC
8.98137427068076 0.00000000000000 0.00000000000000
0.00000000000000 8.98137427068076 0.00000000000000
0.00000000000000 0.00000000000000 13.14514909637126
PRIMCOORD
 96 1
Ni 6.488378412688832 1.7886047946410153 11.314660976715354 -1.1946936800191101 1.4666276914240934 -0.0215908387968983
Ni 4.626018571129515 0.3384612995746223 5.912859123540366 -0.2861624962995394 -0.8100574184216888 0.10798813254622049
Ni 2.7919231149394017 1.4268889203609785 4.8589594986591145 -0.48781951655583083 -0.16478817225440007 -0.4991724796748049
Ni 3.3415383239220424 4.352607570363937 4.9696818827809865 -0.1863497004752597 0.00833191690446307 0.12609589789052478
Ni 4.903839426746151 4.581255400910225 2.4552374330919773 0.5644682155588213 0.3550567481680918 -0.16037615922963347
Ni 7.063060637739298 6.179715517238119 2.585177264107553 0.17920743300352363 -0.3414736101670184 -0.6471065564863436
Ni 5.201185790399853 4.526046892214803 11.485797474159273 0.14332948815999186 -0.768786841807676 -0.4744122420109894
Ni 5.568982055177173 7.8453742771416 12.365550044883623 -0.1522368179519507 0.044425577303226715 -0.49164146140508225
Ni 1.814965128628499 6.607884581015052 0.5654206317258001 0.3956182145302219 -0.3079464249438503 -0.7688043253091728
Ni 2.57257100694066 1.7095597181763331 0.3094200253161801 1.4035693295110279 -1.1528556609374017 0.6589197470711877
Ni 0.34643496380429445 0.12102671501926263 5.1283567231865295 0.18820089475138554 -0.8037942111207963 -1.0674197026600842
Ni 8.64149228906137 2.153877293200113 1.1271193818828054 0.8516627526673011 0.8598650859724354 1.0305050890219218
Ni 6.836137231085888 0.8134116484079796 4.928143025986399 -0.21367769886625135 -0.7756424312769287 -1.2738733729740706
Ni 0.8185813275368368 7.394428447779571 2.7433266941082346 0.9506569092450273 -0.23852561114786663 0.03850278406088853
Ni 7.652427410002552 3.955496099407692 3.6183469786390567 -0.4580793091789208 -0.5898277773695325 -0.10380340504091154
Ni 7.746022313063393 3.9171276677911573 12.518112161843892 -0.43443955827279374 -1.1293323810044809 0.019202283960063703
Ni 7.565227245544468 8.672334328895447 7.11784881811083 0.6923163202537626 0.18311705247057494 -0.30495211820221674
Ni 6.887214307537956 0.7591048697065427 0.2725254372455896 -0.3119241786446757 -0.9259840890886956 0.4465818500622825
Ni 1.819653406087261 6.570055031865041 9.085638319833304 0.24068302381050166 -0.6597347867733154 0.4144870264102668
Ni 0.026070235593004504 5.022393569381511 1.308159640923998 -0.766813520131389 -1.0949893847482368 0.6609239219854101
Ni 6.287554880164086 1.9884224132282495 6.915176918725906 0.9767152968949759 0.002260771009718687 -0.40480862278023827
Ni 3.220666986680628 4.24827992484482 0.36069109945619654 0.8457787830826982 0.012366234874836768 0.43053199568827144
Ni 5.735236277474382 5.597938006378416 4.613000967013176 0.31908752916233435 -0.601727357020596 0.9554723283557998
Ni 5.467986499576066 2.731586241437557 9.012813743307202 0.03897123905687482 0.7708414103438596 1.0413209486905033
P 0.2622624206706331 5.7063611586431175 12.420640897573852 0.20257798940866403 -0.7834074199343282 -0.1477229892419972
P 3.9876224757869863 6.023906633417041 12.50751773255202 -0.06859343279868188 1.4477961605398872 0.7607976529546123
P 2.4624144494086377 8.558675035331017 1.3887980132147035 0.13211330772919827 -0.16369365363864063 -0.735975708814926
P 6.137305467122651 7.655211636079595 5.802531919893944 0.2913471258242724 -0.2398628419020514 0.25657886910515165
P 4.664378021371609 1.0316904821608943 12.388645649261411 0.3771726062305246 -0.6983581555724683 0.5549715889222958
P 3.8420882843276396 6.00444399500107 8.246517487084892 0.20753996139962963 0.12219939104959598 -0.6377924781742693
P 4.828557546172697 1.0651820274553834 3.7414250395808883 -0.37200468887634 -0.4738525128527775 0.04098312728058103
P 0.09434035713953193 5.561042520170381 3.574349919659675 0.47654265809043084 0.06226491947749277 0.29863260374209216
Ni 1.5058082575834715 0.9584114480880228 2.677798586178872 -1.0714527350788774 1.770773511674931 0.15386612602525757
Ni 1.832631492156056 6.251090499929271 4.9750976515695555 0.25664828889050634 1.1835235223349039 -1.5859343343069268
Ni 6.011674001426938 5.403590044826403 9.108432150029842 -0.025454692627678743 1.1308932977336976 1.042211578825573
Ni 8.417002834881762 2.276473054334406 9.995992229556686 1.04267000651923 0.46590137632650086 0.6424652010595903
Ni 2.218929388284046 5.182504531560341 7.07244527589382 -0.14269314012757361 -1.2466381914072011 0.2618969388839554
Ni 0.6670457816752973 0.006213314839025913 8.977348091910347 -1.6271915411845008 0.28667517426989986 0.25574351768804987
Ni 1.4716969974524792 1.0996255984407324 11.238957869680567 -0.13315640428173198 0.7845237929269585 0.12779359730792186
Ni 4.125944623569348 7.031994063544168 1.515990441788449 0.022456529231303257 -0.2925205773070833 0.12221713166140886
Ni 5.342310127008142 7.65462784674086 8.00764346359886 0.641054950975625 0.8044675830387371 0.8983740406809109
Ni 5.0752040511009 2.933460594772026 4.787712949622484 1.7541775549894627 -0.30545374042898366 0.26644676303816694
Ni 0.7196676545314014 7.352413578139555 6.88774241235515 -0.7341882778972001 -0.01146532032712219 0.2912969893126274
Ni 5.278937548944876 4.613678162646107 7.120319594219843 -1.0408974879998396 -0.661801439494357 -1.3312938198750686
Ni 8.175736173244362 7.171034721281896 9.08753069542825 -0.27737215170141905 -0.5115310012401577 0.21033757874942483
Ni 4.641780883275353 0.33053613476693733 10.194523715323816 -0.7000921075444394 -1.147701884650604 0.12253903377720186
Ni 7.938421316361474 7.127771440594432 4.627381943769822 0.21556231748347393 0.5390310064326393 0.5782920088157912
Ni 7.194817400804505 6.138437120302353 6.974185446947768 0.5656923177739096 -0.19759082060671776 -0.36274357528938816
Ni 2.066901663103081 5.2041406625912945 2.6001105953923873 0.9343885111023069 -0.21321027231152956 0.23402103840929372
Ni 2.2678958417422264 5.300349145614779 11.414170114846298 -0.20007630603273283 -0.3950926810440551 -0.35879538927491755
Ni 1.079201952959459 3.254140569226233 4.004656550553822 0.5453618337466736 0.06292492165899485 -1.3173293872751763
Ni 3.636271107613101 2.7330861309693835 2.872872242785803 -0.5647402382732853 -0.6502846971040092 -0.5239643419075041
Ni 1.049922672278302 3.2099073000990246 8.505726240445222 -0.1825238989712663 0.9277512082914474 -2.245676320169094
Ni 3.7592081609761925 2.6847932805943584 6.95787257654863 -0.10035529859131104 0.16684454056279654 0.5737666101416118
Ni 4.047932405165505 6.810809755159243 6.118185917210368 -0.20648220955907667 -0.5369702672488688 -0.8639618817496282
Ni 0.7386731409882714 7.356015109290826 11.122544886712197 0.4828403181736846 0.09858098029970763 0.534991289145627
P 0.19438119263744744 5.489011897144958 8.080586594267599 -0.10824498575203294 -0.44896192025868487 -0.8526649686795702
P 8.408641175276193 1.599142700785491 7.909226460600072 -0.12033996924335402 -0.07674460115090655 -0.7483511996611434
P 1.8996145827450344 3.242725242310358 10.420120572972131 -0.12213897012530577 0.47841673518469224 1.153496379845194
P 3.7592979747206132 6.056751519751701 3.709245673092386 0.6808420010655758 1.0650254913962947 -0.30772402452039904
P 6.975258721193595 3.898868533550423 10.230750987273359 -0.0008530920289146598 -0.2621512209866066 1.0370722007164783
P 6.32310316020581 7.409678821582211 10.116269897947479 -1.0589605161491376 1.0906115673955152 0.42518255845090003
P 2.3251880293082086 8.290661840605125 5.6928352087333565 0.060305481758276776 0.7440710842285508 -0.3020148899507637
P 6.871739399374264 3.7930409984994804 1.4456905296180136 0.847865747518714 1.5204334243906394 0.31779529271347207
Ni 5.308369512991549 2.7504920346381203 0.4948503801846579 -1.070596300615853 0.516636183677207 -0.6076853743762437
Ni 1.5326086789186164 1.0046655264646973 7.085893087845935 -0.7070682817519565 1.9940699645778692 -1.366649316556227
Ni 6.818039761585112 0.6900542667209992 9.25200301303615 -0.20414816210926134 -1.28636893433792 -1.5932591501031141
Ni 2.6804912022366056 1.6177072017572556 9.194309358032609 1.3015371574379262 -0.691011742509726 -0.7931881534701759
Ni 6.548050664481964 1.949586950140727 2.561043412844259 -0.1134679247138691 -0.3451942535517152 0.3571501403620107
Ni 4.0307330731089355 6.671679283677094 10.33788441416818 0.5862202625239323 1.0149062061424003 0.0908239620621081
Ni 7.968392162874671 7.26031856461054 0.2994596810599215 0.3483294567465872 0.15947061669622858 0.0708439193957554
Ni 7.658723353486445 3.838702306162978 7.764708062590124 0.6180404923583227 -0.2702607374676184 0.9689626495327506
Ni 3.085209897345287 8.362512836141706 12.27611082377713 0.3877300700313967 -0.41214577987159984 -0.16323445461403502
Ni 0.11174446453338045 4.848029165963111 10.269253241369082 -0.07568839197225029 -0.5470729029005095 -0.3171077797281442
Ni 8.608746197845573 2.3137008513967974 5.644053771588682 -0.15648119505060148 1.0149522288889874 1.6072315531228063
Ni 3.8629160916588066 2.5605090210649557 11.16530610856835 -0.3097621379963504 0.24599209472824088 0.5836666428641432
Ni 1.1799550114506308 3.327931541642302 12.573085358528928 -0.9920046189538787 0.5477771280563857 -0.7048149669414056
Ni 2.9161175607243837 8.318908263225442 7.81508010114849 1.6247397372098986 -0.23345745259633985 0.7269351958792126
Ni 5.522045392342901 7.856268684339835 3.7294501730372733 -0.45261288674771083 0.6245237860898212 -0.8386987363074653
Ni 3.045485278187999 8.333772437927074 3.469675593087094 1.060692925459212 -0.9493880698349326 1.1343018091946142
Ni 3.6547907017126553 4.1523139389312735 9.359109495807644 -0.8504926436185999 0.576544172886749 -0.3973066579762383
Ni 7.253429850413471 5.958935370703087 11.531937489080532 -0.4543105861651079 0.9347039854601967 -1.6323867122321951
Ni 0.7690876673989065 -0.06014826463856105 0.08430816188773668 -0.8633594722789389 -0.09311764319229124 0.47053707532629935
Ni 4.740279616781565 0.5620283665990292 1.515438985397706 -1.044792966399504 -0.7211167894252226 0.3250918263748853
Ni 5.890470353331167 5.615101412937217 0.41708335330308277 0.3835859659560361 -0.2836728971084663 0.49156638519277274
Ni 7.853987415231549 -0.2839470511235735 11.201534278655338 -0.16298480049707414 -0.26319406042882415 0.3581888660391702
Ni 0.07478071987958596 4.900965386924688 5.728353850239421 -0.8747579439238676 -0.8674657811378287 0.4842536535814434
Ni 8.096403692797534 8.708205938417086 2.3158725477368907 -1.0895407029288398 1.1897515055224863 0.2372860823138107
P 8.487650326243106 1.5257828343426412 3.534494172435533 0.1501655372452188 0.26133643839479515 0.3719941473533787
P 1.851276825497799 3.2058567002256497 1.791315373447633 -1.0591446071354857 -0.5222707562551651 -1.1035370172079317
P 4.6803558865040555 1.0006957589613013 8.001228965972333 -0.3784311612279741 -1.047466656576925 1.0286474669878929
P 8.523593786760282 1.5637830296070507 12.165717157959836 0.12616300368303435 0.496625544883235 0.4890032524512869
P 6.234268385599268 7.873584774264152 1.471704182552033 -0.13236501872868817 -0.40157828876839874 -0.27574747161380253
P 1.8836906058592393 3.0375816686789747 6.039722833809531 -1.2889174117913869 0.6988950019125446 0.442985905180908
P 6.882894266431319 3.8973866067674816 5.7208606895424 -0.2868566941530866 0.4600184351831626 -0.004591733135740479
P 2.3577904185329324 8.500287120083103 10.055158829968729 1.8031637550801787 -0.5742636043826884 1.006341861512157
