# total energy = -381162.8043625584 ev
CRYSTAL
PRIMVEC
9.36246468697856 0.00000000000000 0.00000000000000
0.00000000000000 9.36246468697856 0.00000000000000
0.00000000000000 0.00000000000000 13.70291344183160
PRIMCOORD
 96 1
Ni 2.2232108400529484 4.758416449894176 12.520242256011585 0.10534143895199277 0.7417714895610967 -2.0081858351539608
Ni 8.272570719074979 0.0697840660213032 10.931006024013744 0.344102048928801 0.707533394313833 0.9726447263700282
Ni 6.798628557193502 4.852705830716937 6.693612600697158 0.3451937393310829 0.2754507663089902 1.4176682308062554
Ni 6.82057417417777 6.4303934626507475 2.4626877041614734 -0.3710857766064964 1.2544237488898913 -0.1516691183739388
Ni 6.2016965402639315 3.442016479563152 4.833565208121957 -0.7408975715965757 -1.2014245709850406 -0.5704383170993272
Ni 0.8990372153780529 2.9316591726393484 11.05124909290907 1.655319666879285 -0.8164810625598455 1.4705586510473834
Ni 2.7278757685098425 1.5336091486736005 12.58729060988152 0.19994235155802986 -0.504629389024318 -0.639415615599989
Ni 0.6165679139010316 5.143831666948077 3.2785450391918194 -1.3233614524018693 0.7258892711132016 -0.8645198111356271
Ni 3.7837089870110265 1.6859645348446677 8.301581251834131 1.6245929272193893 0.502101994616774 0.7788470542571554
Ni 5.367257521774252 0.7707293194903007 5.5927346925907235 0.2613392666082725 -1.5330639686704564 -0.020453639868661548
Ni 8.812064015783356 8.22088991457278 8.791912247013332 -0.4700002289862228 -0.8867022607699375 0.162122709607095
Ni 1.110603636316015 8.356317964776462 6.69997065039597 0.41436387056884116 -0.4506305662103594 -0.1908524734416197
Ni 6.6767105433841465 6.464182597333436 9.123304170926184 -0.9557613203511283 0.7518335017827891 -1.6218269344384777
Ni 4.96719004764681 8.596755417751277 1.6273714227402991 -1.1732547934190438 -0.12108378938791405 0.18004201308967702
Ni 9.011737297960604 6.31070371541232 7.244305277540594 0.2602452622131453 -1.8665242216146953 1.9876378357992803
Ni 9.416860502963264 9.274251442423859 5.054922894521586 -1.8742593854754237 0.9544420873190723 -1.8953527158106132
Ni 2.8565534817486524 6.050708073922089 6.595362897355477 -1.1492242348324013 1.1962090882223722 -0.822100722739468
Ni 4.165875428854374 7.376929269601447 8.441789776454264 0.634986376184042 1.8318868340464838 -0.682299816558025
Ni 7.864077026822178 5.305249918836197 10.610522307587397 -0.6209635795423887 -2.969047967066764 0.5729222598634456
Ni 3.6757972202189344 8.373357650318853 10.736547634609634 -0.9472113738985879 -2.166395068639263 -0.85503192624985
Ni 1.942833113163933 4.5388666554056645 8.123594246372182 -1.5736202928262641 0.40721646089078256 2.17195662188744
Ni 4.905379056465013 7.741831326752393 4.097376829220417 0.16219675737814002 -0.5218151567749851 -0.5539336345760847
Ni 7.512188795442619 0.8565007300347842 6.709316262543451 0.02307822197570219 -2.454614961688463 -0.12327076973690385
Ni 1.8041750126788654 7.081946097961809 11.484274314864164 0.8931778411919521 0.6201601098044868 0.0517665910493302
P 3.3154172334619303 7.513911488926026 0.5923575167339595 1.2472485712976906 0.8048583907192526 -1.2361807435193033
Ni 3.413900998418205 9.351407513058394 3.4537504564259427 -0.3551775900166722 1.0770461700062548 0.2668537686685985
P 3.11207386516786 2.37700804576991 2.711367870955807 0.19951092044756608 -1.7589695770614673 0.28700504680549277
Ni 1.434807059921479 6.970635756525823 8.556346084361431 0.4890413047780739 -1.0043073475806317 0.9090294635122279
P 6.3069774545079955 6.88678552371392 11.305108575111122 0.3245264407897185 -0.6224435065220248 0.9586304143688071
P 6.741714134988997 6.158535578532928 4.649768793385801 0.09865117141601075 0.48575389227605376 0.2083693992794605
P 5.901891699363672 1.7160180461584469 9.302016767393374 0.4593347788525767 0.52802308535791 0.28588430293748823
Ni 1.0928430410006758 0.47459737344623953 2.690251768333658 -0.36070726158564975 0.732508576201932 2.6737251444241954
Ni 4.463779689444135 5.79907311330513 11.93685398034884 0.4642026484678392 0.23461342057765397 0.10242195131235263
Ni 8.612709057401956 5.777464545045877 1.1528414590390625 0.5595589511826621 0.12724826632741312 -0.3958079619435248
Ni 7.971764094464262 2.7674509063052772 10.476698983813368 -1.171325437606815 0.16028437084677558 -0.11349980639306906
Ni 7.897538475244436 7.787950827291856 13.167197921212034 1.6424944900901581 0.6920345273472855 -0.0846430300623768
Ni 2.745767438329354 3.3261840677332217 6.578426198923506 0.5031456053899399 -0.3681341501773402 -0.9843545586077886
Ni 0.9367520314606996 4.6387828774432505 5.704440130032144 -0.275526613852248 -0.29783530465177743 0.9727575977988085
Ni 0.8956386407341582 5.1579409010757615 10.463338746852381 -0.15925644380289347 0.24042822748721818 -0.8356486366272318
Ni 1.0673303250100068 2.2435929254517326 0.2621555620696985 -0.767681267448323 0.5721504146944275 -0.07717654648200258
Ni 9.138645505393088 6.773480977321599 5.124327780727247 -0.4182367232606862 -0.18708863552381327 -0.7951367925561145
Ni 0.22995523762686976 2.8278294404057633 8.92117230554925 1.4217840527468417 3.2215488094477998 -0.8231217078048146
Ni 8.53471972741947 1.0448978598673853 8.805410112203699 -1.3172496830771765 -0.659503901709432 -0.23206520023450355
Ni 2.0795344585510005 7.471508886826305 2.2717926687779326 -0.262591908068451 -0.15905846885947444 1.27776319494678
Ni 1.5417076805385286 0.5386413124312568 10.739137292313494 -0.18302654963929768 -0.668863488547461 -0.47773462151600304
Ni 8.506613608739107 1.83256200529674 1.9906771796797191 -1.8563799340918417 -1.0716347691826964 -0.663029141253871
Ni 5.875629986206305 2.465370986511171 7.060549121402149 -0.5179608160259014 1.4276423112998315 1.4162464107580641
Ni 5.269934702426361 3.07604710144966 2.443653813662747 -0.8132728400351928 0.17420535180324193 -0.9264664280417527
Ni 0.23327516756826105 8.997983837487102 0.8835142490982255 -0.571737495526725 -0.11965759846434874 -1.7653199447595276
Ni 4.199926712545407 1.0947997960986757 10.849747321398619 -1.4190121464286594 1.0005882468578315 -2.3703342000615115
Ni 8.212398159195336 4.483225528384547 4.791401348869121 0.09546583170949365 0.5548983124821992 -0.7741745884821506
Ni 3.5352853517462877 8.635356859230003 6.072980440920328 -0.3242348776912287 -0.484438773009056 -0.20207071075494232
Ni 7.577632422882905 4.137085850259399 2.3309615724542008 -0.5151380018651257 -0.7861515583383687 0.48889732300104183
Ni 0.9439330417964218 3.032212042268628 2.432897278102497 1.4846436683855397 0.49940619295216576 -0.5999689795685925
Ni 8.88703863216988 7.068997809442509 11.143483412755701 0.49444550651278074 1.483812430733496 -0.09626184524822777
Ni 5.457942353732279 4.923027302205347 0.7582332380103939 -0.13763218066489846 -0.5224849291485002 0.36299888583330386
P 6.712568782739839 2.9218566722201817 0.6605874136343631 0.41325778198885604 -0.18114938722124288 -0.1619951828902952
Ni 2.9116890356822487 4.444914323307916 2.152700246779948 1.1078641838283758 1.6203107549042677 0.9563724715725659
P 1.3798868426733084 4.81297153102358 0.7398931061373217 -1.6901452591989021 -1.1524370853427444 0.626012969040838
Ni 2.0262713975341504 1.236959458338059 5.102375610017772 0.17612082365839993 -0.8199168277142718 0.6543763506748794
P 7.511224461590496 1.4826024416214298 4.626679083229401 0.34613656286032646 -0.10140405157079954 -0.5813958445520955
P 4.36685009360876 4.510161338991943 5.836084808297539 0.4908593318234192 -0.24125175182977807 -0.7387517288981664
P 8.350466424411628 4.6259001261760355 8.535051158665734 -0.3813195385193627 -0.1726421210811801 -0.3020380298792153
Ni 4.95951282668815 1.5196309890500892 0.4026973904290129 -0.5026889774684956 1.2051079333738988 0.7736379992523902
Ni 8.463274760181013 2.8620211610655515 6.770322081771047 0.30864936454814584 1.4750156583774727 -0.04334005754853181
Ni 4.505845242818843 5.104153542042222 7.988168068661419 0.544752482297449 -1.6175504185503111 0.6840381394053703
Ni 5.688399419460836 1.0541292499469448 3.2518929112613106 0.8915809290184775 -1.194761042921936 0.21736234680669014
Ni 4.79315119349982 9.15159379391239 12.611900784286318 0.016923772338532143 -1.3887556615369632 0.9933835015792761
Ni 6.972976372671756 0.706942848281336 13.411657488972022 1.0337932728548906 -0.8949228489075167 0.7875893192261597
Ni 7.147389725402094 8.402793238970105 4.1737427078440845 0.3828112925735407 0.6237825370484226 0.06678029084934305
Ni 8.51294263479771 2.373572021267681 12.709918298506325 -1.1213635038663914 -1.1732347388143858 0.3832751195838367
Ni 2.6123242306174252 5.254495998327787 4.252918262089328 2.0512070759104932 0.8316549420868063 1.1388125525807742
Ni 5.944706249905078 7.093059343422699 13.665751032788668 -1.8329160466419465 -0.29197473210594227 0.2925956535193929
Ni 5.131089352649618 6.57643854769238 6.220423341924311 0.7667507852142537 0.6870751264594812 -0.44734932435592634
Ni 5.0526599868316975 5.155197698952728 3.362311009822468 -0.43840677045065785 0.7317025353608688 1.071410311876716
Ni 4.169161653923264 3.2978064375799314 11.701959106407594 -0.399351456320409 1.0659976255015768 -0.5362608998866699
Ni 0.9990124209425159 6.7577613992855134 13.705379536632229 0.7329600619170538 1.277910776268238 -0.1243992269143922
Ni 9.657007719535983 2.5360575941183456 4.4854977985390185 -1.585163260468857 -0.4476354881377774 0.8138096863752693
Ni 6.521902191492142 3.9391914363530605 12.348489715715942 0.19664876840842263 1.1113966224616665 0.5469582316995161
Ni 6.0371418627402615 8.727960996427694 10.34441110423107 -0.18894831444037136 1.094994012733927 -0.7894451414879758
Ni 7.227682221672179 8.932409135542644 1.7922725114535671 0.9206084265990789 -0.49005123409982704 -0.04873577464280639
Ni 5.859329935366028 4.135634668248921 9.810189811329794 -0.22965813345490774 -0.9611485528049706 0.2051696613952402
Ni 2.643079926774984 0.6859756088460688 1.0888143724902961 1.4159705313888582 -0.6387443005645773 -0.030431834127295977
Ni 3.2419031615504688 3.403789536667775 0.24375176543745689 1.2442270108625475 -1.4047386672287807 0.06059370242265694
Ni 3.084192445637507 6.001695571826253 9.780467731262277 0.7862734286282136 -1.7465344366219082 1.5088878856448853
Ni 6.063216326605954 1.8247817972276588 11.651710758986708 1.5797670291539503 -0.11434878465692565 -0.5160697696507758
Ni 3.9112632044997886 2.431694201403488 4.930527572583375 1.0714051696703935 0.4633811810078084 -2.344430335711556
Ni 9.203199698697919 4.484330299205427 12.61991692646291 -0.1105378955512677 1.257166344632035 0.34483095667502545
P 1.6536172197078745 9.037296826274192 8.619748694522464 0.23895884203054332 1.4012843901315932 1.3478077583696917
Ni 7.345864612112624 7.6864523487396195 6.523203574069281 0.46153075806263094 0.23082772828297665 -0.19253808867415875
P 2.8872904529770436 3.5164948853267384 9.860054297702748 -0.18477978488497857 0.031267442654713894 0.10832340439845216
Ni 1.7121513482853656 1.6871910177051368 7.6643681672795125 -2.1877771338594645 -1.8527731905771898 -0.7216721477080603
P 0.5335041281141631 8.724805845862976 12.358739741942212 -0.13097482324938087 0.21474496378850114 0.038888449535081415
P 1.7850287726051337 7.341230192143677 4.708650269399349 1.108448081356304 0.35913528911283954 -0.4048533599752447
P 5.640800649517144 8.582646183623593 7.272520000810129 -1.3880509221604547 0.6186886674652828 0.23350141846039785
Ni 9.083949987294927 7.506168730715281 2.9835768474955167 0.3024290946700469 0.8015457814062518 -1.3951150280960876
