# total energy = -340856.64960223075 ev
CRYSTAL
PRIMVEC
9.39518430032410 0.00000000000000 0.00000000000000
0.00000000000000 9.39518430032410 0.00000000000000
0.00000000000000 0.00000000000000 13.75080190330976
PRIMCOORD
 96 1
Ni 2.864807733430197 3.5739374419265855 0.5129244409965189 1.4328724493505194 -2.9249545762919755 0.7292661580052344
Ni 4.870585595415068 7.813880697148331 7.107555451117642 2.59482338772097 0.6888365892352781 -0.4672645752226146
Ni 3.9031165086293065 1.3262054027919827 2.5141277878237687 1.3247958708555507 0.9747255201584569 -1.6262975686153216
Ni 2.6423015874496465 7.38491537969784 12.090708505784129 0.40548045203628225 -0.019127721968386413 0.0433552270571834
Ni 5.091372422698052 1.7222969709376579 4.649916207933829 -1.9314126947579642 2.128100801044754 -2.3980296090942503
Ni 4.516471710005579 3.0403097731598203 12.571987148042892 1.6548103313430338 -1.4495275414086972 1.654780506546363
Ni 3.4438986982489777 5.272840404356386 2.884093227913762 -1.1509723278717596 -0.6013928564993126 -0.5536652114060464
Ni 1.252425021742907 5.167229139442003 1.3864933598980331 -0.745633029399032 2.737067613236583 -0.6420934195424683
Ni 2.527107234712767 8.589331010486873 9.997176805379206 -2.1213634823209206 0.42360415822018654 -0.4970145527915376
Ni 7.882174290659821 6.642573695267606 1.315176396130387 0.9356234119506724 0.10913330189425723 0.3502336157478355
Ni 6.714926008327448 1.7849064780446284 10.242710547686164 0.31279835371951287 1.219434634409216 1.4594777106428736
Ni 3.3186702888508965 4.696276744071186 11.69101388452088 -0.3947180713134557 1.0227755815881483 -0.6739370464156265
Ni 1.9074384695946154 4.5143671887582855 9.725941597339679 0.5301018222638096 -0.9441443049374902 -0.9566028424158171
Ni 8.268880069849933 2.5989897885656226 2.2963154758394135 -1.2593196435296117 0.5987621037446849 -1.5653007172169753
Ni 4.139405389742799 5.891729369190943 9.597192812444451 0.06751716901536758 0.08399742605857792 0.09169016671714532
Ni 0.8407139599649781 6.286251941585288 8.789209794985366 0.7205208077124365 -0.14699151039261138 -0.7786447084383622
Ni 3.18070200975938 8.101486074032874 0.7033779767660636 -0.5759175950463437 1.213582032283181 -1.1909437260583746
Ni 5.910688850784861 4.87556504300911 11.141036716314206 0.6749793716372118 0.020541571596777528 0.15230855173015062
Ni 3.26600088656373 3.19331034687486 7.3016345884466975 0.8462912039427425 1.4307942266652518 0.18124014716283626
Ni 7.547029282028389 6.827978259080475 12.07849758495776 0.5912719660152269 -0.5368147155076111 -0.338667765287107
Ni 4.1813267013741475 5.108997788144133 5.407268578064064 -1.1045358907860914 -0.11556285956968486 0.2501565105185756
Ni 6.5161145167472245 6.7354263001202765 3.790270951927352 0.7722331484850636 -1.488454814601514 0.7482321575847758
Ni 8.393112589729206 9.16758580391722 3.754449933357912 0.4088722513266506 -1.21142436251023 -1.13620082598954
Ni 1.1675207426724246 3.753892798938428 2.937625108104953 0.07677648283010649 -0.9417688627267781 1.2918960348037363
P 4.481427673164492 6.895510842676649 1.8162196872638396 -0.8834153624885495 -1.4858304896047894 -0.06373764736827732
P 4.579579161871954 5.173326613948669 7.600535795222403 0.2738839360425025 -0.48199185413046025 -0.5104758205027661
P 1.1988630769624686 2.627015622854352 1.1076987866997032 -0.8469908011129283 1.363124077011788 1.117058448733134
P 4.6863460344355214 6.447510882159124 12.047035931829141 -1.596074508064722 0.8595658095644616 -2.026004094282304
P 2.6848523764183545 0.6531278343948703 13.011159393542755 1.1989267442638514 -0.8403185312990754 -1.0109287095518913
P 6.557453326961911 1.9224707642181376 12.72737034045576 0.4523244089730145 -0.1491023860880271 -0.4479414494139705
P 1.369846033120896 5.759144530611476 11.249517270464855 -1.0504344809559973 2.0710410799172845 0.38524149928158813
P 3.6837671445196962 0.09944426604508437 4.286303791359102 1.3998558852151826 1.124874088122811 -0.35185109674660053
Ni 4.276838143338352 7.085970015556678 4.070732230792065 0.548495751389965 0.4140301413785063 -1.4446609573450153
Ni 8.858662754219695 1.4338742130329618 7.597593223549849 1.2036537174258755 1.3692417598737516 -1.068553044933579
Ni 2.161409087259026 2.4537214513975583 11.399097997153042 0.5494971960712859 -0.43576547617306893 0.09766206802986406
Ni 7.042752168514052 8.668588783889394 10.692527536816307 -0.588688778669083 0.1522825835882216 0.3862637698985154
Ni 8.652851850455395 5.0865339028661065 6.073096822378982 1.7637538858239885 1.8688104465457105 -0.4399322059562488
Ni 1.7089276239068625 3.781364317362915 5.342296182145958 -0.16481208351380003 0.8305858773923437 0.5137953717943022
Ni 1.1706869197275038 4.453101192983292 12.944303263204638 0.013250951472635242 -0.2255284275572503 -1.087659426745727
Ni 0.39398704689838193 3.5321194773207747 7.780176413565566 1.9199247487230227 1.4082109420480973 -0.3275395165844295
Ni 9.29944721331793 2.5758024741088397 10.526252507430284 0.2871819387029893 0.6301133643624567 -2.136620922700623
Ni 2.1650356283369505 1.8087044794704923 3.8914768149986307 -0.3292572706064845 -0.3428059558251967 1.5364375131283796
Ni 4.953977249839058 3.7829896842190838 1.9100005363095118 0.6595447822496965 0.20276799393228304 -1.7863394844339882
Ni 4.302900384141885 0.7645086818894453 11.485357061776469 -2.8923442464561218 2.8434860873028387 -2.09978009972319
Ni 3.0483050748627067 8.116104980554248 5.533625349077323 -2.4705897398501646 -0.7989361116975466 2.478468628377609
Ni 5.9326360009352035 8.95573379675109 4.476889799225017 -0.6166970909565508 -0.6679605171172174 0.7355586758821655
Ni 3.3978341104120213 5.550862693418433 0.19995206693478296 1.5150587903422874 3.584786293654471 0.1302266322294467
Ni 4.250888644744498 0.8375628152045221 6.43464605651663 -2.742458702345167 -1.8456170391483826 2.4573961239780258
Ni 1.6691578094435062 1.6384167669384027 6.945846481223515 0.8804107713342708 -2.0041618015962324 -0.12285090859066586
Ni 5.450193295361531 3.080023216518339 8.390903781937963 -0.2935027387146945 0.2232000365343898 0.44494842822391756
Ni 0.5949932534936394 8.622073227213733 8.124675267526484 0.41680076214510803 0.5877541826699555 -0.27421792234315356
Ni 8.627597595487877 0.8672966939698495 11.796523681446555 -1.1758027566518783 -0.5743065418054819 1.0752319996156514
Ni 5.961930185082793 1.8570708874216757 1.0556861077839017 0.05429424256719037 -0.9651242496232669 0.06833812225476618
Ni 4.616971994747965 8.203686887104546 10.338471901548486 2.295555207277408 -1.6576665698449067 0.3264984769144248
Ni 7.738277650376153 9.358185904559344 6.108601223242915 -0.41072113160993134 -0.5023861015160961 0.8710249592439967
Ni 5.9630670023636965 5.944220262979456 13.522455649127863 -0.9088327741203897 2.8312576635574467 1.283623253271983
P 6.299781006746459 7.580391580908469 8.770193002768195 -2.6517398984023557 1.1225624092704989 -0.15539027597926788
P 6.099231406100389 1.6706986196424172 6.524081632897691 2.6230155338844696 0.614952083240986 2.0646883982263797
P 4.324913300581205 3.535464162874508 3.8022892714788585 -1.1918330706418636 -0.22373945397762754 1.78014903935256
P 0.5918834475433982 8.018319904028235 2.180120535991655 -1.3999530729146794 -1.4082309966527555 -0.13687987587990622
P 0.25536110491708647 1.6754056068964076 5.293082328585374 0.2076654312339004 -0.8884377554038053 0.2592949824847341
P 8.132659295008402 3.7998634349339873 8.9478390235185 -0.4551544222226419 -0.2958326723994518 2.6785405635349675
P 2.080563527736895 2.535534714886079 9.036957982194052 -0.5082109357279893 -1.0741356812276792 0.0007330215112826086
P 2.9399410209953896 9.31705378839573 8.015011859692645 0.06060167284245692 0.598526333584795 -0.2855210060607986
Ni 7.248769766329426 1.7380714851082164 4.605982447859756 1.595754148610826 -0.41403399803324825 -0.08859121607684743
Ni 0.2153939915867963 7.839153742484128 11.224779750625022 0.8084057417508788 -0.8418501374522535 -0.836582718405727
Ni 1.8038377740861269 6.543379341120638 3.787396965099018 -0.7894209731182598 0.5966314305549273 0.5107128762142367
Ni 4.840464635063184 0.8925819530450281 9.154280344138574 -1.0302361516312515 -0.4443462758635444 -1.0237019500571596
Ni 8.742735577119918 3.294336761929069 4.357546533172044 0.7629067288778152 2.988442569543292 0.8901508814401701
Ni 0.5519971327967095 7.143167896599182 13.465156300096652 -0.1707652157734414 -0.20364319744838477 1.3447957110162452
Ni 8.17302100607256 7.059071603364713 9.186181691884931 2.082874582217103 0.5831094848090925 1.437732605656298
Ni 6.332213182396707 4.038454136161707 4.632493778465166 0.497849132877691 0.5275420319564335 -0.6181183967841097
Ni 2.9368594005975672 7.189523735144468 7.740491155759466 -2.498039865641317 -1.9665301072863872 1.0703669582138662
Ni 6.6614110394677075 4.074907450623749 0.2857282190934296 1.454657920656727 -2.852833332845693 0.8189716901921832
Ni 6.0428509060780415 8.22996521714329 2.1704265849963114 0.40716735282040195 -0.027730118925416762 -2.3698678019480544
Ni 8.582021557226184 4.7923518970837735 11.236646807711876 0.5191327248468156 0.6482758942040964 -0.7840512241659142
Ni 2.355090808298972 8.94472264093936 2.7668676363658786 -0.10916132691871522 -0.6697047535018338 0.315943584216714
Ni 0.678157544461449 1.137390387136402 13.569689937390212 2.4896030477278734 -0.20771762462807453 -1.9367865574753678
Ni 0.5553991289736954 8.638045040251225 5.37033423017407 2.63242217191035 1.2683686411057575 -0.01700861874285458
Ni 0.4755597936729261 0.9960492369387327 2.1507765573681255 0.25565584307025 -1.8639315211868546 1.1873922612616905
Ni 8.562263484980392 3.04883120517453 12.82325477123031 -0.4491583525402071 -1.0954449842284166 0.48018513993902456
Ni 8.121140799253128 0.5700856808208767 0.4087506392555088 -2.8345031670779375 -0.27061169304913396 1.118113886580842
Ni 8.820818952504977 6.188015896220569 3.730193446946031 0.6180073251275422 0.19986521846319127 0.03348990422732942
Ni 7.233399245076874 3.6932562805007945 7.048316936079996 -0.3593196372095037 -2.6258704868347618 -2.1856626586196226
Ni 5.423858594217949 9.182928139617353 12.84711290183467 2.096259231054125 -1.460338773091588 2.860594207738035
Ni 7.342524308859507 0.3335600410670639 8.469999018654867 -2.649611282095127 -2.1901772586605244 0.9958926411543751
Ni 6.355052875040322 5.968534999533002 6.144861936430091 0.040204597243343666 0.7564753714301746 0.18447073828499197
Ni 6.816600691087297 5.405077621122685 8.426299198665875 -1.6538857626462353 0.4699629479903842 1.0793442220118121
P 1.6170239326523024 5.730244944197754 6.554484448773765 -0.4931861801843828 -0.5870026492159117 -0.08251929885115465
P 4.739814027374562 3.1755910295873826 10.47281645811732 -0.2923074328550127 -0.8487332377253318 -0.846570168635742
P 7.283682270592556 4.942223874480291 2.643537054164017 -0.4256240168636927 -1.3795387709243854 0.44991297131804453
P 9.052250523418245 9.439341505158085 9.96175414261729 0.049550043013985634 0.5205640579767035 -2.153745755306368
P 7.101998199699009 8.138465518806738 13.652675719859367 0.22090172741851635 -0.06443287366308904 0.4035035308155696
P 6.762211970102565 0.6720995297281696 2.7255184914486383 0.1976029047915758 2.7805359688328632 -0.3212853081446015
P 8.649789020425851 5.0600770643287065 13.74064001040415 -0.16457965578801978 0.7810085806848485 -0.7065980269837572
P 8.520539472215978 7.328750968910705 5.818390561796433 -2.021234955028435 -2.210796991793406 -0.2527553815940034
