# total energy = -340897.4253423043 ev
CRYSTAL
PRIMVEC
9.03132180868120 0.00000000000000 0.00000000000000
0.00000000000000 9.03132180868120 0.00000000000000
0.00000000000000 0.00000000000000 13.21825236701140
PRIMCOORD
 96 1
Ni 6.320995097711518 2.0434810790427655 11.445512543082177 -0.10718826235274444 -0.20978659134196131 0.046919290259357906
Ni 4.668290285580713 0.23292591976471966 5.894151343694712 -0.9981904360496163 -0.24384059560287683 -0.016846896354009697
Ni 2.7477525914433643 1.6719686217248158 4.839162895762927 -0.1827334438789111 -0.5691918462867359 0.6795407657556491
Ni 3.531499736486854 4.371358484440603 4.945265574737754 -0.5199819602209883 0.4078324972082267 0.20431348404253202
Ni 5.143301691772245 4.63266172071978 2.589587954294309 -0.7185449149329883 0.034979087178346205 0.18869068990361051
Ni 7.220984386817126 6.011536853108263 2.717276395721383 0.8993186639823673 0.17906088012333032 -0.5891572336650692
Ni 4.969701622378876 4.321072084150192 11.486132719552396 -0.43246546526555835 0.4476591422868613 0.1139741749263263
Ni 5.587696916752482 7.811687026435414 12.299332811547592 0.1082033338808201 0.2063819365357865 0.14204496502061342
Ni 1.7366870743974243 6.4065578413091036 0.38903322178695066 0.23824124713822836 0.866430912115411 0.24305718046963304
Ni 2.6954341437274247 1.5282802904352257 0.49620791867026715 0.5748642140811647 -0.667536027985289 -0.062307085569337846
Ni 0.5866719606582267 -0.0076739142109845835 4.662460567299918 0.6151233187115277 0.387754495511429 0.025901293246794105
Ni 8.471885688006772 2.181750617197613 1.2400727462420518 0.5489768047914416 0.46967087067126206 0.6392310103930088
Ni 6.736472029996013 0.6431673947488635 4.650763199186388 0.1629873716002354 0.19084938811782615 0.16441947606107168
Ni 0.9614384032535893 7.399190430375028 2.7522249020439054 0.01766604982119538 -0.34676802579673827 -0.6743489371420645
Ni 7.633038448104842 3.7686441867069704 3.714645913119261 0.7073986685081817 0.08476952833791207 0.23547962523269125
Ni 7.741369154190237 3.7588903590644343 12.629630831414879 -0.7423199058653989 0.5174159992660251 -0.522134744897933
Ni 8.059027839070737 8.98254372170302 6.422643528729586 -0.44493891514222084 -0.5310629006254983 2.225647426542676
Ni 6.7964580699976125 0.5647104952153043 0.21489669187324204 0.2306986589042801 -0.20333826461345628 0.8281952656729801
Ni 1.8931727888068983 6.521165316108908 9.26008617787483 -0.316753481712519 -0.2597153578516044 0.2712922640559263
Ni 0.11595765742254509 4.793112185439507 1.3257248999263598 -0.6786763608728247 -0.23086089551375724 0.91249273947048
Ni 6.170424899140805 2.0512751098349034 6.947024656039569 1.7414315681777042 0.28427607791010395 -0.5433167782921869
Ni 3.349365067906265 4.440917725646915 0.4792489024229012 0.43947197849037856 -0.5865650474578608 -0.14162150432994966
Ni 5.908977161711368 5.594199468514173 4.848071391676444 -0.13714135707140895 0.3943845992334369 -0.29356881606593954
Ni 5.169275773531444 2.7029933601503906 9.312761362805475 -0.5501302016695945 0.055110567820898626 -0.3013942256476293
P 0.12746265837979265 5.614447692194328 12.344935568305207 0.3593885427742262 -1.1480181303394421 -0.0522386455897423
P 4.065738551641123 6.175094092558575 12.58564016561485 -0.5469335491091677 -0.6094064708324085 -0.44101386905620177
P 2.390076119262791 8.506421462918865 1.3492930375337333 -0.03395193146541249 -0.42592457882324714 0.5454374241796155
P 6.311909587888934 7.736419989793839 5.65256077370754 0.31366892924992434 -0.8218564679391459 0.6388692561782159
P 4.720319730996133 1.0912636554401296 12.734847537712174 0.35940396939319397 -0.48345892559428993 -0.17371915619544276
P 4.080766671268142 6.1025816090938285 8.399763357647727 -0.5154362498318349 -0.18498907268230724 -1.3495046864561404
P 4.6379450440261545 1.1453161169591868 3.8301077509699772 0.36845528096218483 -0.38589635925676763 -0.829354576088404
P 0.18925767215620765 5.504373940983924 3.731433334250694 0.9708665514236827 -0.8037361041893513 -1.5991847715589296
Ni 1.4252509702999874 1.062273112169257 2.6053439984657625 -0.5117922253213444 0.6964370272903555 -0.30852235205197837
Ni 1.908408628837416 6.592720479453184 4.895274498673187 0.4697012096885652 -0.3596669932465935 -0.3716092532101342
Ni 6.156534726072082 5.610844194759723 9.186843963601273 -0.9850137894583423 0.9262738524149725 -1.0549771060213573
Ni 8.358596786203089 2.4008143609914723 10.067391526071614 0.753602934978386 -0.6118521041594237 0.5232452043532924
Ni 2.436966742522096 5.3350366555232185 7.06639886253357 -0.843512869866657 -0.5148225275072359 0.23434679717982868
Ni 0.7661225203727395 0.15332565487972974 8.973475371392027 -0.7926124834723639 -0.49537393186432105 0.3925670864087239
Ni 1.3308014059614246 1.069606545544942 11.32500219629426 -0.14201899687868444 0.1951495581550768 -0.15847817087597224
Ni 3.9902367006303763 6.820941983644758 1.5934078619895073 0.29678706589292114 0.6459331050035327 -0.38106114265165336
Ni 5.536389977088361 7.801472601376424 7.874205449095316 0.5547728426479285 -0.07366107712957637 0.3203183162456419
Ni 5.399150009629115 2.955337525113461 4.671991321291742 0.2474951616363286 0.4231362174448326 0.5284732855214512
Ni 0.9038817888407322 7.515071321561496 7.0296910547066345 -1.1447554004277705 -0.5943606322428796 0.5863187357750096
Ni 5.128535480480071 4.631379273011224 7.057608676936828 0.3234090393558237 -0.03642224738277599 0.1823938011513052
Ni 8.10525014451009 7.3804233434850355 8.936940061813216 0.7003168219607359 -0.08092007268483484 -0.24236323972640192
Ni 4.586475540567991 0.35519647118923986 10.58269165921996 0.15268933210833704 -0.03309806810554945 -0.23329135933212078
Ni 8.36663466268629 6.991769437217517 4.920520655887953 -0.9144727460149864 0.9679594050792169 0.0645125778610889
Ni 7.196581755067003 6.10500200336068 6.965754714509807 0.7235662794069797 -0.3758613436182688 -0.24098358577005596
Ni 2.3092096630486494 5.219453797959161 2.523959144375064 -0.6585531077603883 -0.30546659594479003 0.9671109410359926
Ni 2.322991460254678 5.143563600107091 11.497328849300965 0.028102671773487086 0.15054066119645043 -0.7401789482629961
Ni 1.1707844446924767 3.2885029896812155 3.8759091968091997 -0.6546604575742017 0.7376147870802457 0.1018640219263536
Ni 3.5202376780884808 2.9160964314960327 2.9044595732391736 0.3832694631568818 -0.5568778048060732 -0.6915172213912348
Ni 1.1469146609339358 3.5172392792205898 8.25711182211125 -0.6869072334230493 -0.019564809505805015 0.2012677552376727
Ni 3.8280160968199666 2.7097397576031454 6.951293761897557 -0.47577955467216126 -0.4234177532409934 0.49283625304413187
Ni 3.997073411302043 6.847069597876108 6.235168639514709 0.5543025878797292 0.27415930119107623 -1.1374431830370733
Ni 0.7552686777238501 7.515784795990905 11.443001835596414 0.3991663368927964 -0.6707730468653481 -0.5732521323990386
P 0.1903351088578323 5.650383321999562 8.099008597951057 0.0518159562300269 -0.31204347783135933 -0.35271781562226995
P 8.346043248774269 1.6117116420664785 7.943125272711728 0.5225790315242033 -0.6145211663511545 0.29977828731076117
P 1.6969402267540878 3.058132030879527 10.456549380100665 -0.7265243335940391 1.410843494574938 -0.586241602680171
P 3.9027773794356317 6.171210624145343 3.73013824269149 -0.07935092842550205 0.3295236368939938 0.7820352221771499
P 6.68485802538759 3.9287695238386133 10.261342776214699 1.597979695507235 -0.6494079509260107 1.1164069311920644
P 6.37544493739379 7.6687573261846875 10.120489376866768 -1.1606772138643495 0.8351189893760069 0.5649916921624593
P 2.355576469638263 8.55994107644634 5.94517379671926 1.146075919011407 0.6713106645363729 -1.0879859568472101
P 6.906522789886125 3.969202751945684 1.5988004642907654 1.2294678502755017 -0.08456255453342855 -0.5252408946270826
Ni 5.317362358582067 3.03086647008988 0.5217656564902804 -0.33319440087736163 -0.8530076967309697 -0.21348820856326456
Ni 1.6988729296388125 1.318925217674447 7.111406455178551 -0.612724479462048 -0.10980873069472703 -0.6883480796346338
Ni 6.660473456281248 0.6153518264560408 9.055705557211747 0.3507972015607894 0.2892874150817663 -0.0018905321544935183
Ni 2.781493610029028 1.5506057181503652 9.30445977172305 0.8572626153525816 0.09438082617543099 -0.5563628128428677
Ni 6.458903382990717 1.8226742901238975 2.661429410542537 -0.1473056991989205 0.9193678693237586 -1.2960697065654516
Ni 4.107978044126441 6.875771138846462 10.391224925729153 0.5269151970057119 -0.020986886664312244 0.5091229060192974
Ni 8.181122279718378 7.13394953775127 0.3135566584774998 -0.36440965013790144 0.4930846216095121 0.37998693575086817
Ni 7.639802908201379 3.7458671928972698 8.180696904457301 -0.2477450728636056 0.5954127276564778 -0.7901563086223875
Ni 3.0387417827790397 8.16230100489704 12.370182628652161 0.30170301513729975 0.5863300486289192 0.7039886143853682
Ni 0.016580603860123097 4.785426530510064 10.201755017508502 0.28198162544897243 0.04461326783400058 0.23068734605037047
Ni 8.658879207764846 2.212384861052691 5.857853557881639 0.07512609171087707 1.2635095132412433 -0.3700635059895691
Ni 3.346791141167263 2.472884309683548 11.661248244759117 1.3142222091047624 0.8729478872983224 -0.33693227065323905
Ni 1.1211212056125612 3.4010693857336003 12.754120378628075 0.07255935942496536 -0.4849823042173519 -0.694696390450165
Ni 3.0972466859904766 8.354532691352032 8.101268234688245 0.44482424394122744 0.12902129906743584 -0.10158351457145731
Ni 5.608026422329657 7.730567693208317 3.5022021282716795 -0.8604307286679181 0.27252819334555645 0.5397524579796963
Ni 3.069132180943054 8.561964092549976 3.596237154935434 0.6030687015398388 -0.8723758168449363 0.2111898994473911
Ni 3.292828992867118 4.234642333651048 9.199942992872323 0.2947198989512473 -0.1592533584790999 0.5119220660309893
Ni 7.203571998210821 6.042116909031993 11.285664467532598 0.36298448765560065 -0.3425038512037456 1.092736584158318
Ni 0.6010832410000746 0.05217214030130134 0.12439110580458276 -0.07494174361421288 -0.5196531161266599 1.2303921618619842
Ni 4.74977990300535 0.3557564131464966 1.7114336921251458 -0.6366853611530195 -0.466503528686874 -0.5518626109796689
Ni 5.987531599521352 5.662449168046255 0.3078082220937271 0.38395003416367424 -0.04518405273580605 0.5056053797843422
Ni 8.047847062569385 8.946689373794806 10.905071919185195 -0.47710521546212026 0.3427591617476613 0.7682209420018768
Ni 0.16885140034295631 4.864640254818109 5.855805254076707 -0.08229818397928408 -0.9445579954361409 0.6724229237639452
Ni 8.073387640877804 8.729504144954324 2.6006251327775907 -0.6021148222670019 0.4246876210923524 -0.5958333601336642
P 8.501074920359253 1.7092318558480621 3.645303423638339 0.17341293780893363 -1.0524432838559101 -0.4246837644376105
P 1.8122521446614095 3.121730599637622 1.6274044669846932 -0.9020242358389885 0.7205074379759979 0.1697311180819722
P 4.733938964408118 0.9083432618550035 8.033471907515102 -1.0385953222292243 0.21951950235900905 0.8320925438448573
P 8.431633086337527 1.5710887561996918 12.316040757046382 -0.5101076385300699 0.698347614049507 -0.047447909069318284
P 6.349154759368397 7.669254048888706 1.4547481707289582 0.1063282283452943 0.21258318025049197 -0.7131952205853007
P 1.8917097146605177 3.3465202015105255 6.1480868275750185 -0.1502562971868122 -0.22623548092660392 -0.7172603917936099
P 7.033981835737161 3.9391103874040803 5.900006349676802 -0.5745700798795137 0.5424634291529561 0.6866033290293853
P 2.481716942493178 8.48302130789867 10.266352450467767 -0.6245957769783372 0.11019285350702314 -0.1329769412810742
