# total energy = -340859.6184519672 ev
CRYSTAL
PRIMVEC
9.42424892803493 0.00000000000000 0.00000000000000
0.00000000000000 9.42424892803493 0.00000000000000
0.00000000000000 0.00000000000000 13.79334092386284
PRIMCOORD
 96 1
Ni 3.9946845559449495 8.24543537246696 11.098701108478277 0.1049197780335419 2.990554216569656 3.008033861411658
Ni 7.364390637176847 6.084257243513589 13.538935952635985 -0.29238276617763836 -1.63080445534674 0.9704724013090577
Ni 3.3932101574116187 3.598027353728326 5.818375627948085 0.824717848647341 0.8404933663140429 2.495468505369715
Ni 6.734153431706665 1.9421020444009303 9.941577720563137 0.49576988175115905 1.094311641954922 -0.5567153110862799
Ni 0.3726979348262053 3.195536541585781 3.4869569286185764 0.4753285831776717 0.6538112222000289 -1.3440968851770076
Ni 5.721517912255592 4.364313012979761 2.07112566322454 -1.62938520640171 0.1062544376845654 -1.269575002709033
Ni 2.9530506233403075 7.769124420502541 4.785433679890579 0.5068063420709789 -0.7234140700998316 -0.34588433764020426
Ni 2.068999552724883 1.3845257961663717 2.613962386541262 0.05760556632861046 1.1141759849790167 0.6593671190212514
Ni 2.903073832650228 8.907780993151379 7.2973531291218325 0.6626025952394137 -2.315828098593831 -1.1632809700357838
Ni 5.093043041286455 1.1004883655406303 8.376778298887935 2.9088628129364356 -1.222267732982637 -1.6661455538501952
Ni 3.12696570827237 3.5202019082222584 12.136112035254477 0.575456339139209 1.5818910174754885 -1.2829516811262551
Ni 5.287936503755029 6.206348385016508 3.8191550972159396 -0.34179448384154687 0.970399124868961 0.042212628812307945
Ni 3.790347996310346 -0.13187445404588938 1.8723494103044651 2.716725045024489 0.18130879561724259 0.7481092588536664
Ni 0.7163286594835605 7.755119986980863 10.311860220455554 -0.558603015027296 -1.1971200300724159 -2.668182103118779
Ni 8.88657643364682 5.644003466955591 9.109494784381486 0.9945258427138356 0.04854448456760672 0.564775205276279
Ni 0.22371846944663795 8.234748274476662 7.127239786102722 -2.042522917872934 0.49173582089110146 0.518387876260991
Ni 6.155429169459559 5.044008675463245 5.927150306082141 -0.36314003939685846 -0.6963490955622395 0.7988396953289985
Ni 6.791283227136282 6.359577244120789 8.71652246339432 -1.0438216036251702 1.083104974605825 0.30017346586665083
Ni 2.2223509270618567 0.07950767389342932 0.24643750571225642 -2.0788970856265943 1.8821007358967132 -0.09355061696465178
Ni 2.5895762006861522 1.2576282878424192 11.690173551899525 0.2227308102074551 0.31243814216661675 0.06936604929864829
Ni 5.209357118355465 6.443782905975563 1.2488005941144542 -0.24444557617672744 0.7978639616792904 0.18498213070377173
Ni 6.826643008141219 1.4582234207555518 0.6697106710190033 0.8508492556270701 0.22935551461282433 -1.306939302290104
Ni 2.712176251617181 4.27670519735559 9.054431726684912 -0.9834883539527512 0.24331686188892288 0.48564770571549265
Ni 4.229527408520113 8.5242046480869 9.062403698633759 2.2241556724884988 0.5293191784615142 -2.7358275701818946
P 6.82526706783559 3.309268374519569 7.565992279847797 2.401329362891445 -0.359260244726478 -1.7871185286918576
P 8.868943664387695 1.4199798196579951 4.184706624276675 -0.8384681083538981 0.5048962695324595 -0.5551163420302762
P 3.9373756997906266 5.621413542896734 13.412823484226134 -0.7141948654944087 -2.843925745943418 0.744477318528034
P -0.08881129217916314 6.587408455686445 5.621269351892102 0.5913539842060719 0.7977217796744712 1.2621301163952134
P 6.145731617579474 9.201468854413863 6.684155907669514 -0.7048856722783409 1.052058903933298 -0.015970150176011205
P 8.312093083300626 8.078428261809048 9.305912147859786 -0.7770341694181327 -0.8970532649869584 -0.5465445412008652
P 4.274810923373183 1.8153270513096704 3.6513591769444598 -0.5789491827838158 -0.8518211326220361 1.3399617799627115
P 2.4433872553373845 0.1906148535729866 9.77967195570959 -1.150160887714058 -1.9850371649516392 0.5787272965809969
Ni 1.7368890296401378 6.688558916647527 6.967706104639085 1.8223357000229388 -1.3030718489148978 -0.37678694075633173
Ni 4.884597509232301 7.291531770719181 6.656803910758367 -0.11326686444665654 0.4272078164110449 -0.7379739701918775
Ni 7.644243701393688 2.6522663028302986 12.571553790442241 0.4762863191052507 1.0572062524621921 -0.8653448781400839
Ni 5.613911840956454 1.332409701028499 11.893390510792287 -0.7004428060156388 -0.26118731441144055 0.5651176762173622
Ni 8.228886391804734 0.39639709295336784 5.931191423911277 -0.7150950087111749 0.7183731652418145 -0.13092494384805192
Ni 0.6563310651840597 3.5401153456592067 12.926966710785196 0.4196608573017224 -0.2259284912091464 -0.484300961879611
Ni 7.295772682620092 0.5655180625876661 2.781427515684471 0.5333504111080943 -1.87986619013924 0.413419761488017
Ni 8.030619048312769 8.185892969378155 13.160280950226298 1.6664296607495173 -1.703079450762067 3.2851522452310586
Ni 2.648656815590189 3.491241192063364 3.8478868041321848 0.1779095401277065 -0.4791950081116134 -2.4632903779752735
Ni 0.25387135306212155 0.9854936832852372 13.023382429215129 0.28011654721577567 0.15750346566752876 -0.23402335240213892
Ni 8.855240806823414 5.41931053019661 11.572901971165773 2.1538735391334836 -2.6415570443320826 0.20978556290069675
Ni 1.6030458500473586 8.594387027922657 11.956867537700269 0.5986068091137433 -0.04740317187431191 2.3618107359715323
Ni 0.25759298886138843 3.219709739420978 9.624331122478653 2.211076470707037 0.6889376335895167 0.06684739664185263
Ni 1.7034140983689399 8.507533152191982 2.3922343184134522 -0.24393984018490245 -0.529538750671488 2.1926223777669076
Ni 4.445606581995908 5.736643831368844 8.270362510195651 0.7074919995529364 -0.052165626259961774 -0.2118820404184093
Ni 4.938843484569299 2.123160709823862 1.6944016893670688 -0.6787154416408763 -0.1477409869641262 0.3561242702006576
Ni 3.2456264232598846 1.9591599344912645 8.982403136534957 -1.4176414913333781 1.284533680901394 0.3781406265707487
Ni 1.3374987953095931 0.7664600078518066 7.899335494658406 -1.88572444869223 1.1774004401563012 0.994216539003533
Ni 6.376767073692485 8.91989115269065 10.582430399733733 0.297042633547153 0.28116015798894156 -0.7311584899319408
Ni 1.3021484385533253 6.543849578339745 1.1991706157753828 -0.16092714663709706 -1.935501520115357 -0.5251727603933085
Ni 7.695078098712619 7.131611695060128 11.254069272030351 -1.402417989515404 0.7818999821508663 -1.6271416617831718
Ni 2.9069754715990666 2.356627622093396 0.27704935023790533 -0.6087228145018226 0.28236857647474595 1.1004308674787824
Ni 5.167127060071052 8.90165523151673 4.3854827027642465 0.5140504252279019 0.5192903334706024 0.181169698936217
Ni 7.195913343726621 7.4131893967833395 5.96658513221142 0.7461431362662312 -0.22630310093974576 -0.46129164546863144
P 3.445005828094756 7.126437782541015 2.625465624466269 0.16604184215584306 -0.6360436138039626 -0.3174957591951822
P 7.799479925464402 0.43006616374714085 12.317880346602161 -2.471053309750144 4.192842163996256 -3.0848357981630614
P 3.3944353097385482 5.808767606430353 5.61950324769159 0.7264551709190005 -0.6472343403134595 0.7495655316842187
P 0.24053132907158645 6.733823583003261 13.092072950486632 0.3661999092691048 -0.08100800441295081 0.024617541438364053
P 4.65557884233439 3.0172297567741073 10.41049629187183 0.08649525277976716 0.05905438295999507 0.20641253266340578
P 7.1265791462710455 3.958834714009241 0.5194721260172985 0.6569975903478105 -0.6196209494715652 -0.6563103344727987
P 0.2324019721699718 -0.19594143892053192 1.1319229469750562 -1.384122533640326 1.5487698094414875 -0.7508842504956423
P 6.606812983695284 4.377695446089305 3.8708942224070646 1.308808751398675 0.518119967311585 2.6273524706969265
Ni 3.1820598659895496 7.576106383519038 0.1279926060192547 1.3952975764205389 -0.9791730144068493 -0.36701931984660663
Ni 2.9515804405479913 6.4477882116597565 11.571026545680704 -2.08015718328594 -2.9045760126356237 0.37898163441480537
Ni 9.172941653693728 0.864037736142588 9.953909349946121 0.3871297174432365 -0.6101670031475169 1.2985677903969572
Ni 6.044976975062476 2.009805846836821 5.624096626492711 -0.011865383979018275 -0.2700391083751156 0.2677531405544163
Ni 9.314277110978118 8.653052975885274 4.209713868119053 0.3002649971391926 -0.35906664065843324 -0.25522004108441204
Ni 1.0292127728593046 6.441040449612973 3.6583246391354907 1.14792531351532 0.2722757110151182 -0.6855422347547225
Ni 8.6714679577839 4.8703951664885805 1.9901035125700517 0.4194752236534776 -0.04866712618840006 -1.183570316412439
Ni 9.29017930713227 2.435583977439707 1.1744149993724597 -0.579403496712415 -1.207552281149333 -0.1948695650208128
Ni 5.127677155143902 3.1675465230397624 13.325539862756164 0.6919077719614342 0.8387396168477298 0.7009660255089606
Ni 8.2108955010962 3.4130953221025613 5.198213886729603 -1.0335598166878457 0.20212213281816804 0.6343058051772495
Ni 3.196893633394073 4.8672568916819055 1.816968755427757 0.29611163709245136 0.3509468397647762 -0.40851306821501904
Ni 8.701229735079632 7.527307623912545 2.0422554198528653 -0.6731803707552599 -0.01098221004311657 -0.8313734062906456
Ni 8.775351450858903 2.337430427555268 7.657014500764635 0.20564480125944584 1.2853942291294767 -1.1337400231538732
Ni 8.231902151378716 6.029285601029102 3.9550612448422964 -2.5635849985319785 -0.29630164161607037 0.22485119898456757
Ni 1.2847230027649117 4.890148391698161 5.36520968828911 -0.08671173966594745 -1.2097197211142972 0.47589474009378685
Ni 7.864337604802348 0.3884241785796535 8.138774553309291 -1.896767850990585 -1.4738499202041457 0.5337342768100743
Ni 7.389430865889564 2.780728236433254 2.6467625416077816 0.07605554550368192 0.74944391850469 0.45611035837800806
Ni 1.1144079808242902 2.2510477642580273 5.528536629841897 0.6171228656400598 -0.5626550736094826 1.0801127247467204
Ni 6.111304837192738 8.647115699223995 0.6394069994248206 -0.8781320026024232 -0.1793455012432847 0.3453055823185988
Ni 4.92246414038311 3.5255266087200696 7.970081444564552 -2.083023963310774 -0.1359041422301982 0.5653321062210135
Ni 5.260832364583868 6.899907117291639 12.547677456440105 2.281569434521277 0.9548148972774587 -0.26760993010833267
Ni 6.040547578188191 4.611058691623484 11.522846016786877 0.4293665146252606 0.13572725033270172 -0.6647890613677713
Ni 3.699941178831573 1.3152292957054712 6.205168469083187 -0.09387791839708348 -0.030854266376695253 -1.1256104520682033
Ni 2.762737345724719 6.895458871920016 9.105825924374763 -2.1119141639825627 -0.32889885882580133 0.7609874003679152
P 7.916934336622324 3.7411251455137613 10.489918205102375 -1.4572534492980453 0.2683336956482346 0.6501844240807189
P 4.874541835902805 6.352047269434504 10.40263364120754 0.7646895318098508 -0.40722186020742124 -1.2221774872616755
P 1.5265869205982514 4.472597630183045 11.057044986937788 -0.1393126536911149 0.6580887665294601 -0.3630299961815554
P 4.123627126230009 0.513648882764913 13.268103779244816 1.274741891621953 -0.2356925125744457 0.3410532348001481
P 1.974681672048602 0.1956379781134 4.718191665639453 -0.34917689234854704 1.4736912831390943 -0.2440910210507861
P 6.906909334052478 7.911392878405132 3.155377933158746 -1.2673795377196106 -0.9078151314891527 0.6181057983786193
P 1.6207540132958327 2.871662811837474 7.650269565992452 0.005856458780777011 1.0706009286015434 -0.3480705466582457
P 1.2903681277174588 3.953236710300037 1.2576037847958805 0.6072732265394896 0.8373062268353129 0.4757785262308967
