# total energy = -340895.36433100153 ev
CRYSTAL
PRIMVEC
9.03158893673917 0.00000000000000 0.00000000000000

0.00000000000000 9.03158893673917 0.00000000000000

0.00000000000000 0.00000000000000 13.21864333592432

PRIMCOORD
 96 1
Ni 6.19754871078743 1.9688503030521598 11.264888874175842 0.6541552358030089 0.3173746602362857 0.647375236766698
Ni 4.629728059684962 0.3870406235528522 6.005269790936335 -0.09966135784807997 -0.3762341535766553 0.3522298202422579
Ni 2.6624763479080555 1.6152455256016647 4.773846933682026 0.5751259523829837 -0.07926016848390867 0.5715449198999446
Ni 3.4871597825673875 4.293075575023457 4.870263663393732 -0.8603543669040279 0.5458477722441567 0.07132780101070942
Ni 5.04399802129297 4.413791795277935 2.7443097706584503 0.7166309857397271 1.028975539751273 -0.45808085184081754
Ni 7.145693968795461 6.076344784720162 2.774024602041007 0.06536104190431324 0.11285754482337984 -1.0147146589568847
Ni 5.182027797901469 4.5039541495200766 11.351061072342238 -0.40149498502597303 0.15044218794537317 0.40115071431267685
Ni 5.561047467151762 7.873838747289889 12.106004382090525 -0.6369450425723094 -0.00010875766372239335 0.29276817454151516
Ni 1.804827612939817 6.240692612041031 0.22079345303884265 0.3894272552281616 0.6785159240355605 0.004924433884810874
Ni 2.670171261843176 1.374102095944732 0.38505909289866747 0.1753448647243238 0.525541970807269 0.2531338479793447
Ni 0.5762126767446966 9.05118767413064 4.726934150286257 0.2343218574791642 -0.24859636512030736 0.21135470716002952
Ni 8.661013992310073 2.4769404124982293 1.4495826989040896 0.24306643644101364 -0.7577179855880241 -0.10233144848107537
Ni 6.775814267740404 0.8927138797488768 4.853304145333441 0.23554570258393626 -0.6478886860680068 -0.4836371030433671
Ni 0.6286536958443226 7.30942764805578 2.04017908449042 -0.7900413803110781 -0.6986394342583129 1.6629733267698006
Ni 7.665064533059564 3.8288428623719226 3.6752191439789423 0.5147901316074037 -0.08235166292503882 0.18795792550264404
Ni 7.57535375827371 3.941773852800023 12.623566822211657 0.20068437193037694 -0.8565136530016991 -0.7430128181673655
Ni 8.171565082819505 8.830049214387195 6.850892964983667 -0.5639722497590094 -0.0772020004032993 -0.34283963727660954
Ni 6.683475300518963 0.5866920296072786 0.11143355295105488 -0.005772126597086834 0.10988560667924946 1.7741797091430023
Ni 1.9060897902174774 6.272827006150371 9.437000904721305 -0.9254181892828964 0.8071703266818808 -1.6224823086342894
Ni -0.07480323377492802 4.947206480632546 1.3479186159103347 0.15449090409345007 0.08039865296372606 -0.11161133112110457
Ni 6.456448244665543 2.2256906346096073 7.029820486630198 -0.23220995334248393 -1.909427962956757 -0.24966517270445393
Ni 3.5278922495244203 4.4969998258932655 0.6346308015277292 0.26756467869269407 -0.332361363453105 -0.7050265687315794
Ni 6.0132320399095756 5.517975818611165 4.897137156837336 -0.048837333217677185 1.074761487737136 -0.5202357281030072
Ni 5.275387334694117 2.8481567887438937 9.141987658565057 0.9256488172364639 -0.2702309126709475 0.17426680116879667
P 0.016257763585222632 5.620403070886045 12.245288646428587 1.1802402235979417 -0.5141470987067661 0.215694472185964
P 4.047244750610272 6.180524165285433 12.449874009622398 -0.7981863780157157 -0.3055627552030221 0.9182666658397798
P 2.3258328948356772 8.42006022602478 1.4407660615995541 0.7509428716477197 0.34639187340424216 -0.3857500634868905
P 6.468966027193802 7.733984589677993 5.728219472392246 -1.0695976841480097 0.9065354934457807 -0.06281590688495632
P 4.572765827068996 1.0315339204058762 12.575847517906961 0.751657381216241 -0.6395282299184535 0.10743200293243434
P 3.984791311805864 6.0754235626293385 8.157330395198446 -0.7261718353506268 0.3453868291784955 -0.10074970581625228
P 4.6780470615076055 1.1432366147128776 3.9447470519402126 0.6418705048983849 0.06038287196343149 -0.6899105390257473
P 0.20046424907574192 5.6333724328705905 3.6041956302531317 1.0944368546788765 -1.1922511320158886 -0.8643727440348018
Ni 1.5677574299785877 1.0848383594259217 2.7092139184747843 -0.9714975001394623 0.14830251589455107 -1.3081988857288178
Ni 2.012210962444779 6.40808408489727 5.037836671191399 -0.6047900551063197 0.1830903129976976 -0.6648739077720937
Ni 5.847041768407059 5.617937447054722 9.030659775206773 0.8251451659927468 -0.026327325040619173 1.3607573765518244
Ni 8.635915206129676 2.223206947600032 10.298354397548918 -0.3358716905992086 0.3633351861268001 -0.2828663420467709
Ni 2.2553594048876233 5.205762814123881 7.189289449505348 0.1936637176381697 -0.5025120855709991 -0.4192335399563166
Ni 0.5713229743920276 0.09705526306289619 8.98801712714965 0.0466089581077907 0.7337267648797492 0.2771649207866194
Ni 1.3135723856241042 1.0001130218374692 11.492169717683698 0.8781633700609908 0.5273882799873886 -0.5426446919258266
Ni 3.8878733288976792 6.921042220882107 1.685244857120618 0.7454993320346451 -0.27865924594395874 -0.9537512318996348
Ni 5.580944057995741 7.821464561949793 7.9975173287776045 0.2128819424378334 0.6431833101725374 -0.4019212739301143
Ni 5.422213879111075 3.130872623146552 4.886483494304627 0.1460386595610388 -1.8481912276334622 -0.7044023048840191
Ni 1.064192146684508 7.45176549267725 7.2616351878791665 -0.31993136521986837 0.07422646271474313 -0.6106161748697936
Ni 5.158021834005284 4.54191391861551 6.950521327788483 -0.16474112106654853 0.18965948157478305 0.17396983875366812
Ni 8.30383270556579 7.201780137266231 9.287484753062706 0.36883811822290025 -0.6352938801221316 -0.21657044703301412
Ni 4.456773127927274 0.4756242560158157 10.389972643958126 0.892107748056225 -1.7656361904483655 0.5380033364990734
Ni 8.281560806781744 7.055811593816217 4.765122418586572 0.06391222527292864 0.947995303252464 0.7714677310739487
Ni 7.369063231052961 6.269440160228223 7.034143005185772 0.1095477637238565 -0.5772885072519413 -0.16180132171193423
Ni 2.1750776091490285 5.062431494698582 2.5706828886698085 0.07350706805021534 1.0027191771579054 0.18838987083374006
Ni 2.2294658388641615 5.040945344168475 11.371523040665487 0.3608664128713333 0.25208560922048845 0.6621385111188015
Ni 1.1252005312287994 3.299149191737112 3.740334192098702 -0.4257967949961312 0.14667655025535384 0.41713423422512674
Ni 3.562871594208364 2.656976110130487 2.756761622586091 0.03138031408349434 0.01159079016139294 -0.4803550898579856
Ni 1.1290479881963595 3.119167683639608 8.257991068640333 -0.29565963715669724 0.8076331252509122 0.07005999004187934
Ni 3.747296644155726 2.640701186525926 7.178172466450491 0.531452165644117 0.8901974184073895 -0.9710802100963856
Ni 4.327278203042589 6.934336720075178 6.105969300211462 -0.5989485087238781 -0.3757466724172755 -0.7884352121662229
Ni 0.7487792501699779 7.50493445786041 11.286619780771257 -0.0884516051751896 -0.07228965070334646 0.32097163355892466
P 0.1653358831712236 5.614866706751974 8.03340615448651 0.7401254693172414 -0.7034093448431304 0.022529291450767652
P 8.543124659451948 1.7001334317943801 7.852997452223359 -0.3538123342380294 -0.36366968664808336 0.9626626754566517
P 1.7273817361867012 3.110316726296395 10.489297545368318 0.3569115419886434 -0.2865551037522678 -0.7032612493010405
P 3.833828299569324 6.154233209340439 3.7204005717393085 0.46689613613960235 -0.32816558020420256 0.7203691126259206
P 6.932069791204621 3.840069127655202 10.303549367614037 0.15547203705979676 0.29599670878114187 0.06748862977027732
P 6.376401270244218 7.644680236402797 9.994907453467064 -1.2870001401640156 -0.09574273951996415 0.7361986234590095
P 2.5039087376276528 8.500730380095781 5.8422044492713185 -0.432044832788372 -0.41203573665629684 -0.0438571063942664
P 6.960374791524652 3.955836037068781 1.531511856499217 -1.1631151338818806 0.7143097938057182 0.19925021058701167
Ni 5.33480615955228 2.85213971954834 0.43027213122097346 -0.45100569016159103 0.21540959395569353 -0.4753787196893168
Ni 1.9644880455044333 1.1857302415494269 7.035689213244096 -1.9533388054070937 -0.5551327970905084 -0.26904126323822053
Ni 7.046310362055952 0.5978577832434159 9.152774085457915 -1.0678889289870188 0.6267092237769142 -1.5261955236853972
Ni 2.9847595742705266 1.6512544714459414 9.201907736619699 -1.7312515423209087 0.6890067962645552 0.7145846447336597
Ni 6.304699484175065 2.0392154139307053 2.4497977776986795 0.4391264222255018 -0.15568800972534477 1.1726901791648254
Ni 3.9475540698404887 6.764479623387616 10.374309158937375 1.068470512522102 0.9449788850236435 -0.17149360929903368
Ni 8.071079622206659 7.286704169815449 0.016395946898846266 -0.7774051796043063 0.2575926550816467 0.9251824191230067
Ni 7.403672280582749 4.002249373585896 8.155652325938886 1.7470244888844493 0.4102215662656935 0.26181389225184587
Ni 2.9544676243428354 8.363928899608382 12.379775330623062 0.7672007282674788 -1.0236600410756307 -0.16446524169734256
Ni 0.03660683704439996 4.657644701672586 10.034127129245539 -0.4951492174480247 0.5036006906494875 0.7694324458114749
Ni 8.848500750971057 2.225464844881464 5.734776406097525 0.19302865515733206 0.4099780827963197 0.3469120075737703
Ni 3.644173959518166 2.7865884456738073 11.624567395313392 -0.7650597706650759 -0.26474083609065374 -0.20060312507048034
Ni 1.0691233943471552 3.351568535022836 12.703406973242005 -0.5002664840699319 -0.1521504288857315 -0.4710410115459113
Ni 3.1674686222840007 8.390156634429497 8.13003422338376 0.5229161031486478 -0.7961264101628934 -0.207126785121611
Ni 5.420985582989975 7.814492175144731 3.6193045757015616 0.4992272441721402 0.24334771512685832 0.6186477869250184
Ni 2.906717612635113 8.318581290608103 3.63069882854258 0.5975822245039708 -0.23427017830562236 0.15916619808193233
Ni 3.5253363098018395 4.248594998579248 9.381628231791469 -0.9092318093310212 0.3813401073446529 -0.17580406374892946
Ni 7.060462862215967 6.091292064723242 11.373664430447198 0.6608542450897393 -0.7777265674994671 -0.9791910121289781
Ni 0.5251399433976185 0.030457228008691897 0.4091761453410984 -0.32066412962083485 0.19875681589036093 -0.05044864356885505
Ni 4.590720626250943 0.4413087331326129 1.8218196447209614 -0.055906067139000495 -0.6036921940564507 -0.7322018435947907
Ni 5.962221624527466 5.656366858784693 0.32153179814721067 -0.22625296442810064 0.6087397837826871 0.9854547336505028
Ni 7.669291316770405 -0.13261985472218715 11.22166368862011 1.2746943262134693 -0.22331162241158958 0.8392767202981223
Ni 0.16487256264907377 4.727784022822989 5.793810485258932 -0.40465795613498695 0.6718472537661332 0.1683766609366068
Ni 7.880314396693035 8.987677539398522 2.5172131715687622 0.2942121060768933 -0.3980954724261208 0.046742398361861434
P 8.532557700174847 1.6991851149361787 3.621352940115277 -0.22302160197499657 -0.2535359685137698 -0.3893766044958842
P 1.8917295635075702 3.1017367166269536 1.4504289588051702 -0.5149127732281971 0.6150484996095343 0.9676696417529399
P 4.85195934171262 0.9115673220488337 8.189782701245012 0.8163681911310651 0.580005134852156 -0.2772597944932709
P 8.484220635173951 1.5570188705080974 12.484321393706837 -0.7198764892602183 0.8912664831018522 0.108331117707936
P 6.3715874332402045 7.71532532654424 1.5251138787625513 -0.8897575026564934 0.13964021223386275 -0.8818392762506814
P 1.8702434129774637 3.3301456056166097 6.0481373255626885 0.41067279487049924 -0.7851092331167834 -0.20193932738340062
P 7.152576039709265 3.9097478377601917 5.882957688883341 -0.36183366188060906 0.7635178800992528 0.25905612700105063
P 2.3283436766126293 8.585275085901719 10.098475395448522 0.3061011442049954 -0.6908078540290361 1.2060386727182841
