# total energy = -381159.7864315128 ev
CRYSTAL
PRIMVEC
9.39164527162466 0.00000000000000 0.00000000000000
0.00000000000000 9.39164527162466 0.00000000000000
0.00000000000000 0.00000000000000 13.74562217708350
PRIMCOORD
 96 1
Ni 7.854758647737669 6.119614666939869 0.2193719222981434 0.9025101743364714 -1.8005024061979316 0.2689708150116013
Ni 7.3600067890042835 2.675623311351357 13.603739557968614 -0.7733829458187906 -0.9023823905093554 -0.31436081311062636
Ni 4.910449764508874 1.4382834739127661 11.193114658666703 -0.25090418731787756 -0.7686634288559343 -0.5435818590281155
Ni 0.29625192828887054 7.321510436138904 8.362438105817043 -0.04155699750618004 0.0864947385591349 -0.32347871625149455
Ni 5.161685659971607 1.7467520540209303 4.173912822678801 0.5943189803716667 0.4512887686196486 0.040467621096743206
Ni 4.017633032343167 8.881030655389356 7.573893051456447 -0.7640079323617939 0.3582662562443249 1.2257806312319017
Ni 4.981582083758052 6.856408000678511 6.743258400852505 0.5408788582746556 -1.2148349308536757 1.5832367328701056
Ni 1.6846451056191862 5.799199914388484 10.043637416884799 0.04874605905545153 0.2607499697637058 0.6820113387833286
Ni 0.8387509102151302 7.590937947971542 3.9136806704681417 -0.7712556150631428 1.3332478582776457 -0.2131395669745942
Ni 7.481234142696966 8.07545291365217 10.028324339708169 0.08732983286592057 0.876781916332432 -1.0013019850954046
Ni 7.452232742929147 2.2076564241651915 3.014497342155219 -0.27009747241687676 -1.5574429117354531 -0.8764921530061551
Ni 0.5518286420717748 6.383463541641003 6.046905490494766 -0.08856910458966037 0.6148124723393282 -0.08436715069317083
Ni 3.044160852895716 7.407951136742208 5.728859310813021 -1.3966188663351238 2.4155182527973174 0.561087986232679
Ni 7.15591695145426 0.48814014065160427 12.661202517995003 1.1940876710039952 1.2508530008194974 -0.8926129698274174
Ni 8.612232383771888 1.7597500907044348 6.5717679022707705 -0.46027194595486537 0.6344976094730814 -0.6400049124445558
Ni 3.5730889077933172 2.677736431476927 6.810762727637205 -0.354637401242486 0.11835379205126068 -1.1468374797677798
Ni 8.829066683590346 1.5611825404159 1.106492621769814 -2.0175135403127897 1.7955581748187786 1.1091908730595994
Ni 7.8438361645997245 4.692291242745058 4.02687628935466 0.2110826844455655 1.444022295319752 0.35987705237487055
Ni 1.0435244595213378 2.6699977159948407 7.981862353708437 -0.03018218001033512 0.7852912672206024 0.6542771060928539
Ni 0.29269812981991244 3.889521602863628 10.313545780941567 -0.4272024170944062 -1.4509285355212818 0.3891986841571233
Ni 0.6329583674261476 7.713113857809481 10.720223732005708 -1.8890152036283594 2.120937707637412 -0.7716669915689484
Ni 6.637282139479433 2.870978919049026 10.660967147862234 0.24007521502317367 1.055296951254621 1.025532318397679
Ni 0.13469872928431523 0.37664347034604434 8.017711201847602 -0.2004390886887903 -1.4198616389131482 3.4394130355915733
Ni 3.4698465542804824 5.912707335889086 1.0433788890237985 -2.9546068519407696 -1.7871524672535866 0.36054991007217907
P 4.0953301114491145 3.611143853343577 4.717951095220976 1.2059828797796843 1.3913815291955842 0.5932584003176363
Ni 4.39901834425099 4.62100865717584 12.117769067390993 0.5547288767838705 2.393259441399117 -1.1988578386991289
P 3.288878946726693 0.9610470331091016 12.495787474565407 0.380368487460003 0.5606658110935957 -0.3052557654855646
Ni 7.267189161444259 7.532474957830781 5.248903049616622 0.8218143018473008 -0.6099579724605043 -0.8592961008428427
P 1.039504835460254 2.307555352057125 5.337700113951062 -0.567246549634907 -0.5301532443270354 0.48210626822113745
P 9.233762058394454 7.316467122772544 1.8533359548256658 -0.4296966442711697 -0.0670649119692974 0.1314227094200769
P 4.7588592225230055 6.705230691072753 2.465290847368151 2.9468187233549186 -0.3213688689973433 -0.6370579140010899
Ni 1.058607441395404 5.153730936654464 0.9851366025405962 -0.4289533383472419 1.4335962148904213 -0.3873932555172683
Ni 3.961555520033049 3.5004539253437343 1.999837164384663 -1.1541275856712896 -0.27268168820428523 -1.0706212403165174
Ni 2.99469505866738 6.775517762271702 3.5250919668433767 -1.4659509770720431 -0.3413093166750122 -0.1660492983550108
Ni 0.6833492386872333 6.2720410653309635 12.366565013482068 0.9361882833152071 -1.0526944806347678 1.1127299965611095
Ni 2.7359082806226103 3.6046260517118194 10.785268386964246 -0.14469834348306046 -0.8466375315385677 -0.8471538090533538
Ni 8.208457390178028 4.844661291266137 12.096490417308754 -0.685843053824593 -0.2193788630160867 -1.5572616489625826
Ni 4.809696196921711 7.529666855975024 10.7353996911653 0.15714556810747776 1.272552597280118 1.0137109002827187
Ni 7.61418226935281 1.282109809165661 9.127381956286273 1.483712157710206 0.5963578651785666 -0.18696676523396832
Ni 2.685071306223904 4.584249758635929 8.482285826858853 -0.7778301829568668 -2.0226287500521685 -1.886172334862926
Ni 3.681656324022587 8.463215152516712 1.3254034142983333 0.5410603781578424 0.187014073532136 0.6756733123804427
Ni 9.355815876847359 4.742386277188563 7.975855457564818 0.946231783594138 2.1012818810796974 0.520561229763226
Ni 1.7750960386385721 0.8718357972300499 6.79854325832441 1.9988200776683445 -0.5012352757411046 -1.289580242186366
Ni 4.3534688659887095 5.678676934070991 9.511667408170878 0.21047898942329557 0.2675605649276359 0.8477351354781206
Ni 7.6533172540783605 8.699677990390462 7.399570971906449 -1.3941318382472119 -0.061700048112958254 0.594883080405253
Ni 0.11034525462824947 3.0910909029733684 3.439566951627819 -0.3722772258114363 0.08314124870586971 2.49523839163678
Ni 2.398964232866769 4.098232129754897 13.227136471696081 0.5018286863507293 -0.7143553023316729 0.23540763434417522
Ni 5.9638730178628805 3.896969177350636 3.082318167376503 -1.111205846607099 1.0281646138142035 0.28582850999888837
Ni 3.453937107646193 0.4752801611496371 5.303761526405411 1.473894914509468 -2.5111828307811783 2.3351874769570493
Ni 7.449133500078312 3.660731738956946 8.287276770861778 -1.1474969677286497 -0.4341284547902781 0.23401023977601634
Ni 4.984606193448867 3.284286432320455 8.987190053839976 -1.3824885975813286 0.10798864676685273 0.06952340081211898
Ni 0.9555529207826203 0.8778041876291589 3.4719793968605575 -1.6118374273259337 -2.0195825070266764 -0.40751496596780784
Ni 1.0977612094109601 1.307279417772447 12.716294846744356 -0.07226136856857232 0.29335695716544957 -1.5147867676278235
Ni 2.6222505928019677 8.094348903397265 9.655213067047578 0.2140839331657345 0.39819805944225617 -0.2668074888116953
Ni 5.666665020112752 8.873695780642379 6.027427218759515 -0.7036273743912076 2.0538113463025596 1.4279475012450764
Ni 5.215161686616025 6.588708551526338 13.77916139914841 1.8352038142348588 0.420555858312166 -1.27106084322594
P 6.410041896998169 4.390584647038716 13.057186202894762 -1.27702400278791 2.2483507816774635 0.36269549566027215
Ni 1.5466442739519806 0.9780834771436946 9.939101833855116 0.26803879011563514 0.29827239218919605 0.31263534577908736
P 7.684929531156883 5.680630396231517 6.1893786235121775 0.6257540589524965 -1.755095695928358 -0.9607058088405971
Ni 2.9522729981909426 1.5012074954297305 0.7524229093518557 0.5525105289763129 0.1352834779270638 0.548333514780488
P 5.9395392656613195 0.141526455201156 9.465042586555809 -1.8503332136771293 -1.0618393803588293 0.15078594443803708
P 6.167033082557653 4.840698017075069 9.94835260418261 2.4036621247896797 0.8267297368710472 -0.49987619061004873
P 3.1655854311334526 6.6427950350959195 12.37005588792951 0.6009264583858553 -1.2464505008764277 0.29722698164381717
Ni 5.611019523472749 1.4957509496832595 7.687788347895654 0.4757402167937936 -0.9294954446760637 -0.680784408354763
Ni 7.137772293309368 8.03873158169227 0.7246687200403731 -0.5307433125025505 2.7708310828402736 1.6892857394120842
Ni 8.372454295212242 4.065135972765974 1.5744097332374662 -0.4475028192146551 0.17654891233475403 0.05161335330091756
Ni 2.8805396136616035 5.27905304756825 5.974754177762814 0.12342555014721325 -2.160801890822201 0.2905300292396158
Ni 0.0329825180843922 8.73608939806528 5.944252932288092 0.42278526186331705 0.22174222104194072 -1.006501784128789
Ni 7.196873915310302 0.6213953740990303 4.954774572262823 0.7590292482002798 0.2764046455818272 0.2586704615268578
Ni 0.12460552840009408 3.3746246655998102 13.136938173927263 0.9699903194663166 0.053586674977204485 0.46296106275125426
Ni 2.495839051067887 4.443224817277909 3.4957318062364613 1.2386034940281831 -0.9080041075715072 0.29924889716985237
Ni 4.875409537004427 8.02468168076848 4.174036792392834 0.2612361653715049 0.5078635796908996 -0.636236446541059
Ni 6.837324178033366 7.563054153959025 12.194221753534103 0.24594787175386673 -0.7962868470001576 -0.38930204250420697
Ni 5.504997243039166 4.073447578593215 6.666997304267445 0.18847625989995928 0.7849433969628804 -0.2219021436585727
Ni 2.7475633120707523 1.996917301953376 4.0184087822203765 0.3028862368121235 3.7150880020962274 -1.4461714804522705
Ni 0.9123269354939665 0.21817542672482082 0.9407657757261336 1.8180316733309463 -1.4179106858343646 1.1649966671753098
Ni 8.009410865994365 9.132585866782176 3.068737848702842 1.1350314882717873 -0.9839791775462408 -1.0725552241144365
Ni 8.529924006969697 5.991005480275196 10.076035774650034 -0.7602685199240197 -0.7253591096413443 -0.3469307766268477
Ni 5.277437684627816 5.711913965734952 4.765510385513798 0.15639146355027259 -0.9514112709125485 -1.0258416221079816
Ni 1.7307299076466107 7.670184648502907 0.5581736374354855 -0.9243671223105628 -2.997766160937063 0.03240027070757646
Ni 1.3451559220676585 2.9723335519163516 1.7651850356674 1.5860166096080879 -0.345431823483818 -2.257743278635957
Ni 8.971763337758818 8.431377475958127 12.942987556321972 0.8990157880299678 -0.18913497652988073 0.025662180652794516
Ni 7.067391305660394 2.9399605515926233 5.224862316739141 -0.4499757062351799 0.07372998269429883 0.8871552891469558
Ni 5.58776581044648 0.11004472198816843 2.427366445683426 0.5620917449068449 -0.93806158907852 -0.30974285472264074
Ni 0.04464412368403621 4.19056139177479 5.700859060402471 0.26061627239931895 -1.1637789927181248 -0.08394471844377156
Ni 4.908148811483254 2.8128164615483446 13.328057210564289 -0.42663934550208465 -1.8046935614611435 1.3361442059888344
Ni 5.194312234710404 9.01831772203637 13.217858465598079 -1.6341510032214694 0.19481788584727094 -0.2187322305710233
Ni 7.107512413111209 6.7221826103023234 2.9531370295311756 -0.6908297084059071 0.04212264020166294 -0.8328119385093851
P 3.1326583237545758 9.396810407283413 3.2742204672067405 -0.29125533744141446 -1.299835087145155 -1.1091890732873866
Ni 2.203758891489141 8.544913072393738 12.19684765747681 0.23048551445220952 0.13997856940988798 -0.40134997480767653
P 5.494347117606295 2.036550043864061 1.7414880369970112 0.7271935917469218 1.1649717274746452 -0.8864744610298475
Ni 7.0485234908503065 6.3589513481843944 8.012213332863121 -0.19296540601956447 -0.22765678675416276 1.5036598044767266
P 3.0595255841198585 6.698769239311011 8.130563086527028 -0.10709364575640912 0.7295777757083822 -2.106802810897926
P 3.10548829476225 2.073233809243951 8.763988218709802 -0.8773048787154375 -0.10472360286233577 1.2436868220883615
P 8.376774451913407 1.8218664307511814 11.14900491958331 2.135505578149258 -0.5307548824667763 1.2971781091382821
Ni 0.6622246115830379 5.412930947079344 3.2452725998154364 -2.3763942902126622 1.4145980765213637 0.18359167811414834
