# total energy = -340896.9404666008 ev
CRYSTAL
PRIMVEC
9.04374118826199 0.00000000000000 0.00000000000000

0.00000000000000 9.04374118826199 0.00000000000000

0.00000000000000 0.00000000000000 13.23642938439660

PRIMCOORD
 96 1
Ni 6.253837443425126 1.997717201581168 11.50019398324617 1.3799249506192106 -0.32040881907691915 -0.08914323192557552
Ni 4.712892476164609 0.4177050812959538 6.100603910856663 -0.5818437307227915 -0.31775055551846565 -0.7997763482106549
Ni 2.574337093636731 1.6678557868344714 4.686728028640244 0.522690617401403 -0.787917649099856 0.2136998103534384
Ni 3.511286764377183 4.153537085966573 4.6829558842061045 -0.9045043219483649 0.3061206845890212 0.03247329003735698
Ni 5.241309227884594 4.637576199857911 2.7645739974992005 -0.6520914112954447 -0.6310484745822165 -0.6172437074886402
Ni 7.357671269627573 6.188062314032882 2.634499677270578 -0.4128597752194889 0.10285029709902288 0.4821980566039953
Ni 5.0590959311714165 4.688899430890633 11.460126592450159 -0.18380533678685118 -0.7539006687244629 0.32552120060282
Ni 5.499390469114688 8.083015484913641 12.410608413075064 -0.1809609253595206 -0.3328627285695558 0.7626609314155962
Ni 1.7527765162436801 6.520817725947944 0.4426504325131445 0.8603962758855569 -0.613812313209588 -0.7124316029463988
Ni 2.603494115108008 1.4936823760046576 0.4264567096079124 0.36350410760449653 -0.1789050712717564 -0.3560800472262835
Ni 0.5732908909378286 0.08902749226594162 4.8034872487720435 0.005003366751862351 -0.10606623293315927 -0.23126404448944687
Ni 8.679766744771642 2.473399898648853 1.271288641731078 0.36288035797756857 -0.11945679530745233 0.2104666481281214
Ni 6.9917343714289775 0.6633918752784105 4.764320614594684 -0.8710802379619643 -0.08927950039312366 0.10008019055305345
Ni 0.7701125427324433 7.3420798598830075 2.5107252271278395 -0.4023755878587135 -0.1659953051886238 0.6842443418789055
Ni 7.551397248826152 3.895889944311733 3.910981235170641 1.0522422235886975 0.2476661399965541 -0.15298912273694298
Ni 7.678009624942119 3.8464478114384484 12.631537965656273 -0.048812650627328834 -0.12341937949962616 -0.5323237696157929
Ni 8.12685954201437 8.852601681911088 6.813306784761667 -0.352997808756534 -0.2911818038910018 0.4244096848406174
Ni 6.988297749791545 0.7637059565009755 0.43797481833800483 0.017468846208724752 -0.3802453316185774 0.022067521323000706
Ni 1.7826299057835948 6.449453564524294 9.324071804350572 0.7946871066132056 -0.13089563327201328 -1.353894845104036
Ni 0.032576460000522986 4.97030448054952 1.4150009236156205 0.9752520820858883 -0.5888823827371278 0.29896401893958185
Ni 6.611598799623091 1.8528545558222003 6.884637484343057 -1.4004575233549235 -0.035015082622604214 1.1778982057283263
Ni 3.7469123963289963 4.2613475242293175 0.5594575844730442 -0.7341216863253228 0.9899235680551337 -0.4275952816574507
Ni 6.023348656447161 5.615349318154611 4.800879033824054 -0.09033365268925088 0.35721878881641705 0.9876625399350989
Ni 5.233576829200369 2.757581376841139 9.551725378477656 -0.2635234187437849 0.1280008282227215 -1.281420332083393
P 0.2405038259287382 5.4456073404888565 12.46925888318844 -0.09706042989012316 0.8132892950954251 -0.7147026583687628
P 4.051261417288326 6.186651490413305 12.692200668175778 -0.6373836727716249 0.22840343511220015 0.23925066223934924
P 2.2531757578774316 8.448002790291367 1.3431800532638387 1.4369113953065833 0.5165266546825363 0.25612841183129437
P 6.26733974896378 7.799557506013446 6.006929744387266 0.6333763513844447 0.536672790613108 -0.9420066897691971
P 4.601573066335221 1.109775564138746 12.628056125313083 -0.43189442325343685 -0.3503518864932547 0.21249190608826632
P 3.9454315583376802 6.236383023003425 8.25913510883918 -0.9872167106469321 -0.7636695751857686 -0.31300481330336416
P 4.619597242449444 1.1766449862102784 3.8318937188039177 0.9416917296319396 -0.7084782747256058 0.40736712753603393
P 0.19957004473044634 5.6379224960678584 3.7912041186167067 -0.44459824397335046 -0.5173344952958123 -1.7134301978687718
Ni 1.2713239123215676 1.0337629197634104 2.5517982819398592 -0.17842967429723466 0.609293599403628 -0.14891803799136288
Ni 1.9124980287139712 6.285065481620014 4.8300523340294035 1.3041627679862313 1.0122895944551598 0.18299492507041387
Ni 5.770820272283867 5.3407361181002315 9.16159466395153 0.13894138639462525 1.0375555681108002 0.39084933238666886
Ni 8.683908778218864 2.2813198803397805 10.162413947823678 -0.385962950828645 0.2736664207150577 0.054501473481990005
Ni 2.5373843672931713 5.122980918663073 6.9260279744694815 -1.002042719916171 0.11142132659748553 -0.29416145534461596
Ni 0.5765710558533472 -0.17912938098063874 8.899433791088153 0.7504111675139657 0.8517496559541523 0.6480108134681679
Ni 1.6130959341643158 1.25191604381122 11.297782395046037 -0.36838483273556555 -0.87913370439406 0.17984892324226445
Ni 4.250766347082484 6.953379865206991 1.7493398946062466 -0.4001721524494915 0.1897157887340152 -0.44251822151587017
Ni 5.597062873547006 7.70609044121641 8.140007332899897 -0.8381570048713823 0.9820894167226958 0.09070491998574055
Ni 5.429862187144721 2.946071029913208 5.031510711912207 0.4772666807406491 -0.5120737611175052 -0.3353973220659514
Ni 0.8874804066437137 7.239442441558714 7.027273561030614 -0.027713663865184528 0.23664999139170861 -0.558336905850103
Ni 4.946863103485763 4.57126748973775 7.007868405642611 0.8830695491133566 -0.1781288552273642 -0.5939009189976416
Ni 8.018497435541406 7.310906084135025 9.194182880815546 -0.21467657244441093 -0.9736058047317169 0.1762447508307739
Ni 4.502942025340883 0.2825599354038866 10.475323774156678 -0.023135814686514995 0.20051416490109983 -0.5118179363529571
Ni 8.095007485680053 7.212537311634072 4.84417594458514 0.1429055132486958 0.21412789902979254 0.21565256320443507
Ni 7.0817195958828245 6.143603282533875 7.15471343946191 1.1075314830793055 -1.0635589341530973 -0.38032477870626114
Ni 2.438653845146171 5.365913893465007 2.503406127414222 -0.1470694148183983 -0.37575824238150124 0.4733321215729332
Ni 2.4240391594459285 5.148312437627417 11.288423931702836 0.154244849520915 0.25249955682945546 0.8234248408675303
Ni 1.112099805614589 3.458778803253662 3.534615999050665 -0.6274736127467646 0.1566873975241366 0.2707235360366499
Ni 3.6005665770212416 2.573025751169816 2.5805076382241543 0.2469634575025747 0.8596550268441583 -0.46267515607971926
Ni 1.0637519654205922 3.328123874843136 8.010210655524615 -0.4766357320248695 0.5977979400592027 0.5026175008006118
Ni 3.5848485549005598 2.5699689666607304 6.885524675349984 -0.04084480193050385 0.39575525432871844 -0.166601571314055
Ni 4.192569872774895 6.918859905233087 6.067963240293968 -0.11508103483725987 0.31198279979675303 -0.14939163519367177
Ni 0.6754869746939458 7.299058783227032 11.239832814871876 -0.7625208062933062 -0.02252363502381282 0.9425119115403896
P 0.01601646557866972 5.661427179319673 8.165394018685264 0.1836487566043289 -1.1342460162560142 0.16165836837616673
P 8.562315678441783 1.5826637451907282 8.05696137103132 0.057659302384681345 0.11167869402393026 -0.2385806327555182
P 1.8049136839800048 3.2663912977454514 10.266955978034401 0.3745266839672453 -0.3461491612658168 -0.5142350304348822
P 4.018776299073429 6.162540876504364 3.9445751160506672 -0.20100653115648612 0.11086828230749293 -1.0031655206667045
P 6.854839261624164 3.956320222683653 10.406798443080373 1.0721327918650374 -0.22520498277956055 0.9934097268315213
P 6.20976729279562 7.728672662870808 10.24691595201759 -0.6592406207457163 -0.16308713040289333 0.7920915779718875
P 2.3991960025037455 8.327784339169257 5.819766808142069 0.019964616047384972 0.8163779613230777 0.09593685780864122
P 6.997875071670602 4.243603704090781 1.5568293942183806 -0.14976418804174207 -1.2909560394879704 0.10992340189572036
Ni 5.541489084173247 2.837338130053046 0.43026955087723323 0.23028471129531308 -0.03818113905541166 0.5747384871365779
Ni 1.52700856214661 1.0866416742741285 6.999410698918066 -0.10962515392901122 -0.22387238001106605 -0.6657128587336212
Ni 6.844511309229563 0.5761876012285388 9.14555197152352 -0.2886631512342061 0.6963624652986782 0.18323660876757475
Ni 2.831776229245095 1.5955601200722547 9.100283525191486 -0.5079137162025446 0.08559819488679452 0.35280137647501175
Ni 6.466057873277788 2.1299819159165967 2.6748709377692688 -0.17703510794255317 -0.27082509461152066 -0.12569994800368675
Ni 4.080572182359171 6.815806474815843 10.46059151982147 0.38491728317295 0.5804435079411552 -0.4952523186847922
Ni 8.0874469180777 7.061434484480817 0.39574145153629414 0.7461935298881922 0.8496799179093173 -0.3725289368109262
Ni 7.453770063099592 3.668069060973354 8.301623509141352 0.8407792729855778 0.3228832487593407 -0.17264083552959944
Ni 2.87574689872194 8.126108911498825 12.2796342406019 0.6753002453117402 0.6351308721817062 0.676319430604874
Ni 0.10387008024319332 4.764396582020353 10.261846264284008 -0.3907086930437465 0.044206262203569026 -0.16327893469872523
Ni 8.597414437849359 2.357884192925336 5.87786108817465 1.3334085522252261 1.0176115208887055 -0.521290908840399
Ni 3.654485361764341 2.7442509023843575 11.422879944519188 -0.15655909947638844 -0.1367862877248354 0.5555310609701916
Ni 1.2006832501900095 3.375856740638855 12.466201194305238 -0.59265779061916 -0.05579525259274907 0.7857250123239115
Ni 3.117911155526027 8.370045741568536 8.080284275085997 0.09015907478459956 -0.11788765104811956 -0.14893963525791767
Ni 5.644696258190062 7.821407184634602 3.8031174388351037 -0.8604685238843891 0.7212268326405257 -0.26944801175833594
Ni 2.8280049891850694 8.492190509555838 3.554629798218139 1.1306708973102462 -0.4798123299806383 0.30916358518040304
Ni 3.3975436319192895 4.20164978889064 8.953663680526853 -0.32677898426932106 -0.11602848635219373 0.9442690034408124
Ni 7.170076946929467 6.048300338283158 11.3727794272901 0.6356738891693697 0.24193463682941557 -0.2818181032879147
Ni 0.5074949609409366 8.972024283811898 0.22979874952813328 -0.5132068462806839 0.3989961298635193 -0.5176283723871472
Ni 4.767182054294905 0.4875354242203696 1.6143810497818931 -0.4246436552282945 -0.26077285258184124 0.046517941055881175
Ni 6.127460204579091 5.844562937630266 0.306750134234957 -1.3825755008681802 -0.4869702811816581 0.635390553600996
Ni 7.691059743423215 8.773125284674865 11.435719343831462 0.8674092168682803 -0.060812760411998484 0.08548866589212373
Ni 9.162847222100961 4.957335755738785 5.852871422625818 -0.12215105431016382 -0.5085706330602532 0.9339354827252883
Ni 8.03994918955191 8.845529476330897 2.6436727439201797 -0.6399370353210979 0.4404433412647124 -0.2484348998417786
P 8.517612465931695 1.8003737259221322 3.7005089604824946 0.029854621467587297 -0.339879269096705 -1.0508432863586419
P 1.930178542664451 3.4199721099741183 1.435226346326031 -0.8808329464733541 -0.28681272828902865 -0.1664539899925972
P 4.766621342343534 1.153257871593429 8.174593312184204 0.5550654341876827 -0.5584821731787156 0.0027456810659372065
P 8.580484554414422 1.5642687756893088 12.269005131626967 -0.11854353946456357 0.5039567884373257 1.0634859148233167
P 6.31176260549818 7.890917379122267 1.5754658316085357 0.37648329347298387 0.05943644888976214 -0.5333928343102555
P 1.6846047954463834 3.289362400269348 5.782664860069516 0.6205933406871634 0.036565972049491864 0.9568542963049909
P 7.085816410624291 4.180161859915531 6.117202793365467 -1.3695261238833898 -1.276065238419067 0.05743561640964947
P 2.2932576186592866 8.46063689667951 10.20805318754291 0.38180779100969087 0.4953343368756373 -0.3349658909554877
