# total energy = -381168.97537066776 ev
CRYSTAL
PRIMVEC
9.25949085624503 0.00000000000000 0.00000000000000
0.00000000000000 9.25949085624503 0.00000000000000
0.00000000000000 0.00000000000000 13.55220083179267
PRIMCOORD
 96 1
Ni 4.692348884395907 2.441162929928018 6.283003497506207 0.6727527962995381 0.5492033189799509 1.025238184196028
Ni 5.595704819761226 0.8208372040739228 7.834730284787588 1.053211272370186 -0.5835617418551626 0.3658468968050603
Ni 4.230291027378022 2.440588841490209 8.810760260684972 -0.6659655981743756 -0.2077641615952938 -0.1622885457609979
Ni 1.4899076479693736 2.061218238498691 3.6019716030760804 -3.6319560093617387 1.932876680898 0.9833065769592485
Ni 1.8167028614467027 1.2369383556961004 11.73521676413525 0.7550000724362288 0.33046234665817925 -0.6801717144714287
Ni 7.077825235856448 0.8264873454408757 10.31795445227605 -0.2676821781071648 -1.8678820211941702 -0.7025482823944158
Ni 6.44742057419653 7.524956793491297 1.1698598255344872 0.1595955723098671 -1.0663069292118796 1.2122419733155188
Ni 8.957298186333915 2.459820804156812 10.319879500440898 0.5950095786807882 0.6934110959798381 -0.836792777534004
Ni 6.553478783336282 7.757221864039716 6.755677360878092 -1.4626787340786744 1.0457540447611926 -0.23331552770183692
Ni 4.696043421277936 1.76180333970848 1.30637620414729 1.1244976786199987 0.5630034580878368 0.7778340396116088
Ni 0.9632278037342427 1.165529161625402 0.5013430991967942 -0.32007406144531975 -1.2453451836273908 -0.08578100032156194
Ni 5.641307812603315 6.2496748858441125 3.035475947831613 -0.7960073680865258 -0.4815316266645901 -0.2803237781305753
Ni 4.18976223556689 8.753228265674668 3.9554267428459866 0.5505714029720711 0.6308242743865523 0.16075668249750377
Ni 6.079781746216367 4.151492759543266 7.793857039913771 0.9546344058355367 -0.5653277353456393 0.7134628724243905
Ni 2.589342563319277 5.276983882376952 4.762351561793973 -0.24610239505386003 -1.0820333388082009 0.6110470917596251
Ni 3.0016399160664227 1.1477046415805245 5.2189657640926965 -0.2514320347968896 -0.46600910554895875 1.1993833721852956
Ni 5.648854297713224 3.980469962021766 12.63058361072409 -0.15989099206309884 -0.7342538410278128 -1.2779722256337926
Ni 0.4183141699550222 7.4717517585937046 6.4292043776852115 0.5999532958393087 -0.9393877640891112 0.3433273755463055
Ni 5.533305110367756 3.949765490089915 2.2837626954662715 0.00033321496970265197 -0.5178649138779856 0.40137388606707647
Ni 8.171806311047165 4.615726596930265 11.956863050482387 -0.7166476979102755 0.8266281782961764 -1.2932142393945276
Ni 6.164644980611849 7.321840600398086 9.31721922862192 -0.9170207092478206 0.07835154062671022 0.05296523934312169
Ni 7.970847579341204 6.364511092387785 13.511287127472379 -3.779133667623227 3.1116485474805318 -2.573277543229394
Ni 6.6303047796024375 0.3001001011192087 3.1251235611918675 0.42826248292780433 -0.5763413128473235 -0.4483854789299246
Ni 1.5589093743976472 2.417004918085376 8.730070278852725 -0.19220564503540447 0.25140838064780574 0.6887327166675622
P 1.3499967399807515 6.746872510950469 1.7646321141883297 0.8173801773353471 0.16797942549818812 0.054743928510099266
Ni 1.091860651767197 4.382378165942756 2.8500416786229206 -0.4850509526717582 0.5688293207409946 -0.09489710369021721
P 0.6598202124539793 4.4549725748528015 10.143375084287415 -0.08009757678353947 0.5914689125173813 -0.00417778552677345
Ni 7.958050962872623 0.24604319305583502 0.7968856788790738 0.05195402446978794 1.50727837506592 0.9384642238335773
P 2.6287509567275875 0.700985131292167 9.675567083400509 0.08470293676603477 0.16755596480752433 -0.2826935639143325
P 5.644724564757372 0.0411880675655188 0.702105529694988 1.8402362344524439 1.6159823027322429 -1.5879176832855428
P 9.027744393347644 1.0043862409287778 2.7516114381132812 -1.1522401388405898 -1.2932702894434436 -0.669891415591343
Ni 8.254428748637006 1.0807122246845826 8.200558882290466 1.439088091242928 -0.4183148847967893 4.082199110325692
Ni 2.6729094689842214 6.4943476742419515 7.117493820959959 -0.4286538048289521 -2.432058416544186 1.9295859259618706
Ni 7.819066003977241 2.9313788988713427 0.09283935988465393 0.42330256781936776 0.28720533574175694 -0.7201623959317532
Ni 3.5007079583411254 0.7203513565772898 13.212690767680591 -0.38469205453602134 -0.9694527017952919 -0.36714016169518704
Ni 7.365795403854207 2.3287804884814327 6.781196517887797 -1.8587355788082116 0.026002851821664896 -1.8671659689637519
Ni 2.8951002133981847 6.1946920286874985 9.807999100563027 -0.2849137114941029 -0.0043621336234376485 -1.1795231429262587
Ni -0.041682524381309156 5.7930245715307525 8.377468864146786 4.071859161852265 -1.2840731963252079 0.98019039992777
Ni 4.0523791686028146 8.546732358391129 1.735020262186502 -1.401025737153568 -1.0647056461630309 -0.1031328613364482
Ni 7.805093432160244 5.9355929534169745 6.721010752776266 -0.29040250252281596 -1.8179123741442627 -1.5358081070744969
Ni 3.8708931463276985 5.942037559105927 11.811732567455168 -1.502776887651141 -0.9052609976087312 0.5491315852017511
Ni 6.321639649370755 1.5503073073214437 12.411024413633118 -0.865998709673999 -0.5370065198034428 1.0341843376457223
Ni 1.0174976800890616 6.269508715421321 11.656424051995053 0.6459752710953778 -0.9640235603599205 -0.07880585455530945
Ni 3.2315623354089427 3.3057678957412273 2.1432665876507215 -0.5986276350493497 0.9948616287866996 -0.3162148356002296
Ni 4.2059385662258 7.046194814831357 5.412532644187319 0.6529380755664562 -0.49632961090937106 0.23813686034988021
Ni 1.620105349969904 -0.20967654241881895 2.429611714989844 0.39698115631601955 -0.18201430632469945 -0.4947375838319028
Ni 8.286012872207435 7.295432532258871 10.900428285073474 -0.3511137043599437 -0.7029131219330024 -0.8763872519971745
Ni 2.747966902482287 4.401100856608076 8.381318034527387 0.38976998327956097 -0.43474140578392867 -0.7311091247512441
Ni 4.550169401128845 7.901642144112418 12.882938998748546 4.358127330491733 0.037198720537484325 -0.8293808013406491
Ni 4.490927178143325 4.895603969853103 6.3777067929155535 -1.0444180995585886 -1.3298005231589936 -2.5802580883122856
Ni 6.764576657613225 3.053844925943316 10.442634423629963 -0.8641472582875568 -0.03205728554586092 0.40703211279411833
Ni 5.946583969153737 0.62634159703878 5.434147999819923 0.8160542594350719 -0.8641706553263245 0.35342615454320425
Ni 7.09447380055291 8.424479299610601 12.540759141087028 -1.1248236945008498 0.16776396705327234 -1.2252862080939866
Ni 8.43144243679177 9.414402215702964 6.335504811092936 -1.8060014816392898 -0.3376565504137733 -0.6674491246984376
Ni 4.946151530853095 5.736060183314604 0.557823216037178 -1.3440647463874915 0.9916032697504018 -0.2599855807938555
Ni 1.171121894148574 7.873752557424018 8.71131425402005 2.185983275183835 -0.5657758786266515 0.6866295542816303
P 6.1688858274588885 7.430843327654344 4.592054708361574 1.056232318584697 2.2599919654608174 0.8254601261300042
Ni 3.326120256810651 5.775783399414616 2.362636891126674 -0.38211709471999356 0.9083054408620098 0.43286372914524157
P 1.588326777089894 3.059576550830474 0.809544328932763 -0.08316567418590194 2.6806036167115836 0.03961632884004145
Ni 1.072600910627797 4.664616709053357 6.536348725111336 -0.8328854720597979 0.22379910357096938 -1.0353953272346879
P 3.1908113158154334 1.3717935816356301 3.0324814284640738 3.3023300425619255 -3.188040650388025 -1.638268882044585
P 6.693352653361175 4.6805985904026866 0.7820769750308803 3.25534287517911 0.5899295930547195 -0.358028429201906
P 2.437959146065406 8.172991525886513 6.119780895146164 0.10533732518693471 3.220969797015879 -1.611668762958553
Ni 4.998958407640595 2.180360108325931 3.928105688900836 0.5141774377240693 0.2213061619457866 -0.516619985727291
Ni 2.543378450330824 7.701109348989347 13.258186350427865 -3.866955866744534 -0.38719065258815893 1.7208524584747718
Ni 7.984477549993703 5.484803896863824 2.7516392165860784 -0.27501856386757795 -0.6724188099988871 0.1787819154303308
Ni 7.4852983938278115 2.581666445336314 2.2638140482015006 -0.07856082842403889 -0.2624782653087222 1.0515624239128534
Ni 8.39705268746882 7.680247715918642 4.5009302061976015 -2.0823901863815166 -1.307271231708226 -0.05679206928837961
Ni 3.921449966818624 8.277345988694705 8.455841195398653 -0.12812552672604385 -0.050329087271855255 0.23433394166402224
Ni 0.3287443363186 8.419414358070577 12.613710966347066 0.09253014611993741 -0.3608301603167592 0.22702892336217673
Ni 7.55740204971844 5.023560875047992 9.545357344061765 -0.8310324780114592 0.5943367209834797 0.9312031713957898
Ni 5.103229535030395 4.545419282280522 9.98713228619222 -1.7979233326168453 0.2954446929324137 -0.678505125402283
Ni 8.283577626092212 7.6859793408058 8.403976934788073 -2.0424817802223534 2.7661100232155196 0.5052523673202975
Ni 5.963788103306143 6.079929898071285 11.430468398567974 2.9276025554377836 1.0757421064828507 0.5442477747468885
Ni 8.732301816167436 1.2436144486583638 12.206332255183211 -1.0572972695141016 -0.15957140394015099 0.08828499769033828
Ni 3.107549973351258 8.193955013357474 10.96120943545196 -0.41396972045421615 1.0184975230380846 -0.1639250529231564
Ni 1.964113957090572 7.355359957573389 4.0839012535839965 -0.2620288364761294 0.04896383149321244 -0.34854542941213523
Ni 2.562064103032415 5.347031931280588 0.06385900516441638 -0.8505201544224256 -0.9496477512542225 0.4314637634739215
Ni 1.994596201240045 0.5122294826860214 7.559526176938334 0.20793771105868056 -0.4306428102345229 -0.9823375281777599
Ni 0.7793500549512873 3.3850383976135365 12.328030670456888 0.7219518837320082 -0.1331692597975384 1.0177992114194794
Ni 4.410925176487356 2.3434104841546306 11.132848915069557 0.9841799807031373 -1.6374016489482834 -0.838312299502324
Ni 8.686337703178982 7.75215692249969 2.23370125774023 0.5637174534357259 0.14577049350131668 -0.53643290668816
Ni 0.7171336834782794 2.169480206480357 6.265440095105623 -0.002548734563782707 -0.24023539475012173 0.1314756741451994
Ni 0.38430683760758255 0.11389451631584706 10.270237517654094 -0.5924328190925473 -0.19547197449150205 -0.49954297564034605
Ni 0.6762511791135299 9.271898650253268 4.788005907371291 1.698416755179075 1.3544309201131641 -1.1319289380870634
Ni 0.12023263785907748 5.289549011572225 0.693508092364251 4.550160711615331 -3.8357856117893165 1.6352511782641836
Ni 8.806646268863705 3.5169398459456294 7.958353748226112 -0.3068827595660263 0.3476270313629239 1.174144395112849
Ni 6.692343368849543 3.8936437155486154 5.341504941143036 -0.3359035722784086 0.955896560377412 -1.174498178907842
P 4.652921972005731 5.939639350954434 8.089809815044356 0.2884314948393742 1.512982624539549 2.6711550697041737
Ni 3.4699849674274095 2.954110949110394 13.0285713461843 -1.1063881135034817 1.5872178290050407 1.5517507464466824
P 8.857480874082603 4.343923500100482 4.616530320743197 0.025578362689736595 0.30815108475548864 0.08852385317402174
Ni 2.6692797485387194 3.827808735019224 10.888407613945027 -0.37656145500908694 1.0299903541690327 -0.7997732628868612
P 4.168974678423644 4.2575139307192895 3.850248185344811 0.6554212469996261 1.1432711025727602 1.464577493763284
P 5.187620535388324 8.996391757050525 10.935881023955462 1.080849602912745 -0.3617652705365189 -0.13563237662605027
P 2.650964475474425 3.161551324469037 6.341915156665439 0.24059483497206952 0.3453413206525407 0.7544606549929911
Ni 8.339217907105027 2.212407206442981 4.513059213369957 -0.3591936531546008 -0.6302228933571274 0.06307198875982041
