# total energy = -340857.96727934416 ev
CRYSTAL
PRIMVEC
9.39190359187900 0.00000000000000 0.00000000000000

0.00000000000000 9.39190359187900 0.00000000000000

0.00000000000000 0.00000000000000 13.74600025487777

PRIMCOORD
 96 1
Ni 4.448569139786729 3.7038193465222182 12.409573167828315 -0.5751058977783257 -0.12815689418461154 -0.6089902092305964
Ni 2.849973199063216 5.454197844075721 10.641727607643018 2.5050126974147244 -0.2261724888991524 -0.5755900365035957
Ni 7.588282570160211 7.112066089492884 3.6764503997455162 -1.4376415886043885 1.2462728376479828 -0.9734718502570138
Ni 4.724540840169901 7.720774156646237 10.09947571237713 -0.40386837035415607 2.5118243210199194 -2.295973525761749
Ni 7.581050804257166 5.99386602661443 1.4997020115945758 -0.1599840659975374 -0.6138979309448589 0.5993778829518129
Ni 0.41498784241834746 1.5438505336470933 10.914846986851185 0.841765291047931 -1.3530011296451732 -1.8489795278627124
Ni 2.9165805806013814 8.67114089915145 2.3940854941064584 -0.005355864995274647 0.05014113963076526 0.461750844493237
Ni 6.517483445609891 5.377015178892326 7.2713593517678925 -2.5922391719335613 0.3618442034035704 1.397936813815599
Ni 6.839334595910426 1.979597300968685 0.9895882718398904 -0.15768447133008326 0.8167847098431932 -1.9684255245368871
Ni 5.527201112081384 6.044695009818683 13.587825063413343 -1.0472100604814287 1.7093303167677851 0.9536877256515511
Ni 3.884726196943558 4.7455880965188895 1.2532500039514785 1.7315479905154052 1.2963957224463027 0.8660197927199215
Ni 8.246683200161623 1.0161382446078318 12.602731756717862 -0.3222348165420644 0.47722862841386193 0.7572544156880442
Ni 7.915731295107777 5.9995763041067045 5.687930396442854 2.314960351276897 0.10211778980837251 1.1536671010951034
Ni 3.9582084520415006 1.2013090193408367 12.252937814320267 1.2468217681729172 2.0092646700404364 0.1537144309387417
Ni 8.453248731683114 3.4265609553225302 2.3520097652160215 1.1484493043395898 -0.06538649582560997 0.4452996409157492
Ni 5.490197011226847 0.7106524866268473 6.495878310176954 0.02251463616274832 0.06686770835682677 0.646085314310681
Ni 2.573250146378429 5.112820925836968 6.089340363580643 -0.2416579861292612 -0.5293222637853078 -2.5873142238281184
Ni 0.14300300518561984 3.5440442795837983 4.938814307115584 0.38228961574211584 0.7061460270480032 -1.0767854601457003
Ni 6.7167702517094865 3.2536560069133897 12.313818012939374 -0.024797261549337937 -1.0603553396141352 0.20988326482082562
Ni 0.7513438489015591 8.336854868259188 9.035122251384289 -0.6488687905930889 0.1428648898187475 0.14814387882949967
Ni 7.9844518549942345 3.7447116955376116 7.27189562947317 1.222781953614894 -0.8382786180509111 -0.47527099046685894
Ni 7.128868205337748 4.759027910814027 3.7313103880479317 -0.9551596822113871 1.325542262103272 0.5493724975679636
Ni 0.4296410906805931 8.56410137188263 13.363614023088425 -1.4335584196739504 1.0055821005279972 -1.14098719163459
Ni 8.438616145609164 1.5854003159264003 6.028431989250227 0.8805393264923351 1.6447377775983805 0.4150261867431884
P 7.533837704004437 2.7696254623092673 4.3097013898311225 -0.0934436590731423 -0.5705941259509012 -0.15629041919603406
P 6.2465270218399995 2.6350488731862587 7.895303904407621 0.19884269073594787 -0.24032204092665704 0.3806988742162282
P 0.9912684834243768 1.167009786772114 8.385926626268038 -0.8602756911472926 0.30311635054505864 1.9497384896503451
P 0.9967721390337063 5.115948429792439 12.718569619438595 0.42506248793326795 -0.871683161653286 0.42485448568752
P 3.707557324222752 3.375093322661906 6.341978818237163 -1.7644444841331095 -0.05309919381782468 -0.45178473441946065
P 7.097461679130244 0.31401360660431404 5.171698770572269 -2.1143729099357005 -1.30268052701375 -0.42147039970663536
P 8.450788052895325 7.836801735823126 1.0092070196254337 -0.7611267541592569 -0.2308182152012799 -0.19199044370080484
P 0.6111988000332071 1.5184642177562782 0.6906749681172828 0.24735735050688365 0.4848624908100359 -1.040878718946762
Ni 8.824942715292032 9.244666894781684 4.179251603224734 1.756553768531123 -0.7382711897173221 0.6868678955446816
Ni 6.4508666721679555 1.0878829975082895 3.0561348787225886 -0.8247623287320311 1.1152689609328794 2.8715360514615194
Ni 8.59624985848798 0.7685197625164769 2.1360044312151154 0.37255644761475193 0.2815221693140506 -1.078542294935807
Ni 4.531649920537802 8.473544635730487 12.538318323900414 0.7616042080163077 -2.5947444548539185 -0.11507434996904052
Ni 5.343373379587517 2.8959090004031998 5.235728074525519 2.8521795013117783 -0.9384171726457259 -0.3295925424587163
Ni 9.057768009754964 6.7040630059084245 11.836117611476359 1.4354276116722053 0.7862235492268846 -1.0858424281416459
Ni 1.4764072726733812 2.2796310588110758 6.715512675794659 1.0601882179086515 0.9268765189959779 -1.6826610350067153
Ni 4.335190077473032 5.895579753659425 8.327492079390689 2.455804096900558 -0.20087720466747339 1.4786637966530212
Ni 0.291700321627104 6.757906790222906 4.337096633938381 2.177400932831463 -0.7796710928203476 -0.2347347766468667
Ni 2.25925062762977 7.235616583589693 12.07558673866632 -1.2659507756928843 2.4117359029367496 -1.5832812129547957
Ni 5.514860150527358 3.360554655625657 2.6913843295709707 0.0950390285847202 0.1648894737189547 -0.5472521087908511
Ni 5.120822827849167 6.070898421337504 11.286881896566959 0.7066059974035573 -2.023097205048155 1.5928076643879925
Ni 2.478730026835268 6.627838314909588 7.597208635503397 -3.3428331448822943 -1.236384117779361 1.611167912062735
Ni 6.940720197109593 8.116934049576491 12.973365394391127 1.0497814207530307 -0.6306849205952105 0.3075067663032704
Ni 5.152276313575523 6.906590018808735 2.720071899637007 -0.15405715899014114 -0.805976820594412 0.1901230514747629
Ni 8.663035686197778 5.061982550728946 9.783647589964415 -0.8385380423598848 0.4871145200690062 0.37848026929835465
Ni 7.540214806664394 7.528296480780027 9.473344724539704 1.3643209255333666 1.5164464147184336 -0.08578717096914902
Ni 6.446302206935645 0.06079285391404281 10.795394180369309 -0.7699944889625319 0.14251393423723197 -1.4835928585235225
Ni 7.519712280734076 0.23093000828210963 7.79020192688659 2.025202424316616 2.4505929850132637 1.4956778147125145
Ni 3.002338053926958 3.8303282903066354 3.6029503000304106 -2.145393526686931 3.7522389001149117 -0.5885414544579413
Ni 3.827792476288685 1.9977894185715368 3.8174294496686607 0.9939802546230108 -4.227166905420055 -1.0538411926447013
Ni 1.2659065334721822 6.593877190876591 0.5463336166444113 0.36461508128048814 -0.7334675976810917 0.9084229402764806
Ni 3.265959400852334 5.6013877599620905 12.998987447066574 -0.3564297172562184 -0.8875054733975232 0.5538619007978848
Ni 2.5486809261156202 7.990565984348627 5.093621996149952 -1.2036853419947593 -0.9068782214971802 -0.31232758473068145
P 4.350217123505331 7.953214383054593 0.9680967784425716 0.8719693254351369 -0.7779646516522021 -0.4067945428620155
P 3.5483457715105438 2.8262116825246433 10.53229596248393 -0.34572415791325617 0.8049959447383814 0.19327753794334457
P 3.6652374058342905 2.69891381882353 1.5965287827036947 0.21422894338403103 -1.7155945525099423 0.4475676110143195
P 5.96915592779507 6.699151040236616 5.231438792073674 0.1192693618869946 0.36151330242671287 -0.8277175547056131
P 1.173790741294189 6.414529396481102 9.972736666950343 -1.044267432913337 -0.1465762772320637 -0.3578479377599837
P 0.5244899268557106 5.003170449320036 6.540484217943079 -1.2488094880269074 -0.10234173289372052 0.85465603096767
P 8.354474079732059 8.699156948097917 11.252160028328579 1.2545242790234976 0.1646750437153035 -0.6081494584968559
P 6.0903772297568715 0.7579407221097384 12.723833781501785 -1.0257431488569044 1.8102556289299534 2.087543962668314
Ni 3.3241140689973316 0.5498433710833301 10.064052268927115 -0.7006677775422514 0.5720917935423502 -0.553782196599885
Ni 6.56970243057213 7.869109884792569 7.226080044501445 -1.1284679761216565 -2.625549356049917 -1.2552770980291221
Ni 4.721807796172777 0.7409141397647666 1.0557091527627602 -0.30325956099114226 0.4644242775603421 -0.18694619640867804
Ni 2.708108492614543 6.266043397874447 3.450713175057943 -0.3597875779848578 -0.065506566343242 -0.35596177648086436
Ni 2.0223774226418865 2.4864407798305916 12.58303411694065 -0.945977501491487 0.4522164226402406 0.1123276404618388
Ni 3.26926535097944 0.8949432399765859 5.765058588584383 0.3902281538629021 0.688814220637775 2.1636272760861384
Ni 4.3101324782141734 7.375640476899409 6.3825837749971885 1.2080996690123709 0.21026713052280563 -0.26228826078510314
Ni 2.5808106289134294 8.638109573591702 7.492532111223155 2.7356067124203403 3.355776849527156 1.3912720002009136
Ni 2.7021634175280145 4.247695101949971 8.331643300857111 1.8356293318080517 0.9817634008418445 0.7037268760835493
Ni 4.6454516185211565 5.060310791857853 4.940367727999173 0.3306130133034306 0.9453354970321138 -0.646495405264906
Ni 2.55871147934218 9.139872032513937 13.698810129456017 0.5853239759619081 0.1365461466895713 2.274028388949225
Ni 4.647790202559933 8.987864069993464 4.077833130362371 0.9029166657462708 -0.17156148642249164 0.6891150397076454
Ni 3.9593730481090033 2.3434396530257255 8.114099573018649 1.1077693101217245 -1.4024169610741395 1.3412167354157354
Ni 5.857824300503274 4.003308373945938 10.043694378314859 -0.9764304186647055 -2.5702081602754507 -0.07218809212847567
Ni 7.615171590654255 5.38122275178137 12.801704873231536 -0.05001875512028805 -0.682283875718425 0.017877394501053082
Ni 0.6030964046506668 8.175492569583607 2.3230873975557307 0.8648103457928527 -0.01959823384690173 1.1220911260610351
Ni 7.818224550165697 2.073751136264809 9.391610742789274 0.11567418833656853 0.8839612076896906 0.2577402364031045
Ni 0.7147511134321569 9.320656788186266 6.6651608013019334 -1.5765042992422784 -0.020397846930061643 -2.040780481260531
Ni 1.240332379505963 3.956377030806314 10.425433942196367 0.4257422876091119 -1.118927640731389 2.9895538003296
Ni 1.859850527898802 3.7408891907031454 1.0529695344329966 -2.2565176337589716 0.16068469160898777 -0.14588413626104554
Ni 6.646669081968812 8.674475024989867 1.8018395558814886 -0.5748708989493841 -1.2480890649211152 -0.8868783813364856
Ni 8.774752381544152 3.330725969251543 13.734935148117666 1.152202600734435 0.12197801906740928 -0.9448482729830502
Ni 0.7108778923173318 3.5934081257999004 8.403328884763816 -3.5322365445822137 -1.1278874210278382 -1.3788072920749996
Ni 1.5627282602251693 1.7489791038917455 2.7106424282517394 -0.287873308343059 0.4362745545990035 -0.8637752196601188
P 1.0091694520103531 4.775407390989233 2.9808615875756717 0.02381330036951383 0.2697364895330322 0.3677163459136312
P 2.026481684589458 0.2524346503447066 11.750410854431141 -0.6158581399950231 -0.3095983587249765 -0.07718246001927354
P 8.687914839285003 3.2579668907439054 11.375117893297487 -0.8519728277085521 0.4673296241325952 -0.3190026827580119
P 2.0563855061937333 0.41999278793748007 4.221836373299515 -1.1422146362837875 -0.4367255260934931 -0.952832062519475
P 8.925736626553677 7.657115832891911 7.247262544264724 -1.350673252842945 -0.5131417973707034 0.13623221499357827
P 6.466936219518745 5.821073781050533 9.524548444704385 -0.7780350998788214 0.7642552724859095 -1.1643765170928075
P 4.514894764211789 0.2092722781880586 8.41473816946384 0.6709591947342252 -2.41798265517741 -0.8260753911164999
P 6.390401595695493 4.34360522325112 0.70832047692071 0.14799835439057094 -2.089980082913633 0.3919682764824604
