# total energy = -340865.2872232381 ev
CRYSTAL
PRIMVEC
9.32727756508493 0.00000000000000 0.00000000000000
0.00000000000000 9.32727756508493 0.00000000000000
0.00000000000000 0.00000000000000 13.65141353216499
PRIMCOORD
 96 1
Ni 4.163202318883656 8.024116902098202 5.45439506149752 0.5256622984352173 0.17241175023792887 -0.3136874411926856
Ni 3.703740630492766 1.5845365519127346 2.527463677274986 0.03396555831216731 -0.4149161435278854 -0.9570149902525711
Ni 4.157204879467591 5.239542157601553 7.306714018790423 0.11173834361727207 -0.17017489048761014 -0.12933214543963534
Ni 6.866051458149265 0.8208824977924527 11.946925433177634 -1.0343805128169283 0.28873359946082533 0.5995784289983932
Ni 3.457519159722511 1.3101187213372494 9.790248084616293 0.5232729722674343 -1.0883610807984418 -2.255150578208116
Ni 3.486918738321944 4.853150360945421 0.4601034050811321 -0.9573222370803449 -2.432741815764455 0.44324841481367533
Ni 6.004145728568734 5.945421189589661 9.041740596386756 -0.11337819321354022 0.3606699805898111 -0.9961844613631811
Ni 4.405898078768573 7.158209770481135 10.549689007501371 0.1058893410356628 -0.5290255584804954 0.664232674643669
Ni 5.310867848448592 7.860852237185613 0.6785473108047583 0.40199943546621736 1.246663388218182 0.05678872685426994
Ni 7.109502727509612 0.49645367085451786 3.329129185286851 2.1993463267543025 -0.4939968490111362 -0.811389506969551
Ni 7.010279149736523 8.957394958913145 6.882892790357114 0.5128296654469232 -4.480429051447148 -1.094519901310986
Ni 8.447920408704311 2.7242552410694483 11.669501421072138 0.8475340752109081 0.1324542360083848 -0.25788550373171715
Ni 7.282467760995618 2.3042759182278596 9.157258927907689 0.32818074971285416 0.13305356015528053 0.7435396372051131
Ni 4.474714731974987 4.6355729592991715 12.134809446984006 0.2542977863804588 1.4139900106237195 -0.7323334840766484
Ni 7.377251554690872 7.738618265883082 13.16229673720178 -0.24889229909417138 -0.47760349525477747 0.6325926791408848
Ni 3.4627704169406206 7.003293018908169 12.97431665243742 1.8131535193030386 1.6716137760536178 -0.22969721422295927
Ni 2.0415451663278477 1.0132594611582626 11.490476455410986 -0.015162052452419049 0.370725050832968 2.2787759309365403
Ni 0.2762478424159701 6.565713123472314 6.137347645453456 -1.0274305638616563 -0.6343302306572817 -0.9570327308643841
Ni 2.002379928212676 5.820426344154697 11.928100189050973 -0.6393708784049826 -1.1762845813843033 -1.3015047615380941
Ni 1.429908945941476 4.76539000718842 9.74667197698346 -0.605680428131073 0.5622604092742252 -0.04102786447558741
Ni 2.2425106867921216 8.701183973967767 10.042184378295138 -0.028388064224389824 -2.0757991634275603 0.1273364551658452
Ni 3.6324802305880475 6.6405925070371135 1.6275082519652249 -0.9864777755983785 1.0561433584153166 1.2631215337742052
Ni 3.421226723069467 3.919359303869384 5.004567518009979 -0.40763426515449147 0.6518073043961227 -0.19824748035411016
Ni 2.0118750966816554 2.0725117275429867 7.751381712379105 -2.188304467117844 -3.714023565387455 -1.2031222704024376
P -0.12061848684395697 5.1236320804266935 11.87182872404768 0.9832998920910291 -1.0286299834863963 -0.47672957729025633
P 3.9480033729933877 5.437952004037831 9.456538616591292 -1.1764326769263933 -1.9440378397211426 0.7668957954325503
P 1.4518653571163067 7.289500528211345 1.9652713547806184 0.7301007380913878 -0.5831884176761439 0.8987594490447877
P 8.237674247152968 9.391728961787896 0.36545485690925716 0.295939116070329 0.4797506235047672 -0.34308980561420266
P 3.0336690167290303 8.85741587166463 8.017174609473978 1.880360613277155 0.4314161980654377 0.0811275607099506
P 0.5316091123834279 2.6790832362607375 1.7639541959555582 -0.43153112637674707 -0.3307989040619916 -1.783056442807342
P 6.625827426795076 3.0665849789363273 4.150057386738928 0.044073336170130546 0.013770057200898864 -0.8846068116934895
P 8.097839703256172 8.600663904625732 9.30129541030672 0.40208042521579784 1.8642107429901702 -0.9407000551426316
Ni 9.000645544562122 0.21791411636307795 11.256845876503478 0.7169220346175846 -0.8517213738193783 -0.8276257663227552
Ni 5.726612587316785 8.896273309623144 8.993086718896835 -0.04539154076092183 -1.2263424172726427 -0.4175420111865067
Ni 2.8977146202615995 6.475816823173665 3.8003348487458086 -0.33289898112412986 -1.4451474100631305 1.0886595858754669
Ni 7.8533344515412145 4.564900177875343 9.886626842759679 1.3596538590750002 0.5502536146213363 0.18498881557199107
Ni 2.4983765624709466 6.860119309675522 6.765531388807231 1.3877724716880873 0.06698752176414269 -0.15415228980710874
Ni 5.488244684180009 3.80825277459386 10.150412509742049 0.06924083657469364 0.22462956989206476 -1.0667794979729242
Ni 7.631578429586415 1.7420649411785434 5.459801151521705 0.5722409175257048 -1.3531317416857664 -0.21337482291385185
Ni 0.9665484555662696 8.501999963501111 8.057583173676491 -2.112268461998188 -1.0523710358570777 -0.15047561228646986
Ni 1.862508075205981 3.2700315552088024 12.2005686186343 0.21431996043594057 0.5188864131639644 -0.20186502250203944
Ni 8.404539241170692 3.955502504082837 0.5807965101448846 -1.1523452969598864 -0.027788225856861824 -0.9239182076986023
Ni 5.628965319436878 3.3433253016029476 6.003263368119651 0.6903070031332177 1.03596765479839 0.409686776808146
Ni 7.156782697027545 4.29578024090534 2.460257844888407 -1.701588210928521 -0.2008376096787896 -0.12231020559584742
Ni 8.754181564577532 0.9071010525829294 7.606253938515564 0.3014487330346486 0.3982561663737012 0.4380745839222197
Ni 0.7826807674403908 1.9376019861526936 5.711642306970309 0.5151243750183709 0.2260084525174624 -0.20471354769442807
Ni 3.0791861308042954 3.2587642040196796 9.058313303003338 2.321814655194569 4.883610680146925 2.3218555357348336
Ni 7.092387173344014 4.709295760457141 12.032588082230633 -1.1866026754808594 0.07239198060916564 0.9059688223090334
Ni 2.5486226062257518 8.758751930540006 3.3931133760337584 1.007860869259845 0.793350132969337 -0.6430488414772022
Ni 6.179619799695364 1.4554283771115426 7.279097815644103 -0.8531797035324598 2.249921725709009 1.413142832132076
Ni 8.860549836896041 3.06104457611651 3.5744179283096615 -0.8069774939447844 0.48405156487296636 1.6123441917590233
Ni 5.406985442822691 1.068206452760186 4.510140664550656 -2.0100012910961444 0.870817471218881 1.072729802019088
Ni 2.153575096073341 9.115259130168035 6.073240334643886 -1.5437469023055992 0.7485144647118851 -2.0539967228404885
Ni 5.430452872948381 5.76080638653808 4.537061052797383 -0.43461336484649665 -0.5130438383402584 -0.015892245750224243
Ni 8.18349209230395 6.6476998924726365 8.524488962219731 0.28467099935567747 -0.30345907859645804 -1.1231177675533366
Ni 8.554102135473329 3.8152389054222153 5.971701726601643 0.6536081050502872 0.269302230209091 -0.2513947538010509
P 0.8439553840809737 1.7817058704449114 9.831352463718401 -0.44163453335933617 0.6268881725569396 0.11977175544470986
P 5.301242098094971 6.998004452580161 6.920897715154465 1.7399231019529775 0.5837597167985817 -0.12050400562504408
P 1.00356841986232 6.313335649568929 8.139682802734255 -0.16985735924719134 -1.6032720542544259 1.9221472102956378
P 6.635770304582828 2.849184795562091 13.267753734511034 -0.36174341615964795 0.05564689994034287 -1.5608205699584345
P 5.564150068266998 0.6627860773284503 1.9508280656114487 -0.2262848461073006 -0.9159873828873 -0.3338443757565347
P 9.14754083750707 8.751915036151242 5.761224248568935 0.45616975086103373 1.6773007991360662 1.1396088232298245
P 5.580873876778667 1.4037552599031475 9.969409228528571 0.11399731485477786 0.8393476827453739 1.1398373943008628
P 2.777280813511637 1.3390239542305373 4.426893780363535 -0.44894855052224614 0.06704768557811679 1.2387644450860795
Ni 0.5590471645299866 1.2581937676370445 13.304353971320737 -0.2750843841085069 1.0674459279123292 1.3930239498950137
Ni -0.0686114531019771 3.2014947203266204 8.297916334177131 0.1961044658691784 -0.6718153720869333 0.9554581872884125
Ni 0.24558908135748744 7.548612296451275 0.24223032873894176 1.9166481348542794 1.5605804289231704 -1.2742816641560828
Ni 0.3687511167687241 0.9259029785159045 3.600628510740584 0.4469042663987078 -0.8239277486458778 -0.3806952746718025
Ni 4.452553120695719 9.255513401551182 11.279344202499573 0.6164096416231191 -0.10747648301712459 1.5412878992421457
Ni 2.569851489757576 -0.022103782158926773 0.39421085336295414 -0.10786034871910456 -0.9053299031734536 -0.1622036993566755
Ni 0.3496050142969421 6.945986226105212 10.433666070269071 -0.30255070784957566 0.1695812227676692 0.11717365570023047
Ni 7.173263996324881 7.585837460851764 10.891917078043779 -0.6670426332886383 -0.30070105623534665 -0.88356011559653
Ni 7.2790726319949215 5.68983513223507 6.240825394482635 -1.8322429318343219 1.2939837705707005 1.076406736650043
Ni 8.311406375588414 6.409518534885349 1.5684106218871758 -0.6485186063425218 -1.0955331730668487 0.9125994402516734
Ni 2.0256701400663517 3.1933520070914345 3.2138020629541435 1.2585292864178326 -0.9557705763225088 0.6085119840425972
Ni 4.033599798376319 1.0936139566005592 6.636716090518736 -0.3909845724129524 -0.19928080671463097 -0.3739731254566204
Ni 6.186447366806653 5.504194328661301 0.6156600078888448 -0.6287717627328977 0.06560272560147412 -0.18865315179745573
Ni 0.9785992980632454 4.872597734479628 13.89468202631675 1.689361329845026 1.4585801385292687 -1.2953335997303757
Ni 0.5519547027384227 7.817601651536636 3.943702565349924 0.1414914065099886 -1.347540363640918 -0.43306041853708
Ni 1.4439091894306098 4.292814166668467 7.091540256549336 1.6051240198615002 1.6662561112861305 -1.5390983477899947
Ni 0.8297732586810885 4.946964117783334 2.4950821680669746 -0.6434612464242725 1.9422311255297064 0.7919175142878684
Ni 4.793147984952353 0.9498153197771252 13.554624413242642 -0.2567369919495708 0.2833962464083119 0.4521832554094599
Ni 4.4317812737601425 2.396597310669862 11.659549216006909 -0.45738819664916713 -0.6062311584282205 0.8910875343218266
Ni 5.354575470693815 2.9626511260386477 1.4153789130917942 -0.24763425831735417 0.8949030514131749 -0.0444731427117105
Ni 8.163988755104898 5.504725983477344 4.046551655877326 1.4068189467965773 0.5606588691150602 1.0529657320182833
Ni 7.626784208964553 1.9173431394782108 1.331424088544364 0.14479193163813128 -1.2857282154301275 1.054548760234687
Ni 4.996277433790696 7.913635300413466 3.269390771246308 0.2861534974384749 1.2360588732294584 -0.5539225788324912
Ni 7.62566493566762 7.857186617138158 4.591148069416163 -1.7463894264036115 -0.2415397153838421 0.41151020317013004
P 7.339130971652838 4.1745349610151 7.840743559678469 -0.7686477451266505 -0.12094906358226266 -0.3074291189877996
P 3.7203898207846398 3.1980995913259247 7.030013803416942 -0.22465193848956794 -0.9066409086753934 -0.15477038300708185
P 1.1126789117583136 4.552261716897478 4.825637690579067 -0.30221929265208597 0.2961872275253931 0.022898244754412177
P 6.698533554708331 6.702199174755786 2.958192687405866 -0.17638898971812203 -0.5589933084871792 -0.9824691686596176
P 4.072391945392513 4.478445642964763 2.6986798462345347 -0.33771440023490223 0.19906791937287652 0.1328699833895647
P 2.793706149144125 2.259309113523587 13.941096424485055 0.48337999272723847 -0.5887628264401279 -0.4241777713354695
P 5.817059196986425 6.537339545395068 12.246464420175027 -1.8733636131340317 -0.044991219998709614 0.6230515724196689
P 1.480500098962836 7.976687696140677 12.120530317898387 0.9856043718544896 1.0415076107800127 -0.3112819170749865
