# total energy = -340859.3936558679 ev
CRYSTAL
PRIMVEC
9.42102670638426 0.00000000000000 0.00000000000000
0.00000000000000 9.42102670638426 0.00000000000000
0.00000000000000 0.00000000000000 13.78862487676731
PRIMCOORD
 96 1
Ni 3.9313472569360455 3.1930590935574994 1.9054365270742284 0.4603645056686717 -0.6364436774558587 0.9122813947906225
Ni 2.0147524660649463 6.3006223715488066 10.636213628637481 -1.0557193835040204 -0.07895523564898015 -0.8055003951786257
Ni 6.658103222420344 2.5220276384243596 4.867894328471025 -0.015232500679038282 0.49974634990040384 -1.062794030962615
Ni 4.539841938104624 0.8307687279982676 9.788847878238887 -1.4760371576634517 -1.2684002656746414 -2.9691950341675897
Ni 1.7171705017355416 1.797192700900197 1.3489035176142266 0.529148714321921 0.16301179708026764 -0.4608208764797999
Ni 6.55813671013683 0.18256818850624196 0.3221604803878774 -2.5708146835111982 -0.9156523681453843 1.0767795466084293
Ni 2.691964114587775 4.94371192350486 12.654551737391627 2.2126659266813444 0.8246461148691411 0.7187883984023621
Ni 5.6246071933925785 1.4044583688332108 7.597394638977299 0.26670130225113425 -0.6765680562805703 -1.4136537103302234
Ni 3.0900024845791427 0.009466247435913054 5.528934784991719 0.8592117686591525 -0.5157375831223376 0.1580343984703343
Ni 3.8493278001515514 4.978456669268841 10.642928936332863 0.8821964024797838 -1.9657307513135434 -1.209171304809995
Ni 2.3234795047541095 8.787754527785046 10.247430475088231 -0.4564967951831493 -0.12451209834317264 1.70157766940556
Ni 9.101540657709366 3.3770611622983613 5.48308830158992 -1.0322187292789193 0.8488147416955445 0.8454411972376213
Ni 4.88924896925823 7.009903194307152 10.710879032129306 -0.8284114954488442 2.3346380322114824 -0.28103494526498696
Ni 8.65995830319492 2.375059624889085 10.830757826041546 0.36140068810824855 -1.4239126690540702 1.8169183856621096
Ni 7.025862413212841 4.642540548075651 3.750671752655395 0.08843129346021544 0.22125705387540603 0.4756957367091033
Ni 1.7526124034611639 4.433459706768707 9.038774010697994 1.655807919369613 -3.4712389218529185 3.3090444784676234
Ni 7.831077548908989 4.2764771420547145 12.889178634179487 0.07126300921104502 -0.677829182381181 0.05325114601465667
Ni 5.6120395440300115 7.706917840551208 2.3944631710863447 0.23302139350018578 0.2611814008741695 0.38549732404613607
Ni 6.1235918624243615 1.1721546971823908 2.5242557111936605 -0.08607462030258078 0.6445598788050899 0.5649767797641237
Ni 5.16041437525732 7.438399743001054 13.684616628564935 -1.157750784246174 0.5587619092026634 -0.3524496495625478
Ni 5.513156449794995 8.021156179747944 6.808822688711371 -0.38922593785063286 0.031778835073493654 0.1666697055478291
Ni 9.204342898971989 0.37595077334178784 2.3480231630144996 -0.7366290261282088 -0.30416973151023746 -2.1341359514952405
Ni 7.661272967116695 6.956071448836604 7.640855718467102 -0.46345908543359543 -2.0475424825747126 -0.21988665589044065
Ni 7.682244172124998 8.430160624595405 5.662257383731833 0.8125375045310651 1.3449700318105804 1.3504007159078484
P 7.56032666807628 1.3435891165606848 6.216974019280963 1.0447238037244653 -2.624299542803216 1.4933103429216024
P 1.2379417252924434 8.076090185320007 1.89243362628696 0.8028521589225012 -0.0948161139406367 0.5120285097018665
P 7.796634275993286 8.23547511179371 3.5730599661953653 -0.7578241721485852 0.0807326392643771 -1.5945372454845892
P 5.650665752715564 8.41509640320804 8.85832272684825 1.7922283391145972 0.11119455529866012 1.9320143328977049
P 1.2310549549146048 5.223393937467789 2.8754386058441512 0.5739116203599083 0.29083727606738946 -0.14809554209006753
P 4.224501338806374 7.5235846646924625 4.845818979155906 -2.594185497026655 0.8100731021509726 -0.16916676093806993
P 5.516595124470661 3.298734747905267 13.239368552635963 -0.43259042087919697 2.220461511466363 1.2590231953351154
P 8.913610020914389 5.931016659560608 11.589876821133416 -1.2700593985446191 -1.6201500609566872 -1.355226419431266
Ni 1.630167321927961 3.0098107069373317 7.226534988360798 0.2561739203572491 -1.5064327392361734 0.9421542710906547
Ni 8.76256270290086 8.811552040745951 7.925204908962427 0.2692343530856331 1.2672401839282692 -0.268504416898144
Ni 5.4661172644372 4.004143528768549 6.519386143901363 -1.1692695835190507 0.46882729172404425 -1.3993514347749383
Ni 3.4085839169963763 4.843076518339231 4.167018945563715 0.7175041323732998 -0.36715995918952893 -0.7500524986229663
Ni 9.002422037811634 9.269828454233764 11.93576415678338 1.9853446688897292 0.6644069954380042 -0.8513891872909402
Ni 1.6365830409803666 6.34469393355637 8.3472056598786 -1.213010476050427 3.8208755274467032 -0.54864950335901
Ni 3.3108313459424012 6.2499560909851715 1.7796290811800808 -1.0717751514153024 0.9085458390075902 1.3758163277674758
Ni 4.593598315363104 3.325669462693559 8.648997880954731 -1.154192120360638 0.6838998140552932 0.42926007095438334
Ni 8.771399625765993 4.308301369601007 9.972801899744555 -0.32277757641941185 2.326643186931464 -0.5716539346739833
Ni 2.8254789022686664 0.15780878873880255 2.3522428407877336 1.6584579553979502 -1.8097360089810575 -0.5646595056340211
Ni 7.2217255543281205 8.900505373040826 10.633208321181215 -2.456017241352628 0.13234882077877205 -1.9192233517806234
Ni 6.017774892678964 6.604214950790743 4.967807140903437 1.2916268403027498 -0.7722722292531151 -1.2543201334324916
Ni 9.025268027095162 8.331390582678495 0.5436290294510745 -0.10356634932944098 -1.8370310972515844 0.06394487828307698
Ni 7.410833819436682 7.958836089393082 12.741971326570892 -1.3017438741320937 -1.8629694143839015 -0.5521120079863137
Ni 6.47268799970318 2.1007947011686423 9.695705957558255 2.5605366986239577 0.2661780827578125 -0.11948482033191034
Ni 4.843858463539451 2.5435546839966734 11.157217120825331 -2.3095772325881123 2.653165832215605 0.2870400138084863
Ni 0.4874750009461385 8.524832519981045 4.281464633488405 -0.06303265088145274 0.17781080976631314 0.7016504531704948
Ni 0.7692286986383242 3.977661023252674 12.324920382982373 -1.032718294623157 -0.03509118727617828 -0.5123365278605886
Ni 5.64473992704161 5.994702798759227 8.538357345636893 -1.1218103615958228 -0.45061822491518516 -0.37791616926476845
Ni 6.802763084460993 3.6593810636837185 1.433851029437615 -1.0454372848517222 0.3171628013357957 -0.8209480971922636
Ni 9.188977204736346 3.0702654340434763 1.1457145862858045 -0.6211191312836464 -0.1822765588471506 -0.3071146730711743
Ni 7.1655008681243695 6.523768805433198 10.430749519407215 0.46324825497436994 -0.7562768822661233 -0.35270496010646357
Ni 3.6552169699668857 8.114396079104266 8.562819040966659 -1.2940141095880036 -0.11868932101380851 -0.6288905476989491
Ni 1.450244557665354 3.0594218325319953 3.5088189285353857 0.16426983785708485 1.3102226010270661 -0.34497108179731556
P 8.403084594409483 0.8928975715150032 13.756607402630946 1.2608491928002608 1.561985536800813 0.36040207164040505
P 1.8237128905221072 0.9856089512841878 4.010835283897658 0.6917121110108604 0.2014384764875821 0.5834347293589952
P 4.1367444768781 0.17099163113238647 0.1948268281993252 1.8537687217212395 -2.121433159216592 1.954206552724028
P 0.05598445002777998 4.386590099888066 7.823720669308368 -1.023027292587638 -0.20632485804560596 -0.8893080738239008
P 5.301852246232005 5.535437177488004 2.740571900859265 -0.6045100619720557 -0.07452599623303294 -0.22776143065282708
P 3.15703308818834 7.206887437576962 12.126557843534345 0.5529242194749638 0.7577205566911854 0.8856887319037586
P 4.769375827961895 2.561671317972849 3.957017669966873 -1.4910989370925805 0.12251795073127932 -0.5057480760097934
P 2.739587403589109 2.910249298793692 11.406735834215445 -1.5516826122129082 2.3814832746997956 -0.11914954847967867
Ni 1.0278528341490705 1.012063193720537 6.13468323693302 -0.7958975819815389 0.11984914564986456 -0.631491475656906
Ni 9.336708321418822 5.647914812975031 0.7483375723553451 1.0714123687592452 -1.490136573179311 -0.47427340244027993
Ni 5.635347163612464 9.155372403179914 4.767899553107986 -0.17644606820830255 1.2567631956563454 -1.329925478772632
Ni 2.8555037137518022 6.9642960049786735 6.545018872826157 1.0766432781408812 0.26572274038794885 -1.0854917296704467
Ni 1.9544578964094492 4.148643233358551 0.9752571273564598 -0.330157928043883 0.42343215141869656 0.5009545112758921
Ni 2.108209049030967 6.945322057590209 4.132960992632217 0.6964213435610715 -0.8153158386071507 -0.5888669561181601
Ni 5.094580242014724 0.05697083150323788 11.73580192703418 -0.5111777316657972 -1.7713080440221622 1.9489956979470497
Ni 0.7972449472698113 1.6959072449054704 12.930916607920853 -0.7210921068348742 1.5102701107043923 -0.4527782086809815
Ni 3.082135927444402 1.3289394203397007 12.731740091782473 0.2900782864141778 0.6532630630060426 -0.706593398998067
Ni 6.399552570916365 1.7629190064616502 12.356054991388232 4.57009781685889 -1.3907564940170758 0.5938865208199384
Ni 7.216110622528952 3.9636236937547533 7.993169136298634 1.0779218877429888 0.39137409454188726 -0.6173606926824786
Ni 5.827046211010911 5.411663731217079 12.084199024146056 -0.9149831099925017 -1.3743400003322654 -0.06339671908909082
Ni 8.827002524220172 2.0702799963070557 7.786712050874352 0.06917218812028733 -0.3056494013795575 1.220244531905021
Ni 1.4140489738190385 0.293401854867507 8.222943262331874 1.3521040717522004 -0.5942557312338992 0.4819077790570862
Ni 9.211031827793144 1.4417562127810413 4.197050351765407 -2.4186747961484283 1.2112752385268752 1.6901501442949085
Ni 7.945006022478353 6.424160292157014 2.1630488443379434 -2.1451014493678087 1.0051097888772689 0.8466377886488838
Ni 0.9467754800154442 6.608002203447229 12.714518455324622 1.4015250453874895 2.069558067613855 1.5828682937870933
Ni 1.6113441109636355 9.001348040789646 13.270241256504878 1.3999247907799053 -1.1674970649996603 0.5219323990791398
Ni 9.318233688435317 7.4751700094644 10.082655779348919 0.6746957789585218 0.7269184837086642 -0.533943564607403
Ni 3.0578485211050475 2.7249659704476508 5.52217896688235 1.3520467361517037 -0.482515330734098 -1.1331805511059774
Ni 1.504782880124053 4.909306334695192 5.906233707226898 0.00014732421114168175 1.1105371026748487 -0.5028314165836307
Ni 8.624751927132014 6.380710517899022 4.630468444707439 1.4120200313815423 -0.5836535302380206 0.23279256531883133
Ni 4.707489104826432 5.035199511930569 0.5876337021704279 1.1297010771978093 -0.6164921740345962 -1.0102630509434343
Ni 2.0927303024772197 1.9129017484796995 9.668211633795348 0.20705813666720466 0.515828343063931 -0.04027247436680161
P 3.3046888366587472 4.933810424644246 7.467533325376471 0.5043290841750798 -0.5089326443853622 -0.38075800958893785
P 3.390891229213091 1.3265370585799894 7.426622517762565 -0.7381074104459482 0.05333187865392105 0.6384190560146747
P 8.711811633098646 0.6389311915101439 9.736795764675827 1.3505251573008548 -0.35348091904053963 -1.204230672975268
P 7.308229419730742 5.261737515358081 6.018583216753408 0.05563250176263967 -1.1569928230342268 0.615381971689553
P 0.6180353547139107 7.284017381603456 6.6690617604552305 -1.1502321072716255 0.8804765915751998 -1.385013935106344
P 6.950682621673644 6.087075963676751 13.783964179406826 0.767105340340195 0.3205998520418027 1.8775941062756114
P 7.9571779887275556 2.7673794317896894 2.9949999111630494 0.17428119934649985 -0.43608943517139087 -0.0776426874851437
P 6.339220317154833 4.397490227558599 9.884223524304725 -0.8299796112669126 -0.1892357637738031 1.2131364601053303
