# total energy = -381164.1918380959 ev
CRYSTAL
PRIMVEC
9.30388554819706 0.00000000000000 0.00000000000000

0.00000000000000 9.30388554819706 0.00000000000000

0.00000000000000 0.00000000000000 13.61717695094594

PRIMCOORD
 96 1
Ni 4.960143381091103 4.223768737604915 7.204208054390361 -1.2798661002223959 3.155548591297591 -2.0381970368040703
Ni 8.377376872956688 5.658418612532919 12.82128019876084 1.0446189027154849 -0.02990064421417431 1.6245240216546666
Ni 7.415085276293102 1.660176064904948 10.632782052566299 -1.3023689093106021 0.3502207602320291 -0.4905824240129486
Ni 8.09903252371823 1.2324113109210386 8.022886731778119 -0.1384060827164455 -0.4742500054015122 0.4067289797314027
Ni 9.006105558603222 4.884949376660671 10.673429798910782 0.1246823053724498 -0.545276730232035 -0.5418779889631312
Ni 1.0851121921209157 8.31846466854522 10.22870592202712 -0.0005859544104570554 0.08096506699015735 -0.25523341082085077
Ni 0.5954328698020406 3.1012828365261864 7.047325002904791 -0.8582434912086122 -0.8308370741712015 -0.23690607326657265
Ni 3.9863149661283646 1.3938616399090715 6.640416769550886 -0.10766520198916296 0.9636736332196693 -0.030787674804817946
Ni 1.9436096396350482 2.9491270893775496 3.0195407573224142 0.3459419303510171 3.4756378222515623 -2.9673494963184184
Ni 5.612829572479823 5.968489212094042 4.833689618258115 -0.8610372519036655 -1.676150744692023 -1.5763042674163303
Ni 7.71831751984626 3.4117628070592145 12.042296549819314 0.5827718989640157 0.37252405171491976 1.0600005273778776
Ni 8.31314284591045 2.5529490274304276 2.3603874349661615 -0.15501386647645563 -2.442387052163703 0.38420097383221574
Ni 5.248154467597963 7.509854656289188 3.1339664566899654 -0.0792578544910635 1.1416361380724982 0.478522407524621
Ni 1.4482614597438566 6.625148162687389 6.823308833581034 -0.37720165969624714 1.63688717120571 -0.6940235327528563
Ni 3.09660298200645 6.533495584409217 3.9011304492062977 0.3441231319747235 -0.3417975691653404 1.3696896460444477
Ni 9.152492896602283 0.5795985866864565 5.696977636532113 0.2099398290903739 0.3050001978313328 1.1445453412994933
Ni 3.585959459490663 2.346607449818684 1.0594232332452829 -0.7944958165380058 2.0225117648583297 0.15604744994729255
Ni 5.741120852743523 6.959418169019553 9.168281590677815 -0.8690562655534001 -1.381185562499189 -0.4060738626459071
Ni 1.245678651965062 1.0206455679315491 3.076992251675039 0.07985280776258505 -1.3324940108307568 2.461975258708276
Ni 5.837918479827687 3.931161531549845 3.090050255290247 -0.09881855023181046 -0.7475415592756546 -0.9324277878315103
Ni 7.412554619375868 3.7842717837216275 6.6215977998946824 0.006958176485388016 -0.6585736765856787 -1.093222265545485
Ni 3.897137221453076 5.070292084190816 13.588976373540648 -0.17988440446589019 -0.4840222542969277 -0.15880470097745553
Ni 4.976657778253193 8.205152644298964 5.610536164648582 -0.49463859636019325 0.5345130639576278 -0.5558573339613588
Ni 6.997833913178579 0.5254974215834477 1.8119019725330838 0.23722926093394628 0.04515037128439321 -0.6285449914340724
P 7.0498147227248324 8.30475074098639 8.209999968761753 -1.745444545991839 1.5454926813521124 -1.1360666144045208
Ni 3.372779525870955 7.8324575899220505 10.286578882403093 0.09892242279952641 -0.10670926583379686 -2.009267241143598
P 1.7636073625111233 4.66231669514424 11.07214037855228 0.7483072337970854 -0.6537497728344741 -0.37381037462651107
Ni 3.423922985701948 4.668531690808621 2.4671197512276097 0.46827758986816126 0.03573833394187394 -0.22943573303145648
P 2.617731983734449 8.176431549065516 8.184917623235398 -0.23706419611099172 -0.4189329779967624 0.5861822101971453
P 5.4690845380266975 1.2194696058773946 11.09358769592583 -1.5294675095684498 -0.2608265886379121 0.8840995330397676
P 2.854683345381842 7.042455349116262 0.5919550773179902 -1.1780763831774035 -0.5090375453943426 -0.3698380202423244
Ni 4.067677446794552 6.497042960138192 6.650520789448368 -1.164123777652053 -0.7893901198803244 1.1423115668729682
Ni 9.207506772894925 4.5219768828665075 2.58587454862306 0.9896875407849278 1.5345940321617377 0.6153606315333144
Ni 7.5565973781721985 8.031477009468123 5.042481839369855 0.11733563519939147 -1.3529494504716313 0.22047723828658802
Ni 2.3038933104546517 2.6741042273429594 5.12541016400358 2.448475681559944 -2.123821714053426 2.262802695436735
Ni 1.240403348758918 4.608391373481436 5.009241846839713 0.14138136329468556 3.093216051806957 -0.4437880893672292
Ni 3.8269580114284847 8.235939202163392 12.44345777296081 -1.8840825422134326 -0.7039909283782134 1.6402355188526525
Ni 4.3591681865626075 2.051367244103405 3.2232400313882232 -0.8181854468454618 -1.5225198746060231 -0.1619131646994502
Ni 7.722476356765389 4.667164019607028 4.261373182928711 -0.5137997426696764 -0.554551984886374 1.268957680840008
Ni 2.3363080483209746 0.43557908760443886 0.5795008958863427 -0.3058800293331248 -0.9128796904962536 -0.4240857258422955
Ni 0.9086109671953542 4.8612523797187865 0.6393862867446595 0.9843054505374081 -1.0274066526022563 -1.8517025832208303
Ni 8.239260689367262 3.296971464982666 8.902297453625179 0.2596922179231528 0.438908906898057 0.7902864064423486
Ni 4.270623106116626 5.230281703120005 9.400250721519404 -1.045879000374831 -0.5884296114704253 -0.3679742275607082
Ni 7.620636023618209 3.968237516164454 0.7665424929498945 1.5101299855821024 2.943400441701989 -1.1769432980142247
Ni 1.2978083236829174 6.556559917121794 2.1544012657891174 0.5900663757429 -0.7514378090062671 2.279503296020868
Ni 8.782942555600458 5.46854491265464 7.8275888665220945 0.2791349000287967 -0.0707529023438459 -0.8385141311004848
Ni 7.428194451279798 7.813533486357152 0.6688703006075694 0.4143157909397252 -0.835316964319426 0.3576077967247196
Ni 0.7572702404362385 7.409102877771848 0.2085847444600705 -1.7215754526837255 1.6403692162170393 0.038547521255894904
Ni 1.6858082700776575 6.540473498703059 12.093428844987434 1.4459033143925486 -0.847633834013566 -1.9839552447413704
Ni 0.7231938285794086 7.6736960839085775 4.5075446953297 -0.47250268369310233 -0.10906285366763797 -0.19719255672703456
Ni 8.321423304205808 0.24469684651355694 3.548173588395228 0.7061581112328613 0.5518453845884883 0.5166554669509167
Ni 4.09356085688184 2.929477282726093 10.303641278434393 0.2407987234527595 -0.24152660275771956 0.11015865783497802
Ni 4.77990850682405 8.998355421794196 7.899638157577435 0.6974076187337409 -2.1225551886361766 0.7818709286851437
Ni 6.8312106237273795 5.815263518087017 2.4148970406525034 0.7794047265328383 1.7218353912133313 -1.037208983404659
Ni 0.07484976065860213 2.822529116315822 4.5749764678996625 -2.4034615787430993 -1.68690644054663 0.1099038615116946
Ni 7.434046595400899 1.2022760250573703 13.165427210178793 0.3269391639962692 0.04932147194294731 -0.3638092975497412
P 8.609955408313274 7.446030000214855 2.5689898568091096 -0.5531088246819441 0.048073715578775274 0.026078699364922832
Ni 6.6743843259447315 6.612848425758779 6.639803643481601 0.7699276402803384 -0.45582136638267945 2.5300213036439203
P 1.056018941458461 2.2165577351529366 1.015760097537288 0.2585174808887612 0.7795777617755929 0.7354406622470624
Ni 0.6207971230658669 2.6690522173942184 12.564678100073419 -1.0057613064183388 -0.6583736447597306 -0.12070969387794694
P 6.211032209062233 5.720410403119403 13.501798964296261 0.394334719832108 -0.5209265835224448 -0.11301926721222473
P 0.8832243846057878 -0.000261439188875913 12.404594511898404 -1.0361566308807446 -0.2415692830701969 -0.07181579639072147
P 6.662140412330472 4.828018899908653 8.453298441250825 0.09605924231911844 0.9641094352055074 -0.5487634032290549
Ni 3.3763801296465776 0.8926836452225188 9.223649014628013 -0.9496971164349192 0.573081154038813 -0.06824453409969537
Ni 8.6425562238941 7.861234508469852 11.899302338944203 -0.29106661846937615 0.589041019802179 0.5756591991786343
Ni 2.3051121194846425 4.63666588220008 7.198625722955288 1.4300192961724403 -1.3091311677351003 0.6270316401133395
Ni 6.8368952979054285 6.026415204618647 11.279911033011402 -0.47714609600238467 1.3009722860733917 0.18726347053878073
Ni 5.831991904620785 2.5535537800025607 8.102016279870277 0.7605328293289999 -2.7124333596276706 2.2351599940188023
Ni 4.866602114010732 0.17393986518543572 1.6021291218659153 -1.4630751981861447 -0.21203013596049933 0.1651067319360834
Ni 2.502428927943018 8.414778493571678 3.0125693557485804 1.3227076208679542 2.0950343575080885 -0.9545644718295495
Ni 2.165963204579726 8.984092564977585 6.1846491803115065 -0.9131288303925822 -0.6752207982240565 0.4942850696755165
Ni 4.584498994939324 6.3328758965184235 11.521438976046984 0.1871505991100003 -1.232233585946097 0.4832920609991225
Ni 5.395481498055261 3.322324553583622 12.428779032452285 -0.7850156449617125 -0.387862481844203 0.6799799101755967
Ni 0.9781826334820948 0.7190266181631266 8.066393562205931 2.5664543496599737 0.6752169415693146 -0.41886175843919476
Ni 4.862443277091603 7.057518340105234 0.9320846708798356 1.5868054240579705 0.5971821608520748 -0.04184933193561825
Ni 6.9692430723452805 8.399873668640033 10.34856416026957 -1.475750222550652 3.366856504380085 1.7714288858707428
Ni 6.334169136634215 4.04763687694264 10.392398487474907 -0.7455726084747417 -0.8552900650072431 -1.1520815017755386
Ni 6.029522702450838 0.35083743564288755 4.298779455486562 -0.9536962102919835 1.0292339356189824 -1.666327587954014
Ni 6.109108140943527 2.624226095970583 1.10476851149238 -2.8552751095179665 -2.2957827499071817 0.48831805345880414
Ni 8.349735028467352 6.92961782304199 9.687109986973496 1.6965241661420525 -1.2500914400631244 -0.8114509563351057
Ni 6.433181088520958 0.7690033707241891 6.658772405697977 0.0028670371351499006 -0.3871531144820042 -1.61030222162833
Ni 4.373486866693569 0.9845371874323527 13.0822811746191 2.023321148133502 1.5806358049121487 -1.1853927143331584
Ni 1.377440281604232 2.9486246795483932 9.497477257735495 1.0579081636252232 0.7584607772913196 0.12698421403274907
Ni 2.789574753077442 3.194433340406102 12.288195458368557 1.3268915770423149 0.4830537197360713 0.4230313164358521
Ni 1.465008454049075 6.0554712397382024 9.216990223614543 0.6060954041813046 -0.02456509093387382 0.6519695410055998
Ni 0.2023650968528268 -0.005307866806181793 1.565812334326476 -1.848008936419327 -0.7555649438007633 -2.1847977395161666
Ni 0.07627511595169074 1.1281519674853278 10.122382976737578 1.533272485136837 -0.3347010673298752 1.1643644329079494
Ni 8.993610440074384 8.220197027516486 7.789229876065991 1.3946527437476883 -0.9603566530312945 -1.2018346619392657
P 7.173565706754673 2.1137591017760693 4.4457771283891905 0.6363156365184267 1.3488935352347027 0.2052676204256852
Ni 6.059955712657711 8.563073128144389 12.576743379081755 0.5068176549248885 0.05287396518089603 -0.6354435183261185
P 3.4910598250944247 4.724959757731482 4.81546981884261 0.7201904209562112 -1.1820137705585967 1.0981739531238055
Ni 2.5585685744084015 0.8643737817381192 11.56509559903497 0.01254055566917195 0.2160909362934343 -0.9655729071249113
P 8.892030615727508 5.986985336915583 5.435745924307869 -0.48967045372164053 1.1109109410744995 1.6789550469100376
P 3.4373577966890236 3.019790101459847 8.173751099588108 -0.5545702397188191 -0.7696782432736938 0.6847277092732272
P 3.3966905121845175 0.3888931194243519 4.726958232385239 1.5230119837510934 1.0421699269543598 -2.256016011532205
Ni 5.073585659737509 3.1260869958693602 5.057882561410649 0.37710190089358925 0.10514526378078666 1.8550105645481407
