# total energy = -340873.0693640519 ev
CRYSTAL
PRIMVEC
9.18534312382303 0.00000000000000 0.00000000000000
0.00000000000000 9.18534312382303 0.00000000000000
0.00000000000000 0.00000000000000 13.44367813042666
PRIMCOORD
 96 1
Ni 5.48039824975899 3.770509880800453 2.430899227882306 -1.2084645085509573 0.011586676396334884 1.1530878315528659
Ni 8.284903962039662 2.3368890777989515 5.284145126525907 0.49995589480804864 0.825529545915359 1.621818964018678
Ni 6.675089906712866 3.0874142813359855 9.622312888204478 0.3078476945824569 1.1128678076905545 2.0750627994821684
Ni 0.6691651080414384 4.180938568823135 0.34509426072289134 0.5396123328574061 0.5136359633983024 -0.43545488691118556
Ni 5.439514287393236 4.250196056182779 11.406893712065193 -0.9938326733015529 -0.08365932599286882 -0.12170728190452586
Ni 2.7144526080268307 0.08913916261030176 1.1725908027979033 -0.9710575843885662 0.8706158967310361 0.5587343983988378
Ni 7.874071118918328 3.9526276794582356 1.7982265696460582 -0.4009812786143482 -0.3010270721161977 0.8273339461139493
Ni 3.922068042794371 7.720354401283892 2.6104800347617427 0.9217746789930383 0.4669562999535765 -0.7442970841964278
Ni 6.840058669707458 8.71525565935718 8.343294269917186 0.4282025762241465 1.1937621693437763 0.9445248282053603
Ni 5.385302392115168 6.56488415958541 8.403858748518585 -0.33658748571931063 0.6669351611764965 -0.26551910901757503
Ni 6.294440101186202 3.706350258889694 4.985520435338981 -1.4129083475237665 -1.6981169645504692 0.25050849454135565
Ni 2.4977887337775857 4.764070078773674 9.92807550955416 0.19658577638097113 0.5816084747835338 0.4390834848027083
Ni 4.818291159394892 8.860126891537062 9.994756508159908 1.385950587988 -0.578947383011603 -1.7986116169331214
Ni 7.274957111884794 7.591686114422631 10.356982352394002 -0.06971109134289286 -0.8470188261373864 0.8585203990190826
Ni 9.242475985546688 5.71601148692905 2.8214517518602222 0.45207501196636973 -1.1971691381427962 -0.21295033378192357
Ni 4.03300861737392 1.8862745134900039 11.020159535235209 1.8721155996595438 0.6112862043536247 -0.6144615167578128
Ni 1.5473904632716027 2.5188507256231647 10.153580276586382 0.33810623635668224 -0.18755863318169635 -0.028188546619074033
Ni 4.104994151649454 2.787861870490794 13.32175760611314 0.588214924356458 1.2776582939377996 0.1489064680271371
Ni 6.620106442610102 7.778920149215601 6.3107450038138015 0.38890017908009794 -1.698339107863604 -1.2913944125769696
Ni 8.212936798450428 1.6249239448104307 8.836489329471902 1.1152548198654921 -1.555339235128889 -0.3552598653178333
Ni 8.499501134079898 2.196895262832327 0.26083527092879366 -1.460322575141672 1.587717908569911 -0.836466761653153
Ni -0.010913106197877226 4.2628718297313615 6.655965103737865 -0.29864005994125986 -1.5423335668978406 -1.2143610765410506
Ni 0.658259350118082 8.087308860172195 2.730424082698044 0.602525170331543 -0.16636374427163605 -0.6011619714354292
Ni 4.112847620043685 7.026172092635989 6.11384890656014 -1.8461112051759818 0.7832341275812575 1.8804865973320581
P 1.326675852692702 2.0734166948514634 1.0104823556605782 1.168911943069316 0.20513340884066608 1.156053856159725
P 1.4237190030845652 7.616109941861529 0.5543942453678621 -0.7172053701859583 -0.5534592660428275 -0.33349727682976116
P 4.921911015482976 8.795746821390678 7.407628371291326 -1.2149084644040884 -0.14064242824613196 -0.5478187799275985
P 4.08139700509416 5.44796480309229 12.670773966305081 0.06042323828306368 -0.7953843897905463 -1.2356117583897106
P 7.7876278545228885 5.641417315198589 0.47016281160321793 0.8807612126951541 0.06544357431579052 -1.4075841070973758
P 1.057995380178514 4.217918760349651 4.383862088252579 -1.2167313765454402 0.8051576671272264 -1.9429669752544667
P 6.675622656615633 0.5793030589251414 10.311045532760803 1.9246362952660787 1.2999484727945678 0.8892954754184104
P 2.527824805881835 3.5020590418650435 11.851704976571245 -0.40309498252324133 0.5055146198427487 0.2927614896732958
Ni 0.3512144548645002 0.3016714695101611 13.536305177300362 2.075943916535541 -1.9071515082177541 -0.6804964448006989
Ni 6.380139352786399 8.421517570726664 3.1602999792403335 -0.2102391054983476 1.08677393881698 0.48245799513360144
Ni 0.7298039879223626 0.47376530318709764 4.601918460523539 -0.3335787807999739 0.6440292031126005 0.12801496929010858
Ni 3.0480826419627762 7.0894131802316345 9.566024186839936 -1.8445068368033393 1.1547127687507985 0.12164454698739051
Ni 5.843669386043684 1.9069874622958392 7.95138415222153 0.10750296537968583 -0.8406872274924039 -0.5516394392252693
Ni 8.694377374374623 0.24143031498768147 6.784365178579112 0.599280181031684 0.27735955329592876 -0.07722231211827346
Ni 4.871658003103053 4.84687594728126 6.567223666486007 0.1065917664193261 0.06820905287606963 -0.4536940356270316
Ni 8.962194424632603 7.449111218030533 12.259814365448264 0.7855337222487117 -0.08036471440199708 -0.19913811048917962
Ni 3.9323005150647483 2.4906884635217494 6.764347560249818 0.004254661511295899 0.1137332625601138 -1.3646150597350175
Ni 2.898885113158703 0.3025991891684269 8.71423241213014 -0.6871561162090617 -0.09671667339745924 -0.4654820294008951
Ni 2.1491222931032135 3.4768544602582976 8.093376697857844 0.17148949553397563 1.6521893487804191 -1.240760649580502
Ni 8.024416815616297 0.513776657953492 1.8559536957480691 -0.8089017075506907 1.3253933952302335 1.394891599231372
Ni 8.930064094289893 3.8545190292608393 9.247932997912786 0.06636454346816312 0.055156590567485654 0.9951634762978346
Ni 7.336168238644035 0.25322796973101414 12.74888245032517 -0.4842053168420113 -1.1834836702359037 -0.5012357899617368
Ni 6.798439879889614 2.0079343835269396 3.4745728210195526 -0.24382774008707037 -1.154797872265437 -0.9183494553615732
Ni 3.909410639932091 7.3734699171808415 -0.0866903501262061 -0.08905041510145309 2.1554534820260947 -0.36125310678679073
Ni 2.5473987721369284 0.43593638595341566 6.108887902724205 0.27051733356311475 -0.31711934969236993 0.6960217941298078
Ni 1.8003456283110277 5.719768292277869 11.986867301040368 0.24164667327535155 0.3833183141169463 0.599590256072935
Ni 2.395767127397801 6.272643281888531 3.691378149553325 -0.6252593787042651 -1.3654424407323194 0.44092979398282767
Ni 4.72278196130927 4.1691997002759695 8.788051340898646 -0.5474937924880119 0.04850951756461323 0.8155068715720342
Ni 2.3678436842183155 1.6237206648576306 3.3668480350772207 0.6808196324680726 -0.05609067234598081 -0.5181469638947785
Ni 6.2958087173157224 0.7691365458298872 5.894326553522258 0.6343304877675978 2.825872230875817 0.9233186264413904
Ni 5.83954516696882 4.647287625949996 0.29573681930020523 0.1507905724237274 0.46122685366896693 -1.0635455644166587
Ni 6.3680789972289435 2.263066474893187 12.206066329999327 0.39662582985912986 -0.15799197526817307 -1.2093435687218013
P 3.8052672192843913 2.186708717277705 8.99045956257731 0.25763842071791754 1.3498548707067075 -0.9131679111606338
P 0.8536995704822878 6.762203701158341 10.233583696898554 -0.3426007817929261 -0.07682687645206769 0.5620935446790577
P 3.3270139574336435 8.856700758541685 11.331716271044634 -1.4878344074086955 -1.1012248241349873 1.3153961748082057
P 4.711851402959406 1.9244212435967154 4.631078250891169 0.06227751788298307 1.7154071190894844 0.24562005610080279
P 7.857914100315462 0.3123283046341213 4.577451461971829 -0.5913786667964203 -1.1294269976008162 -1.6246178669200535
P 8.824267311874987 7.223978457395931 6.858010504362059 -0.7798652111090246 -0.5078671792353253 0.18618437854198902
P 6.705465836513707 5.352271898143646 10.092895469989703 -0.49171062408012084 0.6631098738931355 -1.2334191216137662
P 2.4864815763585244 8.55391510690729 3.9054958466810725 0.49568349268493994 0.7539389781615661 0.3971868445689224
Ni 4.84446938737566 6.53388362645029 10.724721239587415 0.9188644473247788 -0.5232328630581183 1.8427533444473427
Ni 2.3212005116967935 1.3185651946902397 12.312957086783538 -1.8436038653730957 -0.18289233805427857 1.6548478694491888
Ni 0.3280499379716238 0.8154067934194729 11.012872802513405 -1.504992407245221 -0.9930911671498381 0.42382115932699904
Ni 3.825226969951833 4.0025040927689615 4.379681838584493 -0.4314658203564505 -0.17957227254211008 -0.12593468972231214
Ni 1.7881291219200028 2.6782256146387087 5.579462175644105 -0.309063569267429 -1.0849281438574927 0.16075334006339412
Ni 7.559803788345 5.555809917029902 8.025472211544363 -1.297753264915462 0.3433813687126925 0.8621325418503732
Ni 8.12073432389922 7.593238437415174 1.144468037672038 -0.21549881123539016 -0.49506231416117313 -0.1474676786980815
Ni 1.8575519454563683 7.695857091099783 7.441653637926118 0.5019958080562128 -0.44699348367840436 1.047422176492235
Ni 2.120050682029835 4.954757802591477 6.022310532318759 1.8577531602902846 2.041811750738522 0.7077578516198133
Ni 4.478047678390121 0.4939105977861923 13.065830064030003 1.7694316529350558 -0.43271846181662893 0.12112492703849462
Ni 2.6175288670959325 5.806661638487715 0.8895077122227176 -1.6083278715107785 -1.166408459921172 1.0279157310281908
Ni 0.6157018182301899 5.698550149598719 8.221548976188943 2.6666674662464653 2.2447638356571535 1.2964525438261674
Ni 5.2451524263149745 6.481205683478464 4.337939046634107 0.9778116152829482 -1.2234326998250156 -1.3329907479615173
Ni 1.2229641431731062 7.442066059833604 5.346294995355195 -0.73158889260114 -0.666776267001129 -0.7936905470278911
Ni 8.194584482834436 5.178843434106848 11.639240641210707 0.4495666437222192 -0.5126381182614074 0.3671954404131547
Ni 6.310643046504825 7.215628980471539 12.699449689088645 0.39664665579473624 -0.7728880084602431 0.5092517182876778
Ni 5.905404077362541 6.483107049510752 1.859287975311935 0.42841572067621697 -2.0278917982233207 0.36248980740736925
Ni 9.249916113499118 2.3537074411087007 3.1677208179721448 0.6701726942771877 0.6182685492087288 -0.9568311563765391
Ni 0.07982614318935427 8.433963710696467 9.009173780713459 0.393247143194884 -0.4241667155918759 0.13044414755689146
Ni 7.20354106888463 5.627841378021193 5.706303497752603 0.5062419849270766 -0.45413575115014043 0.7156285126171418
Ni 2.9491197548523234 3.4508691244837038 1.8666279830240164 -0.65870043197153 0.14341819121905625 0.3902052710447667
Ni 4.624599828366665 1.07254496372993 2.6961434635236503 0.26986992978710295 -0.12232923175924093 -1.4531324851511362
Ni 4.567760924947369 9.002600749154498 4.97352896985516 -1.6295456432389743 -1.391972625812364 -1.6024870964592852
Ni 7.998964229744468 7.100417221326708 4.210976477996014 0.51210332880386 1.2837384386936086 -0.22388086465149828
P 7.019218787870572 5.061078149565998 3.5320170385525085 0.9486789595830499 1.285159230300535 -0.18136330300426184
P 3.2049131909254522 5.8142303612442605 7.83017620106763 0.15864606391240418 -0.5892932450223013 0.05583201936795546
P 1.27923355531703 1.7211679703481442 7.555118344803601 -1.7550103353034034 -2.616895794139977 -0.276588222347543
P 5.626803434245114 8.415381761501697 1.0968751006686872 0.17570456205658772 1.7293298998181637 -0.7796253271840766
P 3.9650370780554347 5.419132010940841 2.5150966758772912 0.9957666570994722 -0.40007470763967873 0.5599011650134293
P 7.198507500837802 3.582853320222529 7.068524791371611 -0.8444981165980616 -0.6550278682159494 0.2746097584649335
P 6.372138918901751 2.594620621276973 0.8228992778278631 -0.39690685143465837 -1.4194862578516005 1.0152605041580256
P 8.56040914451515 2.7794205401348906 11.47147677829522 -0.031607599602952015 0.2937493075078618 -0.6885666234033432
