# total energy = -381170.34707761655 ev
CRYSTAL
PRIMVEC
9.18064360314190 0.00000000000000 0.00000000000000
0.00000000000000 9.18064360314190 0.00000000000000
0.00000000000000 0.00000000000000 13.43679990687003
PRIMCOORD
 96 1
Ni 1.2221180858516443 5.00746266417764 3.629588534416913 -0.39028111858802467 -0.028952935588924332 -1.0984899417023275
Ni 4.398225978992198 5.890071371707034 3.1812022322344395 -3.7357388455773597 -3.4319087567947286 4.136950237924643
Ni 6.7201025337495155 8.965495147272073 2.6690857388068028 0.6282773395949824 0.44261900875979254 2.0511952488359513
Ni 4.51688579659624 2.6202382887854623 13.325610438849345 1.636521560336175 1.4531137160980587 -0.3682159112578691
Ni 1.8722820798865125 4.006717435725321 13.187063511234172 0.27822550084064984 0.640627119409587 -0.4809040203829201
Ni 8.115982659662414 7.939273633028556 9.040843442902375 -0.03659579684616278 -2.25076710442844 -0.5704069496407597
Ni 0.3390246403439531 0.6975847720519017 10.741418110749281 0.7851606551800091 -1.1605499442578657 -0.49304888327557017
Ni 7.608045195168886 1.059675779260857 8.24672879447154 1.678581465620703 0.2114251553866488 1.4807461331033465
Ni 0.6381823361660065 -0.11402267455786805 8.441669661088365 1.1215856471795265 3.418090105744081 0.525121852550715
Ni 1.1170639819566304 5.131135113148167 10.746712587872084 0.21868517938317172 -1.0359339733469772 0.5298524252571649
Ni 2.466508412903088 8.178199880854104 11.496001826211351 0.0039890665547350655 1.199505756695773 -1.0719983231697021
Ni 7.38729662152949 1.4995387719916018 12.70943869554258 -0.33382637803440574 1.2134213383356007 -0.08512973989080823
Ni 7.731387140972391 3.7226499636708312 2.4150766117285145 0.5613535811892397 0.7020021800829587 -0.5797657651478403
Ni 2.282491594020657 6.523691846103799 1.1021316652577542 0.20238927043662563 -0.026146833598696902 -0.33351861698599977
Ni 4.327663552833228 7.390555749982057 9.964139844485103 1.1075209415563443 0.9515290274373354 0.14530640938070458
Ni 3.0711639569678795 3.8293657640444785 11.156735734942604 1.2724487247124021 -1.3421436181053787 -0.8027171760065336
Ni 9.090416163762455 8.517369575365805 6.36025527581889 -1.7164458447666442 0.8222899559321387 -1.1128066154353158
Ni 1.8618253269077114 7.356614910857713 9.307013250398327 -0.7540870737036561 -2.077205299746468 0.06529367900148754
Ni 1.7580748743937242 9.097466897992236 2.0205054057805767 0.24884370524442304 0.5026540104655021 -0.9259619776015086
Ni 0.37600702666924235 5.061674364212601 1.2957119605036769 -0.9308499018214292 0.38656458896838586 2.389254176894466
Ni 0.8029317384754703 2.7699286815153585 11.653158836322863 -0.9537167791172736 0.46821331228912916 -1.328327538157893
Ni 3.0968238556296432 0.07801802676834906 8.826782050009035 1.1130804379219927 1.2775099412853934 0.7257884838692791
Ni -0.15086367897282058 8.73330749179634 3.2689581675933197 0.14216554975887774 -0.4588377846115001 0.6158213732198169
Ni 2.697374055710736 4.133355232555507 1.808096528722342 0.9858987631664571 0.5942163933555314 1.9834176270703454
P 6.572707301901708 2.244070600854474 1.2094937829357977 -0.14175828701813004 -0.26076205394856383 -0.05059931021410641
Ni 7.052469371406702 2.0781947335840805 3.729827390781302 -2.080407351623533 -1.0855228400186983 -0.3550562339474595
P 3.4786284586870444 4.137605870509137 4.118714860320833 0.08185698267680741 -0.9470540223851174 0.3389469870904227
Ni 4.609022735046852 8.195266697173324 5.184091819212801 0.10392398977917586 1.096275964770144 0.9758123254647322
P 4.658919532623485 -0.05281532415429747 11.69513549272758 -0.25626827984326833 -0.22527928766092167 -0.039953657574802154
P 7.482389727196234 -0.25494647078253413 4.871834263140132 -0.8085132138630206 0.2601323907843649 -0.5407333338357269
P 4.132253555332104 4.968215413093906 0.29824605791968734 0.3056450305041833 -0.02997469198521935 0.2138923859802187
Ni 5.12659069460163 5.418884023257528 11.737367371022385 -0.5741371061071532 -1.0588124206070475 2.1152421999145314
Ni 5.305484714395236 1.2486868682227157 8.248541971568391 1.11963752231422 -1.0478988590183371 -0.9780273308381799
Ni 4.46540992833273 7.465662594687563 1.913682191877648 1.005847952594874 3.0347730771787154 -2.5499627797628537
Ni 2.753954361776014 1.4432797884498165 11.967754702302205 0.8289262303017337 -0.5216858302859725 -0.19167856888734086
Ni 3.659780916788628 0.9884064435502049 6.421554432657745 -0.3770592205811119 0.5488564771634935 0.7813533656187769
Ni 9.068557051521433 2.7213171740326967 6.688287931666339 0.97794299865449 -0.9665576396356838 2.5136747439650966
Ni 8.479453517593681 1.0319502358052126 1.3477919151113529 0.8287488241836048 0.23445684039513173 0.8409047428198485
Ni 6.481607776169801 8.695896369418277 6.842891804812614 -0.5772131739293156 -1.1904048228357693 0.23259844703015425
Ni 7.398405200198804 6.419638432353377 5.78434065438398 0.4250912842886743 0.9265253063041463 -0.4103912590743384
Ni 3.3487957979089895 8.521115277925375 13.607850044777338 0.06378752676960628 1.2342506163761258 -0.4246883924233009
Ni 1.589674330153032 3.096585158897906 4.765871275535811 0.46920601521970157 -1.6989890827427772 -0.46038198917016837
Ni 9.470109218808334 2.969745387910096 9.1750369093564 -0.36822439589830136 -1.0470228841712872 0.6093509350041247
Ni 9.004090572665294 1.6386897859509417 4.59461922341521 1.1062999246650493 -2.2110571874333274 0.3871749688588751
Ni 5.484773501860562 7.388480924544647 12.982124923814961 -0.6375852472594697 -0.04520899243647053 -0.5140856493412114
Ni 7.466305239734549 4.647563076578904 7.072969748405528 0.12696724475188456 -1.1126466928186838 0.7712191053982523
Ni 7.648678723425403 7.065671136800482 1.7489878734293542 1.5079864568765384 0.16211422496666275 -0.2769749162630004
Ni 2.845136513299677 1.943211731786615 1.0347292166012467 -2.213539587535549 -1.3588046237008276 -0.6434635604171177
Ni 7.590950836919081 6.027964637502989 12.935217343771164 0.347977215613491 0.7287352252024288 -0.5005580471684218
Ni 6.789140973082776 3.237884443442882 8.795594485878846 0.04916566309137339 -0.8177496448596239 0.5781822227108042
Ni 7.747324738137622 8.609818655696381 11.61756456329906 -1.4557205575932866 -0.09330147706832319 0.41718308518519115
Ni 3.003970826983819 3.4768198719119576 6.4282452856612124 -0.6000682241506181 0.23611725881669016 0.5834046474520082
Ni 5.046764999122546 3.960648966500014 6.988614323409553 2.6486327202319417 -0.5009046318745631 0.32379958992602303
Ni 4.941536463000493 0.9742774331600601 1.9895198158080116 -0.8925420073801661 -0.2720463686131315 -0.8286410949611472
Ni 3.5900172066166265 5.667312237134928 7.780565094160752 0.2060829172381289 0.8281518140295543 -0.42505168929999054
Ni 6.740997678420061 8.942194673997097 0.46735902009818026 -0.6524675636879408 -0.794050244360155 -0.4919091132441721
P 4.447874899193565 7.840517450593996 7.4941868541301755 0.4922742098930748 0.2519449698775661 0.23582312461503901
Ni 2.208275271737401 9.328084663424617 4.577823236080077 -2.0198010507953863 -0.32380498924266166 0.835646836855019
P 7.803299121730029 1.9943203743089908 10.758831955393871 -0.338935674236513 0.6565558748247015 -2.678416122141962
Ni 1.5350954043769367 4.778873820965025 8.44715142333915 -0.36941327400007995 0.44113599645636287 -0.49568349268493994
P 0.9564394427844582 1.4246981659484177 -0.04570583380593613 0.23000497527136518 -0.31326552316391854 0.5611311807657885
P 0.6625036970013355 6.718532643706165 7.263692109321073 0.035692311195286916 -1.4015170749676895 0.6952962288176928
P 8.16199604502655 5.621317213057848 3.3471607252965883 0.3718072281535532 0.6038053225955472 0.7622079030385777
Ni 4.831313656799013 6.075199048456397 5.868723621310541 2.208143099110326 0.045357602199192854 0.8297860071988677
Ni 6.304963014040642 8.86121221743344 9.739153485793018 -2.1323402930473985 0.6640992343895982 1.040096589365099
Ni 6.213835946378149 7.042453289317262 3.8736008587571713 1.061432631838714 0.11860318905790543 0.18539762097463552
Ni 2.7701306556729826 6.495029877008262 5.444027051688645 -0.8520995830944035 -0.9213429907722583 0.000291820208805949
Ni 0.8724494074009116 2.4750005081668203 2.5850387834333803 -0.1631092418900804 0.2583827550831098 -0.8300048080778931
Ni 0.6301299937272826 8.253123112689043 13.094362881270918 -0.055037034270485855 0.7977544326846197 0.3702396265561172
Ni 0.8664645458847743 4.778387246858022 6.1031687970298965 0.2220299274856886 1.5226916242971968 1.2882388976671233
Ni 5.425292112440323 2.1807333411523238 11.185813587189976 -0.04527018469170913 -0.8237297737024588 -0.9744969490874185
Ni 5.042587806317142 3.3259727180974887 2.5181366798491687 -0.046941915967177214 0.37383865676128525 -0.05821903154289328
Ni 2.1315985369885455 7.189453753493349 3.3373649786518294 0.9110917453578955 0.7500635543665598 -1.027459617327379
Ni 4.860462200001554 2.238194988996324 4.852995582619939 -0.047823033020549896 0.794455964439006 0.11909015599665297
Ni 5.0371253234177695 4.64982151488688 9.638955942324506 0.9533524537993194 -1.152438113784009 -1.3553490610520593
Ni 6.004397925565692 5.554931979704283 1.8740172215133724 0.8154893880705375 -0.37885745013211525 -1.5833300639148604
Ni 8.261211259637527 3.8648948544992283 4.991099085152693 -1.0413633718926645 1.1411861950192734 -2.3472395230255767
Ni 6.453533368260078 4.203174026588679 0.14126072584215688 -1.6236025382816621 -1.4114235354481242 -0.19057042342482663
Ni 6.218967926110501 6.449824388274621 8.225189168625304 -0.6745934490527027 0.40512743957223774 -1.4448242223957566
Ni 8.6430066820514 3.4114812319206256 0.07406392360068477 0.16189413853605666 -0.8580468018167738 -0.07891358377776732
Ni 3.805340019930762 2.69936625535639 8.668845603261968 -0.21534248816318394 1.9873429302666805 -0.2099650259013545
Ni 8.902543474598113 6.82957252718167 10.95449901091379 0.7508243437919844 0.3855973399591101 0.7293047245526536
Ni 2.8748358951139186 6.067753546554898 12.158543163851153 -0.1239315432493543 -0.07527187326012198 0.481799535613996
Ni 5.907285078322707 4.565442220217731 4.657933531508539 0.7582062380783523 -1.1838006872556903 -0.7716345956691163
Ni 6.616912100490758 6.2981968797602415 10.40713710891643 0.9180429798647479 1.9554345115938585 1.0199062304601534
Ni 6.949545176810268 1.727751208819554 6.160235677202176 -0.6073722140111992 0.9075523647460692 -0.7905735986654642
Ni 0.5748267151767998 6.823256244434159 4.896988308343483 -2.1027062722310497 0.3371852672043096 0.07226342545110134
Ni 2.212874774145109 8.258815111676626 6.962008818464368 1.2606607309385387 -1.4504845060053277 -1.1527142502635308
P 2.3087574151552923 1.9218391936525951 9.76047828458069 -2.436388154267791 -0.15898082154400361 1.7889941484480159
Ni 8.2506167970058 5.127885165339127 9.397079953733297 0.49612520820804873 -0.03317880074481382 -1.2142911425350635
P 1.3335343757118112 1.0532126062168923 6.434332970384868 0.4226317670045882 1.080165689471843 0.00417958529898635
Ni 7.11229044463749 4.02764930296998 11.323204671784929 0.6526154021197148 -0.19999274517999105 -0.47361237181751337
P 3.8255649776237375 8.793165287601242 3.3868256956608644 -0.07681633492910642 0.9455273013279459 -1.6572086563718813
P 0.5923902043109038 6.065008534139919 12.950360815271193 0.9928942206476836 0.3548875695800791 -1.446408021943109
P 3.236525708200685 5.6468761246408 9.873561779305607 -2.636018116791725 -1.1801551200833031 1.3872893614040818
Ni 3.110539737061012 1.8347791510731652 3.2337403009541807 0.1922843207921398 0.6116045069249918 0.9758915154420998
