# total energy = -340866.41142645985 ev
CRYSTAL
PRIMVEC
9.30185374040421 0.00000000000000 0.00000000000000
0.00000000000000 9.30185374040421 0.00000000000000
0.00000000000000 0.00000000000000 13.61420319486529
PRIMCOORD
 96 1
Ni 1.136342351676845 4.254156273402312 0.6435143303132808 0.76832301479738 0.2386533949749825 -0.09505419809337178
Ni 2.661874261519085 3.6793389231062137 12.207365818610066 -0.35516216339770446 0.09212674003393166 -1.101955788763741
Ni 0.7657397575441001 7.063613745481918 6.6904689547371605 1.0570990374603666 0.5638190120105967 1.9667383666424518
Ni 4.680888113038921 4.939563362155113 7.463197194954532 0.007418918171890449 -0.21846997804857213 -0.8364289664366821
Ni 3.801332734180286 3.0692210380769005 8.871464356135972 0.5408693451929588 0.2087941455217049 -1.0972442422206845
Ni 3.758562810938304 8.919612611178412 1.326791294572298 -0.5128000977605685 1.0186864991204392 0.10364039710048603
Ni 7.155888134033561 0.7791995398257762 12.190321101918332 -1.4597440769303827 0.5965383566204888 1.2977265254425845
Ni 4.926484955874507 4.33904499012835 12.823095511967324 -0.7589554575395511 0.4274492429978896 -1.3927858657422787
Ni 3.0967824305444935 7.8489413465151365 10.750632278990173 0.13575887490158556 -0.43034070561307175 -0.3624820940978854
Ni 3.1626116490707004 0.5027391464645496 6.230199281640579 -1.1006560961157108 -0.23969649152751624 0.48092047544315236
Ni 6.321530462228598 0.2627234158397481 3.22663444761135 -0.6156617077135009 -0.10540854474450234 -1.2375295442377139
Ni 7.103295453300598 1.4822968939160273 1.3063820974028264 -0.5110563755965845 1.0600830597893547 -0.8135150379529861
Ni 5.146073815807836 6.263412480406959 10.949467773167699 0.5691064856617812 -0.45991404839481437 -0.17822938536097044
Ni 3.032190358558344 7.540845348772445 7.187918137011255 0.37497611279983806 -0.32158149922878165 1.2495700203420157
Ni 5.742090090651232 8.34514873132233 9.618326001627093 -0.2561566939660685 0.8906864422286661 0.44804840730547996
Ni 8.776940779363384 5.465341339825782 5.254510175136543 0.6412884071426697 -1.0772893963653125 -0.5562766808869646
Ni 5.954637447345288 5.993119216038649 0.562981671667761 0.7582394053091329 1.235840586571065 0.386946654898153
Ni 8.70258176100836 5.603901752312201 7.604430960189916 -2.1886045148567663 -0.7336761141474719 1.6108472954985225
Ni 6.271319056038904 3.9050577046177213 1.703001046106145 0.7540058268437596 -0.7134173638984359 0.4574385902711283
Ni 7.2559853815339865 5.656885110899917 11.791655745404391 1.0023934183873704 -0.4687871825147281 1.0409052013093234
Ni 8.015044547761777 0.6890692285484434 10.050072470585091 -1.5548522681901418 -0.2018850771066975 -1.4912033238809286
Ni 0.45371465680501577 0.21852937879864842 5.108865470883901 -0.31522958886882485 -0.6826314888658308 0.6321267952480598
Ni 2.525816047673836 6.211656966505614 13.082473051036708 0.37330926662037645 -0.3315496661850871 -0.004404299715282737
Ni 1.3026780992656022 9.011738170071101 9.653899080673268 -0.5022038103019609 1.9569483771352232 -0.6838849016569577
P 7.652179235523917 5.11586139504012 9.77201587913158 1.3795850507812886 -1.1775585630007204 0.024152943097119694
P 0.7460068051375018 7.311722088812358 10.655305952244598 1.139210045129509 -1.8581431966398514 0.4056835691860239
P 1.2254727136830788 2.0312643928225076 2.9276803116699237 1.1191032470773048 0.601397741595319 0.6302169798198566
P 0.2855622571916481 1.810363971519644 10.555636590013666 2.334469110733786 1.3892657684041623 0.7022538910824487
P 6.370160553291903 2.899322680526926 13.142893241645297 0.3297902602918191 -1.9958003170054144 0.3262336532888124
P 6.944298868269024 0.4360997364824103 8.106032489948834 0.14045602326693876 0.1587332243095718 0.0838570438259717
P 0.7101081612123654 4.778594784142394 12.206998395389524 0.19083370438854233 0.4228834780040781 -0.7008922348482316
P 2.6565256956504166 4.392084159838175 7.713779831365087 -1.6768120324251057 1.447899518886971 -0.026851830085521496
Ni 7.849052968759352 3.166946312887743 11.064127072611429 -0.6816328723979874 -0.6407741865104126 -1.1707945048040094
Ni 8.548822119601239 1.4371922053992012 3.4467209567168076 -2.021090459030771 0.9451251807935205 1.868935145049033
Ni 7.062506824893446 2.5327366268152094 7.111950828154157 2.488797778217759 0.6408904003733027 -0.8196368345800077
Ni 4.655373128381949 1.338164671072509 4.612655295520602 -0.14708227033420476 0.3436688180461242 0.08566787178246536
Ni 1.744330112212375 8.482602223220276 12.750654535842074 -0.0771480072369123 0.4000842207213755 0.40805155519756825
Ni 3.785696318136403 4.496171902569312 1.3223691933306196 -0.3808670243629763 0.7418684201502771 1.392548295810176
Ni 2.078750355882602 5.449937470124016 5.4165335833571 0.07201711376825017 -0.23470006675418936 0.8617895566886576
Ni 1.6059092275312266 2.1929027043005207 5.153724590463454 0.11607733731225815 0.34260361000640355 -1.418125630058648
Ni 3.0526358329571854 5.453034987401001 10.72378526888556 -1.1879800154443605 -0.08340118723547571 -0.6432092783144664
Ni 5.281983199994131 8.703874718670527 7.1219168341918815 0.6113882771491278 -2.243530991691317 -0.4206970118757206
Ni 1.28704168322172 5.721960879277669 9.009089932327083 0.11735337581120434 0.9506013734167434 -0.4082418168315034
Ni 6.239060227460568 8.789191320666056 0.7883265186611463 0.0679964226446313 -1.2453423554139131 -0.2010345561809441
Ni 6.293503977076774 6.1409070673802315 8.639260322235533 0.7172953587966033 1.4356731520241082 -1.5479378004584954
Ni 5.150929383431219 1.619387613520272 7.150015873802447 -0.9909126714412805 0.19015673292617574 0.6025855912558332
Ni 8.779684826200352 3.7992770245159795 3.2385743070009556 -2.022007828638718 0.7298670248140269 1.1412661563275894
Ni 6.890003948311771 0.6034428748252142 5.355637137839859 0.8093853320553287 0.35639783557701843 2.017399383332429
Ni 9.230722409514929 6.51408813535436 2.98735077287153 -1.1026551288236106 -0.1953753010126377 -0.1113832742706985
Ni 1.8575894826765684 7.385811353410527 1.764318865595301 0.9182026453710638 -0.3061332829945115 -0.2146619171563916
Ni 8.103998174548003 7.685944964399166 9.578313147817239 0.7015810333851401 -1.197016671725332 -0.3392550052491448
Ni 3.2495467736073587 7.779084425343479 4.705613370318066 -3.6525076082608448 0.21964934306865397 -1.0361021234937253
Ni 3.806485961121577 0.33555786037585855 8.743885712109641 -1.1549333694020367 -0.1727825033137863 0.6327356324766522
Ni 8.165613653355067 8.313894502941935 6.930160050668368 -1.3385191339789142 -0.39232591693219526 1.7828055031388006
Ni 6.32975330088582 4.14891510081428 5.463243771819895 -0.44567245087413565 0.04492000044114199 0.6013002967855063
Ni 2.635298865542065 1.3802183515807729 10.89328178635636 -1.3326251370919824 1.1691050329167287 0.2564605983597325
P 4.527919129194993 3.8519162145173653 10.586839658198794 0.43814811747263255 2.3347179935197984 2.921758437952181
P 0.893163060613897 7.491340883462782 4.75561827535596 0.6834699256067261 -0.4345089780581484 -3.210750947501348
P 4.226520466105243 6.574782730646644 8.958091589315668 -1.126845610026885 1.3554436776483947 0.008598283191972287
P 7.139544777109646 7.7409840326511885 2.5312753056013517 0.7652667444695594 -1.251581651455406 0.03025211401632209
P 1.3772045509869488 -0.1206869006313796 7.498403780965531 1.1634820303029962 -0.516356447653259 -0.809782053273115
P 6.461737302817197 7.658644023834743 11.953679153624948 3.756104810828221 0.8025791077667727 -0.8328877860526431
P 5.184657904891728 8.452994422942062 4.918430480768976 1.1277418965889094 1.5177180823420053 0.3207194083388025
P 3.2814149243309396 5.535635448120616 3.684656792857723 1.302676156138376 0.6641262309727917 -0.5370414868064365
Ni 4.464973485311025 1.123403473201509 13.00892887506446 0.4117274613872587 0.8087530977879684 0.9888591313463615
Ni 1.4340481788537924 4.767683709770309 2.90249368244802 2.1324415945119535 -0.20518225980073052 0.05908395064634985
Ni 4.616742530029634 6.378922899462835 5.632631457602584 2.2299920766646175 -1.3079284056762506 -0.09526014345659078
Ni 8.694033357472176 3.4073527213672996 8.769343955459137 -0.06494503741281718 -0.40296437048264794 0.3788134842680573
Ni 6.144953373733051 3.699207682576608 8.891640076777959 0.7663070128086158 0.5689938713433168 0.46003694712592386
Ni 0.8734998721099336 3.642912864077158 6.814888689252187 -0.18042819278450217 0.7195409602976705 1.060711437401973
Ni 2.0199347350346146 2.027543651348651 8.395920109103841 -2.747562599230636 -2.5257861825166503 -1.4840757116972119
Ni 2.124608494547884 0.12087479807580935 3.2104473618293374 0.8959685165632116 0.2237044869746341 0.2964975596769603
Ni 3.484818558852993 2.915200944766609 6.408545582706945 -0.18472759149080442 0.8758851155497754 -1.1861275356166538
Ni 4.698868596211332 7.889395108189642 12.77649415519264 -3.2919754388004785 0.4954119841911081 0.7010223326681927
Ni 9.116086364705408 2.4552614874758314 1.4050942988896093 0.5108781981475071 -0.3429640786696158 -0.5969625886421009
Ni 8.748421295966272 8.373100801644679 11.896158350809863 -0.8493891261417759 -0.2350214546493501 1.2791454200062873
Ni 4.943693385191094 7.374751449379488 2.977276865331063 -0.16626732790308785 -0.808692162643046 -0.24256018622855643
Ni 8.292435126491467 3.71562545433 13.168773789152073 0.9904539866373071 1.2201051781136796 1.6364567685365108
Ni 1.50803512306143 3.630615813506062 9.929069306928433 0.07000702531675684 -0.14178554071163968 1.406399085650339
Ni 5.273230155676884 1.999582279172619 10.110683349194213 1.8551833426805793 -3.3273648740433663 1.1530222684222529
Ni 7.900008523243817 7.677982577645111 4.806412907771683 -0.017508698307724686 0.5968769709068302 -1.373513133555596
Ni 1.0017445288600841 1.9428874809647299 13.062010833301233 0.27156068722596455 -0.7074320928492784 -0.903964904505127
Ni 0.12848557476058292 6.693799948541631 0.17496321688126207 -0.500430520451622 -0.43069860317312275 0.056223341269103166
Ni 6.747443738740958 5.8472568484097875 3.800418361963085 -0.0639739317487995 -0.3353721252549708 -1.0371763303945105
Ni 9.227029573602126 8.86601533024751 2.5171569520788037 -0.3594911297903615 -1.2909964058076024 -0.43740995375502734
Ni 9.018072732430342 1.1535972902618548 7.286335469736235 0.007649803235773922 1.34727656845657 0.17735161074170747
Ni 4.619598199110818 1.8076943395121523 2.0102189488610067 -0.18297512757607198 0.6240841274492412 -0.3484274157770322
Ni 3.7688785666745717 3.4104502386442856 3.8633295889884205 -0.22425264616862026 0.5119218089206732 -0.3004593725381858
P 6.241181050100666 2.737321596755212 3.872383083179682 -0.8024490099468116 -0.8443068265228622 -1.9288354209490912
P 8.606381990201799 3.2130742053098795 5.516788032184796 -0.9304264411307653 -0.6218704076273741 -0.5498936601787562
P 3.995415911310328 6.877065069836435 1.0243991935090284 -0.7392664637510559 -1.0591080974705953 -0.4715994551525426
P 8.87144761279934 0.14160118845592728 0.48663856792180393 0.34258921182870034 0.8124570290021168 -1.8870236271196275
P 4.365629687959054 0.2679445463129373 11.082124299120473 1.0312388818641531 -1.1750239695043248 -0.588753056248115
P 3.1350874640178463 2.692142493408909 0.3245109789399785 0.21357151230569027 -1.2726772957834405 1.4075943915100209
P 6.913165563986528 6.074854604365593 6.3092027155403425 -0.35131322196525944 1.0084018293649792 0.08322018157292119
P 8.269087473743017 5.113601044594753 1.4527988555112927 -0.07503173222485787 -0.3432602697537959 -0.1922961478666817
