# total energy = -340887.77590993425 ev
CRYSTAL
PRIMVEC
9.09615760133681 0.00000000000000 0.00000000000000
0.00000000000000 9.09615760133681 0.00000000000000
0.00000000000000 0.00000000000000 13.31314610326280
PRIMCOORD
 96 1
Ni 6.507836959754813 2.2008062693157964 11.398729094436051 0.5813246249945279 0.3823942596407801 -0.4830238949394004
Ni 4.970859186231095 0.6378234904258773 5.798447629068814 -0.101087034551013 -1.4856721096500543 -0.129155510652455
Ni 2.922768309231625 1.6595394029281012 4.469063277129613 -0.29925069694206524 0.30238821412978245 1.5079041815753773
Ni 3.8330571990204194 4.25943959313727 4.383380200055212 -0.45075397916210114 -0.4090686836081729 1.1663657796086946
Ni 3.7701117874515955 2.761384278587973 2.543635906501227 1.0266931714749996 0.18086322343939173 -1.1351448739211998
Ni 4.936712210070782 5.3067893877698555 2.23599657476902 1.7188369707066398 -2.731388560573935 -0.7539798587018306
Ni 5.953435241588883 3.317505170566982 0.18754185145990393 -1.013723755798525 0.07156768493565739 0.06474063471149497
Ni 5.5614363237336155 8.105458816938842 12.31043971367979 0.724882427115242 1.0259529508748655 1.2945488990455511
Ni 2.318974454531199 6.7508226214944065 0.2399229854281449 -1.9999349079990785 -0.5813801608228116 0.24342279133916786
Ni 0.8427080762350758 0.5454920316584638 0.1801412175216966 -0.6783837693330703 -1.3208538554886673 -0.06545437294906792
Ni 8.096289889935752 0.04467123066683423 6.980149492769875 0.348531031234432 -0.457841739246818 -0.40316928740460245
Ni -0.17041560566484884 2.88130802224742 1.3330455554300191 0.07385133876351152 0.2377601937367518 -0.0002468259034834459
Ni 7.311173226823054 0.5112022458216149 4.706117334406196 -0.6543637522693891 0.12478360683700443 -1.0703929263557954
Ni 0.9729068396789362 7.535184303514589 2.2742186295973723 -0.2256549258327856 1.3404608310863173 0.11065822317921588
Ni 7.729269021237708 3.871825023313241 3.7581676227216794 1.1091484498574382 0.4380303609478456 -1.3550397573417567
Ni 8.141779774799291 4.165212495096599 12.7062535600917 -0.36671952921800066 -0.26790380719966767 -0.785538350234402
Ni 8.492800502030635 7.6120832210583504 9.053019213072037 -0.7653389924683917 -0.6828302351401981 0.4836581860892896
Ni 7.303523358162739 1.0945042763627564 0.14535387185640622 -0.33645713078903344 -0.3753887748572245 -0.5081975659915505
Ni 2.5171069624491356 6.818252438829622 9.006836200988621 -0.11066490804743523 -0.4228708795985878 -0.25199047840352085
Ni -0.12407977813138242 5.545481663055622 1.4844556491104894 0.5518937213279205 -1.7955512328402432 -0.541441415646345
Ni 6.732120921178582 2.0166363635305404 6.958089491016014 -0.2791559830747192 0.7259620333326658 -0.8682203999156659
Ni 3.578746820893082 4.228658195341186 0.13900748260039927 0.5933375902950039 1.0632647999514464 1.5313819529823431
Ni 6.096008418023818 5.631331199816684 4.589374517108833 0.07575086977906954 0.19535833173177322 0.5276515609511041
Ni 5.762243102027452 2.7528884672577303 9.03663066566979 -0.9699280987698135 1.616740521054506 1.0997163579102607
P 0.6460473266396595 5.949605759179855 12.257293592845516 -1.4873777794872514 -0.3281974618834025 0.6824551111889666
P 4.11909497534892 6.134758050001157 12.692647527342473 2.2367378800288833 0.891690200902832 -0.6827042510852951
P 2.606977000931791 8.719804214619012 1.1445167708551993 0.19325234113236395 0.5335298741087521 0.9018319173225242
P 6.48231314113312 7.901904999007175 5.794826448672059 -0.20487295609042777 -0.8477518476486692 -0.3768031387062478
P 4.984785403732809 1.352744194634274 12.751544239100706 0.73495600930116 -1.1164874067210129 0.022661960373890004
P 4.3486819967357855 6.222390433679487 7.844319043579442 0.5033993732719588 0.09683314437066548 0.9327661450075355
P 4.954249602195738 1.1977274744094342 3.6712729374361563 -0.2146035531146304 -0.7660622437876614 -0.6609303497433133
P 0.38116812283286944 5.873243514942821 3.650823865218256 -1.5563296240666165 -0.5115443709765964 -1.3449582047360384
Ni 0.8959933682827882 0.17594606957147382 4.460050804039672 -1.384322308355958 0.09007422838027712 0.11789253614412598
Ni 1.8974403124903865 6.890566892871839 4.639565296293002 1.847461034335657 0.7121914619111347 1.0479207133952084
Ni 6.1139187526161605 5.950224297906255 9.226742181691572 0.07146046993383177 -0.26893353401576264 -0.07496591198392896
Ni 8.43556747752326 2.497595704094348 9.892026972338009 1.5636734660261973 0.9015460106509894 1.5004945193748676
Ni 2.680519436269065 5.2206851585920395 6.679551496745099 1.1940182512186406 2.043670915434448 1.1271533710752912
Ni 0.6346844063894032 0.5697205574178161 8.949003739686104 1.1594898784244676 -1.205252429371563 1.305959197765022
Ni 1.6385636631769873 1.382397668870454 11.310596422081957 0.5271982754637695 0.7769156415623976 -1.6057331142004088
Ni 4.420368815893863 7.214508358507752 1.2463700875460586 -0.693894977594792 1.1301433069415505 0.11130459851396315
Ni 6.228102820740935 8.004109427386842 7.974521445486399 -2.2008717622598932 1.2671535377517338 0.10450325932141358
Ni 5.784837957856492 2.8775967898890267 4.64116258159235 -0.10491849248196124 0.28902182012520544 0.8845623316087992
Ni 0.7907944847747305 7.630521132799681 7.0322568323901065 0.8910893340940396 -0.6893065868931613 -0.1232129199157749
Ni 5.494597756651575 4.527803534974699 6.797333095256503 -0.8897780714817838 -0.24059303519985664 0.49864540352674125
Ni 0.9487110600874521 7.710685570972521 10.982360660376443 0.07430153892705268 0.2623929046837674 1.1569964225786526e-05
Ni 4.781713682161424 0.6503707304140326 10.290796160400022 0.018425810805355363 -0.42109810396888125 0.32141823417804
Ni 8.427890320389722 7.355116764870595 5.0261520002922815 0.16524788549963798 -0.33347645089415473 -0.1810267456004495
Ni 7.287232139648322 6.1700329497213735 7.18095172298484 1.895044440541575 -0.5630613079089658 -1.8543963280029094
Ni 2.3827930972431743 5.509479070716113 2.606314800648234 -0.15047098430077957 -0.47684476271188203 -0.9089872974203829
Ni 2.6078502320749424 5.850712332217969 11.196755279104023 -0.8051625522232326 -1.8265821340041184 0.028114498848029
Ni 1.2144098277067206 3.452328420606448 3.7338317623009805 0.1467205161194118 0.22022115641172396 0.12980959929668612
Ni 1.4736685156452483 1.3424200555980579 2.306169793278969 0.945175574415482 0.05530288633736282 0.2817692523278502
Ni 1.5960937026835138 3.669317263521807 8.244924745889394 -1.2143255953174248 0.4143044780858155 -1.0271683113392052
Ni 4.0040285799232525 2.5848642414630323 6.675478237308608 1.261497882127853 0.6870442732215458 1.035466032571623
Ni 4.178292769928387 7.243024813026287 5.964448869381879 0.4058303791765333 0.25695913526270586 -0.9502699582192538
Ni 8.629315637409958 7.613847875660136 0.21372514151783148 -0.7820424212660015 -0.46408566327400075 -0.6128093258663705
P 0.6664936700102378 5.879719979254527 8.345598290921226 -0.7368082320185505 -0.2491128997454097 -1.4863082005721564
P 8.84514017213445 1.9514714894728737 7.705755453476812 -0.27082689438373353 1.2201013214589373 0.305330584587558
P 2.479048638460124 3.625728475626171 10.212594673067725 -1.7303357153748586 -0.007300647426471298 2.3938500237952645
P 4.042805500373816 6.280014592969732 3.810635170188461 -0.7017440413255656 1.672573825974042 1.2411612274530301
P 7.115151027501067 4.282334622171769 10.314080504985842 0.9242272542985889 -0.5993156622553099 0.30079567283168196
P 6.521617638732669 8.044832925594013 10.246569731846732 0.13929234197614074 -0.7533846483199929 0.4210963041966683
P 2.381510539001671 8.687421893060485 5.92301859971822 0.4587670792745647 0.20815754037897055 -1.00457577075067
P 7.0440190739652 4.310032422493599 1.692566642070477 0.28013634471011756 0.8329052695541397 -0.1257454565296415
Ni 2.9355938916466595 1.893365233822347 0.08433047841828958 -0.34370481349038223 -1.0896905982431426 1.604199965385334
Ni 1.8203958564227656 1.4915242732911445 6.9313968161245825 -1.025650332032782 0.278235785253295 -0.8189202681289574
Ni 7.120263068151599 0.8490217193232147 9.248203656266064 -0.5831943312134149 -1.9114303380987663 -0.5289342843182696
Ni 2.8697740942316297 1.8685145308734992 9.121262226909312 1.1601113140585504 -0.8746635844378484 0.1236759755951225
Ni 6.617263737380961 1.9627507250719114 2.2830582756902307 -0.1833646497050068 1.453612253001032 0.9826707431474625
Ni 4.395345285947934 7.115824143173913 10.549576390441365 0.4484546416049632 0.6799860808231837 -0.8071083630956939
Ni 7.515409256585308 6.1799022808705315 11.385002992404642 1.5080792737006607 1.3717814955764698 -1.513042274132891
Ni 7.674237266903694 3.9505249800897526 8.185454976193467 1.1030454222834938 0.6227427829299985 -0.5517769932443982
Ni 2.958707228466946 8.763083733151449 12.174419409281588 1.3447116359428712 -0.5068711338706432 1.4401324733470424
Ni 0.46258783077398796 4.837727821531484 10.16541290286433 -0.35411623863169334 -0.153073197810317 1.159956790758557
Ni 8.615252977542124 2.328325304689111 5.5059443038178975 1.171425967740421 0.6220411288772836 -0.0828388869741025
Ni 4.097473408398184 2.9176471724233517 11.673845114164743 -0.6173180123700014 0.1850538644819716 -2.7081159631992393
Ni 1.427623765159499 3.810280420036556 12.521559715620553 -0.1604977724091623 -0.2649709498235888 -0.6093699611675184
Ni 3.219721474849517 8.851334655556178 7.908408751792103 1.1071129074846482 -0.23951959963001979 -0.017856825675762796
Ni 5.600486128916413 7.866866599388228 3.654884390033909 -1.2552177055460965 1.4075511969769114 0.1819682835781124
Ni 2.9546685344298713 8.678571331578336 3.360903848765828 1.5816935567527017 -0.5444956290916364 -0.5946578517683243
Ni 4.036783843949168 4.4795029373691415 9.21344268945822 0.7259705179730981 0.6920448117599307 -0.7093627342130879
Ni 5.388836730595115 4.892486691133264 11.387891932103235 -0.5715698596006091 -0.2144695986399274 0.2462849433783113
Ni 7.990501575406068 0.03317550651355688 2.165862469737358 1.3501268934211716 -0.9902683529890622 0.5278878453316264
Ni 4.876386491931412 0.5216637368397224 1.535964461551353 -0.9195822993274099 0.1696123331159208 -0.3599945517893413
Ni 6.522281658247774 5.962867957166466 0.06356576952677072 -0.8569718235850402 -0.06201320847800288 2.4051556786160706
Ni 8.105758990144299 9.095102586861511 11.404227721790582 0.08659681135463795 0.23470109519545387 -0.113551742676927
Ni 0.5891144753377423 5.124566059741207 5.620011941123586 -1.4260664821722793 -1.1622229610849146 1.024774614296048
Ni 7.417580080079138 6.757053489547101 2.7769359794780337 0.5801560586077235 -0.7698697904592096 -0.36594537005613753
P 8.65248355117669 1.7477448445441248 3.279121204130837 0.29854235802113105 0.5561224146972875 1.1047222957652847
P 2.041996451312893 3.550794328154499 1.5412229503415174 -0.9943376379624295 -0.36998920110820793 -0.372660577292784
P 5.087799390151441 1.045148524459225 8.028253358879201 -0.5716269380907898 -0.5161787844248142 -0.04286003258831973
P 9.026799538383145 1.9957788738300615 12.28385346383393 -2.1734848856065083 1.6555713778787744 0.10560831946013424
P 6.374414518007486 8.019873068752272 1.2575629096465553 1.5901548001461776 -0.2806775619255682 -0.5901895315843255
P 2.2599131023178507 3.402199495294918 5.896299545969339 -1.8437938698967151 -0.9752389694597655 -1.798657896790025
P 7.448752612658091 4.215259554988458 5.884930258408663 -0.4462679183662895 0.6539256362907061 0.5377688518907642
P 2.748995311744514 8.772989448931572 10.100498173144548 -0.7909667203388249 0.2735422364323676 -1.2143957864337278
