# total energy = -340871.44006761274 ev
CRYSTAL
PRIMVEC
9.23781193840039 0.00000000000000 0.00000000000000

0.00000000000000 9.23781193840039 0.00000000000000

0.00000000000000 0.00000000000000 13.52047154418691

PRIMCOORD
 96 1
Ni 8.665095491103646 5.064916872289105 3.3657996208031964 1.0291899697549243 -1.149499342870659 1.5543735287815101
Ni 9.288435340180033 3.287848190709071 11.451906922646398 -2.3177235158443312 1.5554788460305466 -0.8918190131712125
Ni 6.394930873663991 0.5432600270675793 6.297308446420863 3.323710050899598 -1.3757343095766308 1.2129531404499305
Ni 0.8647368129626732 9.435408931163709 10.410966233559225 0.10817350908414919 0.6272697242660746 0.1058173501471468
Ni 4.874617942417095 3.0526350182624147 3.818789595301683 -0.19551259792145037 -0.39763318807772163 -0.13419281596604632
Ni 0.9933973651804117 0.9922518764763275 13.453477533508693 0.16476400388468398 -1.1979600094752079 -0.03281653230938865
Ni 8.914248522054033 8.297301238971402 12.348571461891774 -1.1366780227362745 -0.07011758275269214 0.6028074774586522
Ni 4.692863988765065 8.72117824854311 9.844093434906897 -0.2349980576105824 -0.06876621093112029 -0.5716531633430348
Ni 1.9635154437939557 0.4716826873429532 7.142756707656703 -0.2607769663468993 0.25631687369301664 1.1855161272849002
Ni 8.35643247441367 7.606756306651377 3.15915253480524 0.9384673091573709 -0.04457007330089098 1.3174715692799956
Ni 1.8103525186833769 5.014173570260613 12.131784029519034 -0.3405608685447619 -1.3022550094405572 -0.36390417125639263
Ni 4.938368083924218 7.672437150893611 11.824126086788773 1.8621471755929222 -1.0539404372267267 1.3175173349162663
Ni 0.7610941035546136 2.5196040205660624 1.777211867668045 0.4790715951598717 0.3249573576795501 1.5327721484616506
Ni 6.959407383849873 2.971268369023935 4.986417639935689 0.6088804231256094 -0.12579507882065433 1.2815033787155028
Ni 3.6737300789912846 5.871303968715684 10.710822843945948 -0.22374819572837598 0.7143663580752664 -0.6038351473922182
Ni 6.607003326725726 2.3494435211368185 11.570576781045856 0.38452467572022164 0.37421095249903935 0.23355618295773328
Ni 5.733318768934216 3.2776681217421313 0.015173106423047408 0.8181903319414684 -0.04875660057841281 0.21600377589626668
Ni 9.250560310448225 0.4963245511989525 5.520286507192205 -0.48458763988209447 -0.010999950654929442 0.30981895937621484
Ni 4.642111448924443 1.3686650073255897 5.539229564745387 -2.3307389542673924 0.8075058556444287 -0.9549583648338588
Ni 0.4215841846011141 5.518244026930327 7.720771231518675 0.4163611035045281 -0.26574999408145844 -0.3268121515001017
Ni 5.50762978079329 1.5106686553834798 1.5805841127059712 -0.21837099057686266 -0.26823573661778966 0.5215035390718373
Ni 7.185761494464139 5.8262973480197395 5.021719938989372 -0.13391179439051776 0.09757825006680614 0.5127278497617364
Ni 5.637236284973111 1.4682763355202442 8.785886351168084 -0.008975464025732929 -0.5441261615673597 -0.7869172328597995
Ni 8.466528719375544 0.6918132839254334 8.116772219207773 0.0030984364196656312 0.14949165110664578 -0.5371132205846363
P 8.911006049996505 4.2192690743112635 5.606398620521715 -1.1845087690663085 0.1430525803495214 0.3650747945257261
P 8.503443016645864 1.2054051535572383 11.608825942168918 1.3159235080665854 -0.45560127995207345 -0.9652582040979698
P 3.5585530373580703 3.5116434273634063 5.877159817824706 -0.7925497485552286 -0.08701692961119208 -1.4717418727222074
P 1.0631520845718458 1.8560150240405298 8.711266999909146 -1.0408527508048333 0.19191768148134045 -0.6083443481164813
P 0.9990416683916639 3.386286316763252 13.478030714368247 2.4348910008969744 0.8554312185707977 -1.736920567681228
P 6.010453132825493 3.1291241026964065 7.166755619788475 0.8338295811406219 -0.161157003259716 0.060787306490701756
P 3.1652624237478295 8.517419826398113 5.5363760045785195 -0.23430565952924806 0.7184297295113626 -1.7150487073088014
P 1.0204456790962002 7.828639316194864 7.469600662399159 -0.3413404270232637 -0.38420457337664154 0.7669539023639953
Ni 8.375323800218926 8.070910177108617 9.521575547584785 -0.16486119158418058 -1.2496690078137251 0.22919070690018592
Ni 2.782844715014256 8.010836684829119 11.547510887939186 -1.8157832436164016 1.3871286674565015 1.0472673960819254
Ni 0.801685050052556 6.89441013770524 10.738918725757244 0.3259621447949806 -0.8074904290254609 0.41431553382940906
Ni 1.624755635185389 5.136121928184903 5.671067000554532 0.6763189163842417 -0.5438312560347601 -0.31342158912580864
Ni 2.911582864853884 1.12306853404514 9.389061903927743 0.6977084378036114 -0.08737534139187532 0.9991481719771955
Ni 5.077895998331347 0.5478124208851 12.501393511734765 2.071535245944884 2.235003928056912 1.3435189011863506
Ni 7.743780773971355 1.2630121499981053 0.021738419503631756 -0.9049046427105771 -0.6046332178134812 1.1275866019579677
Ni 7.833378313817405 2.1361054878133134 2.670847328316088 -1.0737739270128863 -0.16981802136882365 0.09103222141817226
Ni 8.377189838269127 5.690658552519219 12.46584825822207 -0.04594561349217894 0.21038771526106995 -1.078790406390871
Ni 2.479909141844702 7.624880894049867 9.355260749345138 0.021510877488582308 0.5521318054806555 -2.6534039163683403
Ni 4.285282479790165 9.17610354468277 3.404278803448287 0.07266117511015227 0.4148009581062598 0.6960158805925368
Ni 2.243568956318221 1.3616165566706213 5.076531573479789 1.2608540778962671 -0.4527805226738266 -1.8741354583030496
Ni 7.282730808389696 5.01489411960673 7.762156629859772 -0.3338371766676831 -1.918422196035567 -0.4465106305047149
Ni 7.17367843619848 8.651340388842508 1.4550191513328985 1.2680806775516935 -0.07359062890295713 -0.9385393000458869
Ni 6.0994964039437605 7.430905314950233 3.1400210258846117 -0.08050278264175813 -0.12845719903384972 -0.6724504345677709
Ni 3.4417409029778967 3.605028470182637 10.846528151693803 0.791020970615528 -1.21805832288698 -0.2578078564162463
Ni 2.843768086009689 6.669487887971079 6.922590083606917 0.029720924103200423 0.9058070999201884 -0.8483380591694422
Ni 5.744247100683663 6.162359715486432 1.1380827500995563 1.0929715829872595 -0.892698073342056 -0.04240520443908826
Ni 1.8920332535342659 2.1829596709351984 11.742151589512158 1.4740216698953192 -0.9833034916354549 -0.9163427093441896
Ni 3.365002397616402 2.348390410554032 0.24974886983275385 -0.2690093815590206 -0.24564499580146723 0.11349594973832713
Ni 5.057812994761359 4.180534928051393 8.998198063563978 0.663143041123916 0.49425910153358754 0.3449463992069672
Ni 3.2850306580095094 6.466394588299422 -0.1535259711272766 0.8315600683801551 -0.06354610018276154 0.8910348267070202
Ni 8.238761223505435 7.222980639534737 7.193567445713743 -1.515177575308339 1.5658594179339227 2.1021987364670123
Ni 4.5532991231094195 4.279675127827432 1.7528480619571498 -0.7919668794685651 0.15006629266319316 1.0088587143967398
P 4.610841454865378 5.858195513303626 3.5706758182158875 0.029062721693911237 -0.4580409997418176 -0.6293556602608258
P 3.9116222169555566 4.381891519042664 13.033923820013689 -0.742633837561392 -0.34619132735766184 -0.2340945719597065
P 9.152196086891083 0.47528728163596573 1.8699216264205938 -0.3710636651193093 -0.1775783820405329 0.10695069242064162
P 4.191648016043433 6.33555021729422 8.554970608924169 0.9484043657654246 -0.17165044659187212 0.6424477175580936
P 6.487798599003958 8.620901797875117 8.467479290243693 0.13931805300775363 -0.25542290112383753 -0.30115228484015233
P 2.501183823179422 2.3720761608546055 3.064942555362826 0.8601103692140218 -0.40775716388560096 0.350594341521364
P 7.1295124564063395 4.198160673594878 2.001043131789687 -1.282732108916281 0.21080937617952084 -0.04887307155161905
P 1.3103744127871244 4.904493026844575 9.678494567107304 -1.0060351289050158 0.3808927353945892 2.6650520421302293
Ni 6.034046505004771 6.470200566896862 9.886588294484772 0.19847450876325173 -0.11847643367205403 -0.5848691478126766
Ni 5.018543055397965 8.281245921489967 1.0292908842103967 -1.6974945004751216 1.4817414071370805 -1.0601820472610644
Ni 1.6014671108063916 5.311381699909748 1.7312020205748153 -0.09081881985578552 -0.06920021314474535 -0.34233518683636527
Ni 1.5126824984277565 2.930197056295248 6.54884298533829 0.6419013581363203 0.06656251841158214 0.7230955104181482
Ni 3.823234830498499 2.509867366581349 7.660942541260613 -0.10889727462405117 -0.458939600296687 0.1668936486331771
Ni 7.4468774921225 2.732914340453178 9.366590925922228 0.47509178457651724 0.24418563764712137 0.133910251728621
Ni 6.859075506309102 9.172131285466996 10.963047447429464 -0.1693634503299083 -0.40806543915463916 -0.16877081105123193
Ni 0.4668088176633186 2.688849976594465 4.261950537694159 -0.43474654799025125 0.3364180500209819 -0.29168291189713635
Ni 8.720162089208841 3.0352864070828205 7.5569026059309765 -0.23095345522756353 0.1894818183463382 -1.0261290714414133
Ni 0.7950929473167955 7.794191514763178 1.5082760620418851 0.7654261528655592 -0.1780272966524934 -0.7022052972327003
Ni 8.236257776418283 3.4990338138063537 0.3021069414215198 -1.8346368859877953 0.6043563100030108 -0.20501025299924047
Ni 2.5957605437633853 4.655155239651593 8.135132370815569 1.9536185414310419 -0.9973345158072243 -0.5284915403538962
Ni 8.363831961929566 5.511602040009065 9.777261559273303 0.7965820096430732 -0.2166000147193689 0.31984266216080404
Ni 5.024556871094405 7.414443533735091 5.074543596309475 -0.6086834766234549 1.1903875964445887 1.1903528865519113
Ni 6.0377878189173035 6.674014415914637 7.083118316328514 -2.1607342708090593 2.1087362804752137 1.6263160805580832
Ni 8.451240140300877 5.824228078102685 1.3103125194458554 -0.6497694480304874 1.159184431368907 -1.3056002717637065
Ni 4.157542013660546 8.678998398358857 7.385706547761991 1.579670612785402 0.4355734147669208 0.8613136454935036
Ni 3.290601058723724 7.286416695429451 2.2362997219533525 -0.4543753779647723 -1.2236849250451378 0.8889830863843141
Ni 2.9007746246621244 4.3836374655351795 3.823196955468767 0.014652716916168314 0.3477375887988592 -0.5042123560915575
Ni 5.573495381278117 5.48953290683119 12.295895609565745 1.4136881631125846 -0.7530180090091935 -1.066911652675414
Ni 4.971938293203582 5.166893080388966 5.736384798780067 -0.68834036632515 -1.6746340509371802 -0.5699942875833732
Ni 2.6059498505424545 0.5610640623851678 1.8003322638662813 0.305192516347797 -0.2027736503592379 -0.3783314024253162
Ni 1.6259288373258618 8.681908309179716 3.6935904512889466 -0.06595676650678318 -1.0589309484627827 0.8467596589387287
Ni 0.14752785971145638 6.964211046157323 5.350726465551392 2.869418233787568 -0.47303361649590797 -1.7184081106993372
P 6.827897890371333 7.254278347030192 13.037750121797814 0.2442879675529406 0.624313469851228 0.38864024055049196
P 1.6610509990430162 6.300834519310773 3.7535401568859075 -0.5309888528544532 0.6978079394959531 -1.0967122809766143
P 3.2985917662159223 9.262477088095551 13.26097353788132 -2.0001133425584716 -0.41420960437916404 1.3605897406257084
P 6.8872877845532345 4.311000548759276 10.63543305915539 -1.1973468013712412 1.3836281105024106 1.0374642939485745
P 7.705998122360844 8.170697023733737 5.28785668754023 -1.8500655618380395 0.5035677805290231 -1.0063506032629055
P 6.17352823035125 1.0427088063287995 3.790098798389232 -0.6002687701971985 0.9307881953455583 -0.091899454514474
P 1.1496641951665727 6.814438398098347 13.08797887769068 -0.6953972731719313 0.2560944732695654 0.15048898202290856
P 4.725418038710162 1.6438317172332382 10.76921782576148 -1.2858747683103209 0.6312899011690611 -1.3604110489559988
