# total energy = -340894.652300516 ev
CRYSTAL
PRIMVEC
9.04280048380911 0.00000000000000 0.00000000000000

0.00000000000000 9.04280048380911 0.00000000000000

0.00000000000000 0.00000000000000 13.23505256834025

PRIMCOORD
 96 1
Ni 6.3971120266799915 2.0451197099823117 11.355251384268428 1.1992360479741542 0.36754022534708314 0.5029954529653208
Ni 4.522069304252275 0.3191303687520196 6.068787842889331 0.33944835220687347 -0.2822539052737526 -0.6044614681223074
Ni 2.678242328370628 1.6066704958940452 4.6644029805660425 0.5323769914512314 -0.7841985483770559 0.6380107648326625
Ni 3.532253429053505 4.049863316740928 5.012432330433915 -0.4731899395681141 1.171119492243596 -0.45798700657543057
Ni 5.080145723166134 4.65765705156159 2.8304480297435908 0.6911413261090549 1.0041224852633355 -0.6462899741223193
Ni 7.145982488576327 6.095742621946261 2.718546089192131 0.810401946245301 -0.2952837418745172 -0.9253266580103546
Ni 5.011673639490922 4.623619951330014 11.427302608292113 0.5038439170085453 1.310654546358162 0.243175194104736
Ni 5.6396961185246655 7.745818559155813 12.453297823107388 0.09817088934548254 0.21924439432075146 0.13282396064297772
Ni 1.7381799402797578 6.50851932605646 0.41059648496412204 0.6531206238909075 -0.45244165127716923 -0.7754403425684516
Ni 3.028008800171149 1.7829146732355523 0.4311634299074532 -0.030805672526946947 -0.9462389826829898 0.057778087350732754
Ni 0.7000185419757593 8.885790132905417 4.503187033000002 -0.8129349970798 0.8324319294621471 -0.005026506680313924
Ni 8.596529037738657 2.4779352594998367 1.5870412893391346 -0.17439998431255127 -1.2009517451136802 -0.4469559455722496
Ni 6.767875880716889 0.6344537185886584 4.633445858107812 0.49933754449775936 -0.35208686690649044 0.9940604730416427
Ni 0.5901304330453337 7.43592179376364 2.462262278064829 0.34401154609752366 -0.6972926904224314 0.23362997361846213
Ni 7.657877326490541 3.7276140861743836 3.68941639353671 0.058537848334892735 0.5279158703560843 0.2176847631431154
Ni 7.718274189521015 3.933057465600843 12.736686523776168 -0.21256261142520164 -1.0072543460240977 -0.9199980467085898
Ni 8.069912520978267 8.783145306994516 6.927345663550008 -0.8737410726235791 0.20894995437327885 -0.4676307003127817
Ni 6.980544457562326 0.5657429049862105 0.18993135983633042 -1.4530085579787622 0.6409104549779607 1.4133521199294048
Ni 1.7535617435459407 6.432686402958159 9.037105118451384 0.2113667913448876 0.5938518109272611 0.5377261715782868
Ni 0.02748016575285306 4.765763728838026 1.4095329285193132 0.4400021399622358 1.1788988790786987 0.52921453456285
Ni 6.2282558171623945 2.0725284376129998 6.9481377742201635 0.3997191240724729 -0.4792988806793294 0.04967525573794025
Ni 3.3657935616085353 4.444364521497244 0.2385183257088762 -0.3097770503946859 1.084246544409436 0.12158798271784221
Ni 5.9928717260285085 5.750976818697297 4.856350884863489 -0.5510318875482574 -0.1728066716835024 0.3421392687754753
Ni 5.32674288663986 3.013205736122506 9.229993473977332 0.02680452178735384 -1.0534275021460502 -0.25304977290597064
P 0.18629344128607445 5.493211796885103 12.31550724965131 0.7414909822062004 0.29685982811238554 0.4951641298463601
P 3.8516903487348153 6.385238829920145 12.441610908033185 -0.031246616719107483 -1.2701298467712383 0.7857448098182531
P 2.2039022399946013 8.431452718735619 1.2027448846921003 0.9686181217091383 1.1579659855807736 1.0930715989002338
P 6.384795732706716 7.8327922121917615 5.8784676426412155 -1.001251077252811 -0.2850250402609866 -0.27308560851092323
P 4.915069404163096 1.1852579175221152 12.704538464521843 0.045479215378721675 -0.9919390558232658 0.3758852548776688
P 3.9062546055885177 6.124010415602985 8.269949210120863 0.2861329286131846 0.12009108645734155 -1.1746460173396156
P 4.77049311338136 0.9693429753782893 3.786985495653778 -1.1222078541445577 -0.48298687105387783 0.1077374499879951
P 0.18112276808936464 5.538959323471594 3.5524206822247226 0.14934844066056213 0.48335479591625785 -0.7612545379863729
Ni 1.6148994441434434 1.2736422474008167 2.4542286543013505 -0.4641792514290715 -0.4071295576039311 -0.1303418176510723
Ni 1.71250743030169 6.447019241392551 4.938884522964871 1.2825387619585527 0.7597828385368528 -1.3678502788428637
Ni 5.926696513622909 5.45913852545243 9.185735296595983 0.26710882210219805 0.710022479284274 0.1522692138517829
Ni 8.63827964660401 2.354320179753382 10.071279546114546 -0.4482276131958216 -0.2805883446458716 1.1892316284632745
Ni 2.2481757901364188 5.08859169862211 6.927134062023595 -0.3912501673695133 -0.5181595623002689 0.7910541378463086
Ni 0.2213080682272776 9.095971939675486 9.345998133013136 1.385562351410646 -0.34326155530537655 -0.12072332072470177
Ni 1.773817616159844 1.2175497573007978 11.510445731131968 -1.8629802130171786 0.4860986772099821 0.963417037124173
Ni 4.088023933897478 6.779215552260566 1.6798457399917983 -0.5804663907592907 -0.4568243537258972 -1.3045625745278113
Ni 5.644118047858684 7.6760171838403135 8.033954729968478 -0.05937602796547193 0.6544735383743762 0.16927114772641816
Ni 5.528370204350664 2.9465874265034766 4.602278038403195 -0.01748941503401504 -0.14832334183015744 1.080378062592965
Ni 0.8242376807805214 7.423768270195298 6.954795083781929 0.37071785174411637 -0.5970116967124814 0.2706883119233403
Ni 4.957127468237768 4.484170928303673 7.0717528539666175 0.018956486497844774 0.18232772380006018 -0.09343491732239391
Ni 8.012771066046456 7.0493420820474055 8.83213377319923 0.35390180862804216 0.9329042132472966 1.5733644680617163
Ni 4.947596356748905 0.2836717403173599 10.549210530479405 -1.3316612305168163 -0.09409980459990246 -0.28848985888113543
Ni 8.16408424303237 7.1072160038014145 4.822244155069803 0.1367862877248354 0.5912650240366915 -0.41406819370529335
Ni 7.2184695755732236 6.049633383348809 6.937549559379262 -0.24673025844584603 -0.9688847451069638 -0.5232140940050408
Ni 2.414825556387144 5.293465381631304 2.613591732091235 -0.4848092689745973 -0.08585684786481988 0.4370764816750085
Ni 2.219672883672569 5.2120982647652765 11.28313324352271 -0.1485639970860538 0.2521352315115012 1.373947392879537
Ni 1.114425662975372 3.404361104777418 3.725759407838173 -0.2798249841172858 0.24927950723026102 -0.3402235398100012
Ni 3.877579885919461 2.81337793566624 2.774596078130862 -1.3302118996647996 -1.3514078170161241 -0.48442103239724316
Ni 1.0822513796002522 3.150366930679509 8.408281447313357 0.6680972998053978 0.4014715879872054 -1.2449692883452108
Ni 3.520434489095303 2.4931452495608117 7.095470310525433 -0.3156149972327016 0.44804532198168645 -0.07343713404422836
Ni 3.8605703786039465 6.820016667097142 6.163299574233738 0.7824368284909428 0.023848267372507316 -0.7995241229905328
Ni 0.9756277215687638 7.403503354781121 11.340546886742771 -0.820259041545039 0.03677371718492376 0.28415780716468475
P 0.10623481761970374 5.447174900689844 7.9110404672432635 1.3626430236103113 0.07967874407856601 -0.14453559265295107
P 8.336874070669182 1.5962079759769532 7.848769935996004 0.926616580466372 0.5135462318979735 1.3681804084887725
P 1.8864728219741331 3.188165835825096 10.512668574571912 -0.682470023587302 0.7041274539560777 -0.01729606807628634
P 3.902094917462448 6.182662018180563 4.074967034581757 -0.3953492771395514 -0.6409647052546639 -1.1343920549155755
P 6.911276607462995 3.9694185655028544 10.479408250883877 0.6770426819241436 -0.25365706747266636 -0.7211504708766354
P 6.5811691834582895 7.783319051892357 10.394002619415453 -0.44754755640966154 -0.18105322796301074 -0.713535634643855
P 2.3672513841452933 8.565476061597522 5.778079899678723 0.47525787784073625 -0.025896151040471528 0.5059424514087867
P 6.894845839365022 3.9452290747697334 1.537833987367788 0.026567466075883277 0.8635903573428223 1.1357187441467989
Ni 5.208182732246606 3.174592592613726 0.5329953080737152 0.4175952330219453 -1.351819450632246 -0.476924981130514
Ni 1.5227713949512793 0.9140733801032103 7.317131047963398 -0.8238866109952971 0.4867193415131166 -0.9520692162115216
Ni 6.869390356593532 0.6069735528358052 9.226737161598642 -0.2049061233212084 0.5623393421412767 -0.69016404979745
Ni 2.840614850091721 1.63874530846615 9.42764557668766 1.159384977415487 -1.228093852746111 -1.6508608597769827
Ni 6.239061963489901 1.9608046402269392 2.573238235868224 0.9453262410607333 -0.0910183374611013 -1.3186727886769485
Ni 4.020284317044465 6.975796987418442 10.288744424225348 0.09755228192487715 0.4591625149407705 0.34840916094458707
Ni 8.209090259996387 7.062653084050827 0.3435052368907591 -0.6262999041536376 -0.07213152785892739 -0.08056834577237093
Ni 7.726231853762191 3.795263275024656 8.1250518999294 -0.6025115434847882 -0.2644122491066414 0.09695475755019431
Ni 3.256249079088524 8.53901682799561 12.36942675484547 0.004895894639720601 -0.2757634124534025 0.643120318145086
Ni 0.13546114810547855 4.810760703001768 10.059393689434318 -0.5949776970015883 -0.11524301433642088 0.48056874853068854
Ni 8.61399972786815 2.5364331344727566 5.820617232167919 -0.23755321993226833 -0.9948320611003447 0.0893923718219041
Ni 3.8929255179845472 2.712550712610427 11.512986758008982 -1.0157137896453605 -0.577115986229819 -0.3377591374299086
Ni 1.2110298983031977 3.3232743147198867 12.933425303658813 -0.5568338389420152 0.2551794176544637 -1.5636133022122232
Ni 3.2244003365232707 8.233749976343757 7.94326810314 -0.5221074912044233 1.076706527278649 1.6132862439573186
Ni 5.3930085270482 7.72908033584852 3.372449966890274 0.6641851092351851 0.7502594724274498 2.303451322196033
Ni 2.8814159649282973 8.381626889225526 3.4025733431632355 0.5695674844585997 -0.5164731757367814 0.49403335867602666
Ni 3.5049170438250097 4.481476173822002 9.47190375406901 -0.4902309542108008 -1.23592260476191 -0.6403548395848068
Ni 7.2731152176293925 5.940233585633182 11.365958059792918 0.10478222401441309 0.7221724843832467 0.05149096879044036
Ni 0.34228898025389753 0.1185520158730063 0.34558055955365685 1.3056920601465642 -0.22646199511511322 0.6042632360685722
Ni 4.505249695742516 0.10154702995762896 1.6417683165977697 0.05863066515901515 1.3144206982688138 -1.142839157241664
Ni 5.8695369730905504 5.562642417389366 0.3442928647946301 0.3245426387396346 0.5349776622988722 0.503403744147333
Ni 8.118228202842591 8.948673766011257 11.522344247732581 -0.029693670409690797 -0.5374983718381969 -0.9695555459217431
Ni 0.07456693105993165 4.938318443667714 5.621019118838614 -0.7970409515573629 -1.071672307288851 1.0151039239755033
Ni 7.916031188714519 9.038513986734083 2.473353272600968 -0.153125134094175 -0.09218201875189931 -0.15987942209887304
P 8.633568347661223 1.6766979412163967 3.677081109682859 -0.15283588498853032 -0.5871990814974338 0.011698005163218563
P 2.0652037693910077 3.3255983143903207 1.6451964421816674 -0.42323751890938727 0.12950903733713182 0.7949771270497986
P 4.766939292873654 1.0134899263162696 8.250083082198772 0.0018555651515000302 -0.2941182608115064 0.48219188595640833
P 8.66504633541524 1.7879967269895765 12.508368476776436 -0.5199181968625884 0.8151700570579058 -0.48950204646457635
P 6.344935069098642 7.74222856744701 1.449370985126702 0.19749131891437602 -0.40004128329858196 -1.085198881020376
P 1.6714621598577137 3.1933021463807645 5.8402708542835695 1.0537604600054369 -0.021387207426524456 1.581426162023928
P 6.852814903691173 3.9672663790376275 6.02433072390195 -0.00011030032561916486 1.069188621635049 -0.6145255372265288
P 2.3530089737136426 8.613710358259379 10.252533434807887 0.46606695537008763 -0.20321228055855323 -1.4801138988359863
