# total energy = -340886.81567965454 ev
CRYSTAL
PRIMVEC
9.13494887924964 0.00000000000000 0.00000000000000

0.00000000000000 9.13494887924964 0.00000000000000

0.00000000000000 0.00000000000000 13.36992105956770

PRIMCOORD
 96 1
Ni 6.335817980421886 2.7004553760724894 11.88710369678832 1.428554795811772 -2.3675352971601358 0.4580183740339983
Ni 4.736361476733733 0.4623270807167681 6.272739330059406 0.5428429239795619 0.44708218673746875 -1.9047115313176937
Ni 2.9469437070014726 1.8473424818258273 5.19555161593766 -1.1791680735796854 -0.09470967026975946 0.8349822066878265
Ni 3.820025599929184 4.551899450033628 5.302845246819818 -0.2651951500192529 0.9231029108861587 -0.9413798548184756
Ni 3.426071786059588 3.1680277445489367 3.133067380938578 0.7195342754294511 0.147188714005082 -0.5670781423778427
Ni 5.0510513374672525 5.217645403773884 2.6806955677252904 -0.13168084817747 -1.4693276068537597 0.21678307726445245
Ni 5.267905893592335 3.2016078173538487 0.8695758994721825 1.2766910449285238 -0.8450020528176738 0.19168293976271503
Ni 5.595877970282965 8.27910483239733 12.902188373108944 0.8492263753116664 0.581586877516979 -0.34374955068538865
Ni 2.509416186037363 5.797175708130909 11.354459432060917 -0.899243844880374 -0.4118092224677875 1.832141116149135
Ni 1.1531959714069882 7.911779395085492 11.476419223685264 -0.5249747854498894 -0.1657011709869727 0.9187739444935016
Ni 0.5841754259623828 0.516333813151458 4.98053592506166 -0.177900541266642 1.2508046640800652 -0.12052945954634083
Ni 8.71969256130204 2.274090762879763 1.4401146734532888 0.17046362537262255 2.003670978002743 -0.34701176637642817
Ni 1.3802725355485832 1.639357961253946 2.735432182591186 1.072397872600966 -0.7299917233173492 -0.08061154030548053
Ni 1.7963146562849572 6.762219133410919 0.4478280895426777 1.0727714538903008 0.1730568400210955 -0.7861358746090849
Ni 7.705018957689852 4.1689715196992685 4.220844328029707 0.7852946096547121 0.32708674531772697 -0.9794887458750551
Ni 8.187609182447929 3.9913058951120184 12.840098124236532 -1.0438264887211763 0.09711905104220048 -0.01290745209028745
Ni 7.808125127915379 0.2093282715810225 7.039250166576904 0.5696294480447868 0.2107669529773596 0.5566937138197251
Ni 7.0850573687206015 0.8051142178195323 0.8186366829373536 -0.5297315834085845 0.5289162865961408 -1.539336946163362
Ni 2.2751412820235513 7.276562441158625 9.559814644467128 0.006541657773259701 -0.4347501475346771 -1.8852588219097208
Ni -0.020115157866272087 5.424789509030735 1.299272942087986 0.00421969450830241 -0.9154268823981396 1.0611302701069467
Ni 6.70601179174372 2.3515277262005574 7.333682364238559 0.6967622718402582 -0.5010956648394467 0.3136725287943501
Ni 3.5565097239217582 4.548154120912297 0.5377351718476897 -0.8073603312055 1.81255239538393 -0.5215544469144308
Ni 6.222444127434465 6.014240368084749 4.871076397753483 -0.23256527979937366 -0.6042033293649142 1.6088953139784743
Ni 5.490752976311549 3.192153145059756 9.30602657573118 0.8869999945160142 0.7260329957799173 1.3918443277646158
P 0.1747990775670707 6.006366041980876 12.550278162363561 0.7365094698312089 0.47871961113709166 -0.2325403400987092
P 3.9917261027695337 6.5040928773585795 12.900744137659963 0.239456093381936 -0.8599501894870739 0.1940388415894013
P 2.6163773047731396 0.10579549923362559 1.3895627787593 -0.23844564983955066 -1.1131565425755667 1.372295973319043
P 6.524884021456507 7.959756147634839 5.919746627848467 0.019171430722128274 0.265951054348671 0.5322985728048122
P 4.728386666190022 1.5045535177332476 12.93247072929727 0.46095663072671583 -0.8959623459156247 0.38385978844271307
P 4.1889953280747765 6.5777845115580424 8.59199236767807 -1.4096828986079333 0.3336404872758447 -1.6095763992058991
P 4.668059462489357 1.541157258682454 4.080553434093713 1.8641161263938346 -0.8932349196821326 -1.0296252575201301
P 0.3988099527986195 5.800117161733515 3.7773233669765607 -1.1410548116477315 -0.6354897981830218 -0.860380592156273
Ni 0.7521141567730636 7.577668632615509 2.4426177844109653 0.08669117084065715 0.4498227255970834 0.07044025619943352
Ni 1.7341421928708574 7.06887023895719 4.852425572224161 1.8068946828775203 -0.0787372061009031 1.1721448481843166
Ni 6.050889783779338 5.927193438335563 9.384414487250828 1.754877923490597 0.12306765258716225 0.9506497101561758
Ni 9.061293982014684 2.368710565413299 10.601344998363986 -0.6162880284435902 1.3110831492551485 0.359572119539942
Ni 2.488688986582971 5.869707203797666 7.123320016422086 -0.749398152868419 -0.4753756343655232 1.1118504221696337
Ni 0.8665924251038244 0.22454892373214988 9.319623947431428 0.24491763071713948 -0.08491273878399569 1.0040502372645028
Ni 1.785206558208033 1.443258009430484 11.659868184532794 -0.07939797961335358 0.5705365332400884 0.9365294687047097
Ni 4.27612447236565 7.29985656130349 1.7392659858078203 -0.8568530386189889 0.6495336778705975 -0.45602808307684684
Ni 5.576027725939909 8.282722272231592 8.038049969179001 1.2723862469055829 -0.8027362021699272 0.9956740973856658
Ni 6.943694031763036 0.8061802663767503 4.797930120013882 -0.1601362753046855 0.8690992029761935 0.8515840769105656
Ni 0.46385261721252985 7.788128724387101 7.261605789035806 2.5318200474155557 1.0006088156831219 -0.6500959781319706
Ni 5.439889579854054 5.065484557007992 7.315125628684723 0.35930009682547803 0.9326483884827487 -0.8729147200675418
Ni 8.554514412102252 7.48591720409197 9.615192532758186 -0.6711319728666635 -0.1477103908365069 0.5259371493631587
Ni 5.111670859538361 0.7128046439074224 10.826481299321749 -1.5232667800743767 -0.7867565389122192 0.30382211836283163
Ni 8.654870962655778 7.689535219005323 4.590388644472207 -2.282551338818572 -1.2259135572653403 1.0749502067091745
Ni 7.664660752670238 6.625377596246179 7.338870101819055 -1.8696920778197155 -1.164333579670014 -0.37160411100381163
Ni 2.3957591496285726 5.491419827594127 2.7157518483009513 -0.683869732148306 0.532260006257393 0.31829614360929054
Ni 3.6976538221014903 4.691499741819445 9.692096928547826 0.5628936719828499 0.5850331841943667 -1.2317587031922077
Ni 1.2525842173584143 3.3927018170834335 4.388957536367748 0.33628075311216926 1.2825665298726945 -0.6813834753913427
Ni 0.7778911560768995 0.16512607999005183 0.28713337334959615 -0.502327994584651 0.02113909597146037 0.23271080423830245
Ni 1.3868222940363746 3.8674907953302506 8.41644605127655 -1.1293902308256099 0.37151129417968926 0.5150420997172097
Ni 5.6499477338662825 3.024901362419622 5.44634433487145 -0.4985153057067801 0.23580461267227776 -1.4001194232892147
Ni 4.141703696706162 7.042077433316055 5.918356288599037 0.454318813695224 0.8072718852567518 0.7967172496693569
Ni 7.904507975620664 7.527243713713683 0.31516670507530725 0.9925628054501939 0.04552935189036675 0.8594660507618036
P 0.381929480400307 5.9516751018603635 8.396764803491408 0.7392623499859978 -0.5205103219206326 0.09839560376177892
P 8.788277758967784 1.8699697506881143 8.558287146070812 -0.5126751421469299 0.192710609696281 -2.396843559205949
P 2.0550803587726456 3.5890849523282644 10.515790719293884 -0.6932221198974836 0.10139479559941893 1.144988085263867
P 3.854957645197406 6.656536907545841 3.842662917235455 0.1871084330181552 -0.5838157668474977 0.5048137371209822
P 7.098896816571374 4.1257084008733536 10.575461120155953 0.477766503195203 1.5552045093232376 -0.14107308802564733
P 6.410012036820553 8.09345526231729 10.281696687271788 1.4152796759694206 -0.16398727361965953 0.6255100612624905
P 2.2437535969969797 8.913307806976714 6.1030887097918045 1.0412494720226197 -0.31702010511034434 0.16662419702187434
P 7.159753847318471 4.255050144846354 1.5196252702144295 -0.7778201556545379 0.19303482580491915 0.6491742376486497
Ni 2.8902887528295285 2.1368746928028908 0.7179686306203213 0.1422848489455614 -0.5033176121914299 -0.8420820509574014
Ni 1.5004336556997835 1.422905342888225 7.411228033453362 -0.6639796780925984 1.2348237152707764 -1.3740345532767047
Ni 7.005090024505639 1.1790022025478688 9.613348186539659 0.3766822968576674 -0.9389321646089313 -0.6903550827623336
Ni 3.0610209510677784 2.1769497144011356 9.22491188191222 -0.4824348552051497 -1.1451734618017957 0.9555124375651156
Ni 6.517146719588781 2.4157646881059276 2.8881036730104492 -0.20522931098858205 0.16849878833676787 -0.15912608887261626
Ni 4.487799512364404 7.075045464532848 10.803257518284772 0.14655056620045084 0.9186736714702114 0.3999150421333629
Ni 7.375795392975752 6.201671253234691 11.585705186960986 -0.6711887942465279 0.7409456512256916 -0.43083127209624517
Ni 7.958659953745669 4.0704602288591785 8.523512221926705 0.25901036136477973 0.4034474807666536 -0.03864676583792054
Ni 3.290682705797999 8.55072340823554 12.717870678604248 -0.9577562392939698 1.1629233295860488 0.0068687020953752675
Ni 0.1531821340726355 4.948685098116913 10.582920719571757 0.3962748742776143 0.055657184352988026 -0.6949439876845968
Ni 8.959046497002339 3.0419654472943702 6.105668419410985 -0.6308209319524426 -1.739024244287792 1.607948890904805
Ni 4.01998963521197 2.8883338737271753 11.341877866697965 -1.2234167589854157 -0.06810518030835366 0.9918660364934853
Ni 1.409550047338502 3.83130726203856 12.58196547371984 0.41717845719950086 -0.09976034531978947 0.8066082835308238
Ni 3.3451452721916026 0.09359942872170013 8.115074032801541 -1.4884794971918622 -1.991484720349196 0.6010406153662164
Ni 5.504464534875251 8.166507450081404 4.032622356289749 -0.5458714263932406 0.5540269656208394 -1.4396133676187788
Ni 2.836255529042517 8.715453944930582 3.5882993467076925 0.6976909543021146 0.9326913259055423 -0.5096720936545481
Ni 4.068322650775297 3.3562351003703736 7.423782193969083 -0.5226901031807708 -1.271086554257553 -0.40588797188734616
Ni 5.340821057120302 4.753790959571539 11.86897356335635 -0.8180180680296621 1.1689289123501803 -0.4939382278590591
Ni 8.168973886332036 0.0916966188290823 2.9297371169211313 0.0925820824037954 0.013578510015383065 -1.3272672152141787
Ni 4.912528969672452 0.5635158251311562 1.8853329080448338 -1.5222434810161847 1.5392464433320847 0.26679334774430824
Ni 6.009426249921478 6.045710267653009 0.3707729670932779 0.1547099620827916 -0.9719803533131519 1.2612690539464988
Ni 8.163017899534212 8.837222816119231 11.777229442792072 -1.1462013888456775 1.2130415863986788 -0.8283245921619928
Ni 0.20431866550751493 5.370372617382514 5.910293782544191 -0.027107654850069444 0.2144562289034887 0.47539543185986516
Ni 7.140533914461687 6.402183385462062 2.798565642648125 1.4538048286278125 -0.1952403180966702 -1.147817584292862
P 8.567495174739841 2.1148594655287236 3.717760758513594 0.06835329176341777 0.02460931390824794 1.1389822453894192
P 1.7556732678439742 3.7855228972675534 1.6411173524460638 -0.4203524840521083 -1.2714688772976361 -0.35297184061460496
P 4.947808143005577 1.4256915023565324 8.286102203389866 1.274691755110308 -0.2876082276071305 -0.06998979892557623
P 8.564261402766789 1.773596037931906 12.659791585871291 0.06551942185904845 -0.9337529344008372 -0.0018031146470097977
P 6.372969818315678 8.182155617849308 1.8011159855195225 0.8196769437893239 -1.2439146218284511 -0.002030400166467471
P 2.2241865360752926 3.6716648919790815 6.480748514993794 -1.4709188626002796 -0.3132315846021896 -1.7341386340607166
P 7.213631776971183 4.401209330069039 6.333558907515289 0.3090959651672612 0.523630355606853 -0.11963420142558107
P 2.816715872968059 0.0548763795867649 10.522302110995556 0.6442189505259034 -0.7430806952908235 -1.021447349695028
