# total energy = -340870.17238502257 ev
CRYSTAL
PRIMVEC
9.27071702173257 0.00000000000000 0.00000000000000
0.00000000000000 9.27071702173257 0.00000000000000
0.00000000000000 0.00000000000000 13.56863145974109
PRIMCOORD
 96 1
Ni 1.683738332243714 9.219366396805489 0.8339501197478402 0.623465777138952 0.3866332374227922 -0.9664486248616453
Ni 2.684975757195515 2.696258219660018 0.5276595395231172 -1.2270258164929126 0.4275058072674379 1.276541149614221
Ni 2.6751395265670532 6.761699347224726 9.18733421578055 1.4562604892571565 1.128047086534154 -0.5047967678401177
Ni 3.3953907930664085 0.13665314828719471 2.7107279545939513 -1.4117017288101752 0.46597928075228784 -1.5740272984566956
Ni 2.445058874599888 5.6574735282563555 5.631619352972044 1.1790860553888403 0.28417194823207187 -0.23787486493774518
Ni 1.9288468163020536 0.43072585071243635 9.687514423347189 0.5107653267187268 0.9389509336620087 0.8519944249751069
Ni 1.0787962425179747 0.8643738313910283 7.241320812999021 0.0862923927403417 0.26629146840722523 0.49536801832705013
Ni 6.46784543371827 7.19981488637632 10.950495706758565 0.6474829659891559 0.3533328234984495 -0.4281472975061787
Ni 1.9241929164194072 7.799926932598357 11.509116659504937 0.5488667615761386 -1.1194770854769558 0.20640661912613487
Ni 5.62352416297697 4.427879804680362 12.349178035831741 0.09955568550815112 0.484586868551146 -0.16555307544488262
Ni 2.901020543779559 8.388191002625131 7.016081329395837 -0.8953023437341227 -0.9096298161003884 0.06400169966294139
Ni 0.7474506228055227 5.78101510163513 9.029232336878831 -0.9144043546708961 2.3271221834504114 0.6383550355459587
Ni 5.68775168964425 5.245631200792848 8.176280955777463 0.524442309985187 -0.12418531113137322 1.0802284243889784
Ni 5.133826355006564 8.573336489789135 3.7478189500759242 2.020434827724643 -0.026119579905187273 -0.4436487355758876
Ni 8.514597227525297 0.42326477775316584 5.57927225000917 -0.32809410353631885 0.6774748843655559 -0.7916503766694107
Ni 2.221180332237286 3.1820994094009816 9.697365487122687 3.681289565489544 -1.3826377215646832 -0.7829027123837679
Ni 6.804678390762472 1.8065197068368775 13.64922920783027 0.12251666517969867 1.0527595295447483 -1.968788821413577
Ni 8.26277674443302 8.435777592461035 7.7974173495341494 -0.44727939034993935 -0.2849970152365285 -0.8500187893059749
Ni 6.136510011794406 8.754115469294321 13.403704468583223 0.07185127761434723 -0.0039795534730383084 0.15839486713354656
Ni 7.395890548762714 2.940384007727201 8.533000527638924 -0.011943288404805238 0.0840691598367778 -0.1760804573387677
Ni 8.82265387931903 1.447817128630997 10.104179377740879 0.03816185578170202 0.6319347338419117 -0.8942808444481437
Ni 4.346492181035438 5.855125212515359 3.8823250003296113 -1.772467354437586 0.3245958605750732 -1.7985725361650702
Ni 7.202327250655597 3.9533488895545945 4.866267902908749 0.1198692002545226 2.46972070698165 0.49385466700631714
Ni 2.8820155741392703 3.738972832012137 2.649749814199317 0.3555195467371232 0.34220457479577193 0.8127959003987743
P 5.554401697787706 2.4846077528854846 6.489700221732913 0.07880328345214814 1.5274751617287694 0.5869594546828021
P 1.0893741304982525 1.7985747024555472 1.810272493037067 0.08387658420999748 0.9352110070036022 0.7863186800438523
P 3.890474887554381 1.3548503795808429 9.681761016440474 0.6104089439549939 0.6340672068038822 -0.10271222885926183
P 7.505220113137313 -0.36838955029228904 3.5470161491433916 -0.7300660281987105 0.8381498057825306 -0.6138475373228977
P 4.237959898314042 7.247735222020542 10.65668073026308 -0.41994393575977995 0.6872846713671261 -1.1001801849205568
P 9.089956459630468 2.506801849138583 13.426811730450744 -1.5281575325077748 -0.9292067097910514 0.4862814826447496
P 4.84569247382599 3.3388208785566316 14.060630249169447 -0.3848265232313566 -0.9745627693283474 0.16254462763586197
P 4.347308004122435 1.94189071497712 3.397409028135038 0.15562038971220293 0.3764750659428678 -0.1606936904700523
Ni 5.068671756649515 5.5690308890522795 5.978596328445711 0.41695271434194 0.17896703485794338 0.3719499243790046
Ni 4.8610355102916865 3.0786752916902196 8.762011338876095 -0.7271604245161413 0.12416474230608295 -0.4998458515927455
Ni 7.39098633952383 7.486613784323626 1.4494283792278178 -0.7377718814834004 -0.2018133433284976 0.5421207011015566
Ni 0.3928141810309743 7.589231349664288 1.875741368696948 1.3004387821674248 -0.5587112584703862 0.41273970470185695
Ni 8.950840081863555 8.165434217007151 10.404263213002592 -0.2591474011632763 -0.6311757441887 -0.5378732386791124
Ni 0.9470593554016311 0.4612469048830504 3.467653250068925 -0.5205918258908454 -0.9502087659640153 -0.16308275952751913
Ni 9.54624260390156 3.8637844936058974 9.961098841428509 -4.352353147012117 0.6014977575082932 2.108899031305323
Ni 2.714947984925785 1.611380386857151 4.755723874620552 -1.0349512977187336 -0.4740564013334675 0.32824065641651207
Ni 3.0109619754694057 2.453652829164058 7.093517773498961 0.18733031922097415 0.8631951787869327 0.0872969227454561
Ni 1.2086140912364938 3.6262779974036734 12.239298717945111 -1.563300398957495 -0.8212957103396693 0.2948605382941696
Ni 8.867320193332159 5.9028230509540345 11.459929943932492 0.04173903160999909 0.48398291641856 -0.3744328387018584
Ni 1.3789449727979701 4.494091264763749 7.396260450366934 0.8189097266059961 -1.172289087071665 -0.46020149772824614
Ni 0.5797859994238255 0.46394561057197137 11.877029694948684 1.3796148755779594 2.3210803481317055 0.9957594580106207
Ni 5.0180814545387555 5.44405235455436 1.2238115774468963 0.4130227831599145 0.3737831209330014 0.03075090802961155
Ni 4.822339537960678 9.318831918400933 11.347391784439598 -0.23985512859256758 -1.2077713391386748 0.2950142902632145
Ni 6.763609114905653 0.797709033251344 7.083300516406004 0.5073501303895906 0.880440853241258 0.5493172188499958
Ni 4.1330339244658525 0.971784357367802 0.1430786821689919 2.026091511789788 -0.14667140804903125 1.356820246280947
Ni 8.94089260263232 7.648230192001263 4.587310177313521 -0.9911738955224672 -1.3421821846527981 -2.033318625665846
Ni 6.618587290474903 6.299739524212242 3.453460709570233 -0.7642041075329999 0.7093516784694944 1.1890822473696039
Ni 7.623412482866114 3.1337248086287732 11.594802187503637 1.577476947568193 -0.3596903902853612 -0.3335366147081288
Ni 0.9357954343709235 5.788478028737781 -0.1652051021887369 0.6317555279515701 1.5059475720696387 0.5353041924003555
Ni 8.40973614869539 0.5709769642276291 1.5547891496985096 0.21572635386516398 -0.5134773263332512 0.10551884507012149
Ni 5.657186136032527 2.128834721219278 10.875583678866686 0.24332611786030353 0.05103794041342177 -0.03635025649425998
Ni 4.253692304889442 3.473598560815421 4.8484653452500925 0.4345678563205419 0.9388267493793185 1.1697850897028885
P 0.9160812548879604 8.333299087873838 8.562905079135842 0.9966017514062578 -2.3375616336161804 -0.22026512227578193
P 0.45186401231088635 2.690195170808921 8.297299040016682 -0.6550481799309236 -1.30722315207911 -0.7276787589134565
P 1.639767321997914 3.47421042813067 5.483124717991415 0.3545003614439895 -0.8993554307575737 -0.9902657818859011
P 3.549451566472418 4.861499046136571 7.747579829635484 0.24209713054920887 0.00983215559907339 0.07221174627755951
P 7.172271586473248 6.677873525035706 12.997324447515842 0.31392346846289165 -0.2391437043478398 -1.1463708245440063
P 2.8351799123720807 0.3948194370959473 12.291796006521727 -2.063781570141394 0.021279992424698836 -0.8337645322306414
P 6.438123515344238 7.294635778806015 8.21025627906416 -0.5178451163836436 0.8115689699702088 -0.3752571343753666
P 7.460516716256595 0.6465054947932062 11.714857971328875 -0.6217804190167291 -0.07170266785162491 -0.2902315241625905
Ni 8.84311435151226 2.6938107503990247 6.231502412486708 0.19707711419509286 0.04671488755803568 0.27454188134147556
Ni 7.770297721393302 5.995261369141021 9.239952950748526 -0.6406281478508515 -0.5191324677364996 0.8607456888051757
Ni 0.18842917508916984 5.124184809432953 4.987367569456669 0.8558130273902487 -0.906356030445123 0.42214942805153105
Ni 6.968631019098329 -0.014053479745226248 9.423509437036264 -1.2823256175064819 0.7300747699494587 1.5498902961991758
Ni 6.4503701323661025 8.008323377741798 5.721104947827112 0.417786523097145 -0.018640497919322735 0.7366184846052475
Ni 8.179293938769215 4.5873083231701415 -0.24714618763245433 -1.122512786979486 0.09921681411149365 0.9326622724398196
Ni 7.7120776192757345 2.7840240965305614 2.1243996102554177 -0.021245025421705345 1.4156671412158264 -0.4273024330073802
Ni 3.0070775450892686 6.7884360947576985 0.8655984930932147 -1.385656453786349 0.7076899744963553 0.6999895205283042
Ni 4.718590945158497 8.460113224317503 8.886367808270176 -0.6760420085737712 0.7484039072759497 -0.1471457765822885
Ni 5.711234415546128 3.889696147334974 2.900036920716713 -0.5982093165650084 -0.5838214232744526 -0.32192319883891657
Ni 3.1392130730322125 4.922602341209324 13.03150372657429 0.7444364379877695 -0.0232132048916697 0.07699168416470613
Ni 1.9416033227532914 7.651975561627934 3.8418898415085945 1.5776564105688506 -1.3809929868724087 -0.29831352983977655
Ni 8.273604941769536 4.87485814918616 7.1468290310191955 -0.878575775008061 0.16962133197698528 0.46502180193502496
Ni 4.5640759066245 0.6389137047256782 6.496321367741252 -0.7093179970180816 -1.223139594064629 -0.8529555033367956
Ni 9.007168957733992 8.211936132966024 13.221572891482662 -1.3297645277147356 -1.6486407121972122 0.20356426458133328
Ni 3.8578605055082655 5.113282446361256 10.575105838136821 1.8830101350848603 -1.0934683201180202 -0.5591236634174565
Ni 4.757731911900594 6.812966411669017 12.586927424816686 0.2081781092042608 -0.17607120136738708 1.7851930295343708
Ni 6.675880320902699 1.8639239858674475 4.638314880469607 -0.8044156467548792 -2.130862165839975 -0.7547015673592035
Ni 9.184248921196994 2.519233880498401 3.815024231010744 0.7848690920815192 1.0476620604171827 0.8849377126703469
Ni 3.301496972326484 2.8097966895061726 11.95526712899177 1.9389059178112154 -1.6109313705718966 -2.0678752805947935
Ni 0.4121927605622406 6.953899849947881 6.724803748115252 1.1496363826691556 -0.932033380606569 0.7074678311832203
Ni 8.732514698922676 5.66447291951412 2.9510416238727992 2.4601736867231634 0.1429034563661668 0.13955870826365
Ni 5.860103587489425 1.277198854845692 2.0932323871170335 -0.09576279412462217 -1.217408862228439 0.5296184548694879
Ni 0.5630384493481271 4.060861393417244 1.4755884881697527 1.1543345594757732 -0.5920947190268383 0.5921762229970511
P 4.680905480969338 7.85336334479671 1.6082487386891073 1.0949685588126303 0.639229467731112 -0.42145214487419036
P 1.9081082226018946 5.274954478340279 11.164920899100581 -2.0263576209669814 1.4438212350525392 -0.4632215155014926
P 6.411701972185788 4.195787407146397 10.187803098301531 -0.3039771558834571 0.7052224867924693 -0.9665589251872644
P 1.1928816846610937 8.738327438417535 5.561347318887464 1.53200313150611 0.9912160616143122 0.27976096364856984
P 1.9357905832584321 5.7840280846268834 2.681894170898719 -0.40887019444412165 -0.225285972529141 -0.7564869413944004
P 7.6645559244581145 6.211426675044734 5.533586157137297 -0.8974227325112352 -1.4429717425680504 0.3435929705028663
P 4.286751681346646 7.578004511501169 5.375484278235578 -1.1673983346382668 -0.5109003096346943 1.3998666838484601
P 7.285569017680063 5.075828750094541 1.7038400276930008 -1.6461853086781844 -1.1813535112667786 -0.8103039872148561
