# total energy = -340872.7260716277 ev
CRYSTAL
PRIMVEC
9.24142244311241 0.00000000000000 0.00000000000000
0.00000000000000 9.24142244311241 0.00000000000000
0.00000000000000 0.00000000000000 13.52575588279066
PRIMCOORD
 96 1
Ni 5.977351863840801 1.0257424130722725 10.691040900672128 0.8925366080635274 -1.0458093234791601 0.7718281997371611
Ni 4.44955994960122 6.248790916012619 12.287905052544238 1.898104310413821 0.7013342074816566 -0.3604033571919858
Ni 0.2701313909338258 4.452064375011085 8.17809120299114 0.8749443489030608 0.09431654859639886 -0.4337119360781498
Ni 8.918360540174172 2.506430798477598 6.265995671678841 0.6772704816642336 0.16519234967135424 0.4397368021159911
Ni 4.3808222514514865 2.708503735791672 10.431265447429428 -0.6841443259659314 -0.8516977196702945 0.7589009501525317
Ni 3.1056168881434085 4.738040184266734 11.41339758925021 -0.16557647248365034 -0.5281876359602322 -0.4525236694680142
Ni 1.7091825487223693 8.592166061605853 9.117210993575258 -0.5401527787419085 -0.9492492302642234 0.4032317652114217
Ni 2.680317398152967 7.7043795987862325 11.43758146694422 -0.5031959990119012 -0.9387645286828155 -0.8238112776726715
Ni 8.931631222419805 3.2335458953344234 3.961855908078685 -0.2977707699624291 -0.20978813400385807 -0.392713125068285
Ni 4.801778273018914 1.1400865296636489 3.779095694829322 0.2060376658224903 2.499303819955405 -0.4539673438930762
Ni 2.044221068313718 2.4856653228467227 7.447172336766417 0.7509510991778358 0.5090347171808653 -0.38341061672043647
Ni 4.8887585385453045 2.9373121074627213 8.011102400828404 -0.4012813263532702 2.042540915595063 0.5609671443840984
Ni 6.470834566650379 0.46132532606157717 0.17788259062454123 1.2808413196514716 0.032457606308073136 -0.23530016223203348
Ni 1.1068543755165068 1.8400041210546674 0.34751998438309806 -2.5017499675030526 -1.4033042487750993 0.8811075402909794
Ni 1.857498133235018 1.9530267142747864 2.897013961919332 -0.8778011016255657 1.0720574585424119 0.5270753767326599
Ni 9.056870975757422 8.707083146372181 0.45507535224352597 0.1959388868255916 0.8580141488066256 -0.9614331739249248
Ni 2.184746133931472 3.4707547197640234 5.2376998536591675 -0.8888840989126047 -0.5941636857407252 -1.6608197707619075
Ni 2.644479162952017 0.16636223373916098 7.195850936530892 -0.897430702931035 -0.29695135938492734 -2.158513351898341
Ni 4.307343703725143 1.7075745412636367 6.245057381453264 -1.3002955717213414 0.8867446839720986 -0.513796914456199
Ni 5.328456164286927 5.386686365421839 7.3587818302158725 -0.42011491412000546 -1.0625862858271828 -0.5995702014682772
Ni 5.504181806975444 5.229822465395813 0.6860397477083814 -0.19188554269182437 -0.06884154425374596 -0.19328036615682198
Ni 2.182213984255077 2.5171970553133662 11.870486647386022 2.5844489864651816 -0.7904144473797806 -1.1953521395387154
Ni 3.839062359191221 6.489298928159275 5.47402242570203 -1.7719600757838645 0.36220467206678264 1.4852273088031518
Ni 6.508918467440249 7.322108170450155 8.346567874124313 0.5304612624857574 -0.11060243024061597 1.1859740407579253
P 1.109534387947728 6.678738841357903 12.661243722204391 -0.052657478294715766 -0.267220665089714 0.5822448228159521
P 8.458655235420157 5.5068895436731955 2.5531212357405586 0.5162536035268077 -0.1920359522267596 -1.7254382780732413
P 1.9040379353164993 9.09769957893375 1.4643116611661293 -1.6421304218825201 -0.12306713836652997 -0.15670462391531723
P 9.137502384248473 6.680522435837991 8.776240405088734 -0.72599031546744 0.8925124396938112 -0.6493611568484752
P 5.607288354200045 9.152658316618137 7.157477779226894 -1.3332733121989424 -1.524243285055033 -1.1866083319078145
P 8.13059398957216 1.0914674075924269 4.437678253108734 0.33303910624642 0.3593090956865425 -0.6011773980543968
P 5.558308816663935 7.49406331289061 0.4746228084315223 1.098750651562882 -0.4846210642231911 -0.8465987078808322
P 6.502698990315381 6.087195407832161 10.771844199615664 -0.6506289678173052 1.2558568817919922 0.29251877753487043
Ni 2.8983040644551883 4.049138368110252 8.89172306489227 -0.6625797124212782 1.1028885849906556 0.39481037391694584
Ni 3.1307905221525343 6.522697427905596 3.1017807737978917 -0.32030340384730643 -0.5053986630901748 -0.8525739516276606
Ni 4.910623743415199 8.392893275211296 2.5995686236002746 0.4016705913718889 -1.376110976189759 -0.8561326155131965
Ni 7.673568697249366 5.5167316582913 12.64518859945694 0.014847606535793785 -0.14542647989833665 0.7206881865282362
Ni 7.732593660691468 8.771514341787608 6.914839619268526 0.019734502314449884 -0.3363519726697369 0.03469086651396606
Ni 4.3892596698987445 1.715817889845186 12.817411743140516 0.07461958438810375 -1.1193611287243819 0.18454967115204343
Ni 4.275433072949259 7.5476081129819725 7.645879548123763 -1.3988261583990875 -0.04233681309499805 -0.038875336908958856
Ni 2.6136959856816806 9.071851321105731 3.586732719796227 1.270902463271205 -1.1855179270571132 0.6736097449831947
Ni 2.845581750937545 3.1344224010679476 0.7665759695510118 2.30338575906542 -0.6662484195221171 -1.299871082589413
Ni 4.8530312004104745 7.830561977185865 10.10960943129205 0.45122603370251324 -0.3045037178108885 0.18622037398624702
Ni -0.0033934502232565588 7.441969416080977 10.908116362747736 -0.16681085911138369 0.06842039755592731 0.5332966750520235
Ni 2.406170609283398 0.2853326062721557 12.899689048921223 0.5508683653871996 -0.187613911899664 -0.5856119395159721
Ni 1.3439245786134582 5.660260186116457 10.112666493748078 0.02696624417619872 1.35164384428633 0.21357125519537415
Ni 9.201508474243774 2.4594196838651086 11.720148115558912 -3.870914851392282 2.27021132919598 1.6974461637356895
Ni 3.696818389048615 1.0220273613572695 1.7013236433033678 0.49814223863807755 0.3869623386274368 -1.4952607817797539
Ni 0.933189569973377 4.439837973471411 12.495809327251761 -0.2937480219562812 1.9620952114434853 0.26784672870948706
Ni 7.204631211740904 7.605764382739471 1.6892857667760968 1.464936676874916 -0.8612969333229554 0.4760742030944446
Ni 7.006356498941423 3.6876601396715802 1.7386007679372186 0.986896608303352 1.061840408800094 -0.6574804435214999
Ni 0.6822119506428234 6.643778541263733 1.3614213632204615 0.20933202030304593 -0.627714268002661 -0.10535969378443791
Ni 6.616987658373698 1.5658296079185683 6.0025541462586745 0.4510738243953651 0.8543652392001285 -1.464243507462633
Ni 4.980858551957545 4.781844525383934 9.785397237780616 1.2860362335888496 1.9765679511383638 -0.16495503684956753
Ni 7.737038784758424 5.710866213955653 7.144764354738511 1.0135543201001964 0.451177696963081 -0.8009891375718334
Ni 6.4003594811314395 2.993213470209123 3.8607103906399645 1.3891930061846978 -0.670223087899149 1.5153773500239707
Ni 6.2493916084541 7.1102023599401525 5.7217054780266166 -0.6516167856518713 0.07523510648491559 1.1392810075767605
P 6.727764586004897 2.9163063548552532 9.828233077853708 -2.0307881459345087 0.8188217948778802 0.8176843388393272
P 0.5956484732565983 1.0407412412649342 7.821903688748585 -0.8134582165731217 -1.8181640851437528 1.1878807708623347
P 8.062900572128385 0.6867910753313409 11.976934892869691 -1.1521547782156352 -1.5249755352353673 0.23996800002134802
P 1.0374328121257026 3.628635176229479 10.280574817417387 0.6278253396592284 -1.1452575368751694 -1.0883929624776416
P 4.384916201475731 3.717953521566556 12.8248510879927 0.48065950847228195 2.61523794682158 0.16646735972903587
P 5.878320783796092 1.4448963573152585 1.9042236879022494 0.19079256673796172 1.320315209376378 1.2271217186408285
P 3.1813965499917303 6.618475527344134 9.333758770444577 0.42889857384990643 -0.4010679247908835 0.1259619434158218
P 0.36162331876684484 4.837413196931979 5.873857176884782 -0.8319375063242317 -0.6674678937515149 0.6702228307888329
Ni 6.509094054461605 1.2600309480940597 8.318839911025568 1.4235951378136515 0.43486096208092845 1.908254768584262
Ni 6.988409657074418 8.450541266749081 3.972162866232275 0.6575344366878869 0.9079521712876492 0.11552069347783976
Ni 0.6913443240377638 0.7122456485746358 10.813854780688382 0.3998191399854469 -2.5050584630509958 -0.9004129254878107
Ni 7.172313958389248 7.851419867038507 12.104496091458076 -0.7585613074249259 0.48513554196576447 -0.2528818798695387
Ni 0.40517906562749434 0.16728452767238813 5.884068948389952 1.4338867495476466 -0.09114534995726883 -1.8938272803050222
Ni 8.675976519325662 7.171454506126821 5.363800907543646 1.1767571501453478 -0.6882403504121759 -0.8459785577983302
Ni 8.1972338848878 1.6969191814939886 2.0558745016784417 0.1055674389198698 -1.3999962674477888 0.312490592671107
Ni 0.4188332668934572 8.564756003429984 3.0156082085697378 -1.6187665503455992 -0.044856494193058226 0.3872554443878234
Ni 8.64778094026478 2.320345521529085 9.1321303455372 1.7682672003133098 -0.6994120507582793 0.7495411062041865
Ni 8.182207332428607 8.941926166724565 9.320381811843914 0.24644872264968523 0.2982659644312928 0.08455355567236406
Ni 7.175890388771601 5.482335084949903 4.1580605423106025 -0.6437970324971365 -0.04742579758213123 0.29237479575783837
Ni 1.0575698710485677 5.1440343433302065 3.82218937058114 0.048694636992225815 1.4682276889213617 -0.675669712836017
Ni 6.586361585280363 2.9050040955332417 12.365272390722504 0.403012450111764 0.18163301172588073 -0.12191039905426745
Ni 0.7785362181319995 3.8625725372085538 1.312302280209484 -1.6754503761908888 1.7598882322209948 2.499012513967232
Ni 4.6188812867213365 4.609085379214114 4.296848220559151 -0.19036267828939474 -0.5631564387259334 1.752272110436634
Ni 7.2447205011431 3.477131301065895 7.719337764721317 -1.0406802297827111 0.9318541747162274 -0.6653960988241509
Ni 3.5425882943429268 7.711966806393241 0.46692655204282935 -2.3499417524480886 0.5943968847974537 1.2035691281318692
Ni 1.309879179314773 7.263979624959187 7.069547495500746 0.26559547078146517 -0.6013332069059708 -0.2867165690307965
Ni 4.1006038482118745 0.8141156935120042 8.770614227267604 0.5567207104029186 -0.4555066633557381 1.6514887231689686
Ni 4.54264879518636 8.893990909894413 5.2745306176018865 -0.21699930704031659 -2.5704506153035602 0.8805478111327673
Ni 4.841451698423163 8.780986799518647 12.342955280308175 -0.6137572916019366 -0.7673567942293688 -0.9796054739585772
Ni 2.8912621007566006 5.495300800263708 0.6578848309050767 -0.36690464864561323 -0.3056177768106737 -0.24580774663157665
Ni 4.726155715347595 3.532635282658702 2.4263039716373926 -1.2902628700756873 -1.4878500911379797 -2.3900280789460133
Ni 8.10044847043201 4.606507022426835 10.50389840502661 0.24522282066238413 -0.6645741171434877 -0.8131856796380252
P 2.4212064031647658 1.2919138546034148 5.167853184848238 0.25382881716384026 -0.34466794873459994 -0.13922112241857312
P 6.4060244729257105 4.144583776350431 5.751597782199126 -0.18977929498209894 -0.5096965191345803 0.7781430862115952
P 3.3757621412104992 4.416669728074613 6.613377958871508 1.461278254186722 0.6622544678713755 1.457702878130638
P 8.376129335382899 3.5368401297490664 13.544421487784527 -0.5681991433561634 -0.2256101886377792 -0.6403347849801487
P 2.8148909878889747 0.5807716318366679 10.672172689014115 1.8692781302107484 0.3471881440532924 -0.1274809511635095
P 1.7305949239056084 7.2340836242178055 4.644271170009395 -0.7786948449500073 0.5296421090185718 0.6612082859950483
P 5.213326526810538 6.581851771258171 3.786265190153947 1.0140515714515892 1.4783508933982925 0.04434613021554298
P 2.5696975746987705 4.1351205600415675 2.593590347594216 1.0315199034396816 0.8722279784131622 1.232834966975522
