# total energy = -381161.47226898983 ev
CRYSTAL
PRIMVEC
9.30473872668146 0.00000000000000 0.00000000000000

0.00000000000000 9.30473872668146 0.00000000000000

0.00000000000000 0.00000000000000 13.61842566390295

PRIMCOORD
 96 1
Ni 3.185840198880379 6.266657811390393 0.7955160839730163 -0.5612754196531367 -0.3999376678411822 -1.0579248757957715
Ni 2.826891291782872 8.043025487829336 5.746254007824388 -0.9756079227634101 0.29280468420640543 -0.19523054790465733
Ni 4.83685443476102 5.845041488752494 12.501415256420179 0.765851413328436 0.23278716600219262 2.1768178066344834
Ni 1.8313493777645815 0.6767010833405099 4.282681873291645 0.3060355810743826 -0.2421009872039508 0.5595520092041266
Ni 6.449412185351616 5.044564118073295 4.623156221583592 2.3842886053590746 1.6741524833150716 -1.577741256973173
Ni 4.660734339534806 5.7951587842666665 10.18716761607849 0.7385946344950118 -0.7545005070919909 -1.1619910475797666
Ni 2.207633013169698 6.176532111772837 9.98590146435667 -1.6945750128354817 -0.5305396811321766 -3.940273444491763
Ni 4.15373773404633 0.07258998895275662 4.127418349993241 -0.21518462242908099 -0.16496197882810298 1.0107698153765237
Ni 5.87683578109125 8.137812861565042 13.24660200844695 -1.180061274817916 1.5038752629216423 -1.311189850036342
Ni 0.8098249112362703 8.853170482078909 11.940635399958195 0.26539878138962686 0.3596099147564129 0.14330711956248868
Ni 3.742784642025994 3.442325322766186 11.104042616260664 -2.220495450028092 0.5716243669876284 -0.8468689308230835
Ni 2.854582194329005 3.0690471179801557 6.649386839333717 0.9022008706261688 0.34819704493378095 1.5533720841001892
Ni 3.3317105884017937 8.69785578271733 12.761745098361116 -1.140133585385043 -2.8451832724996033 -0.23821939276135753
Ni 7.135618059334222 5.1185274864668475 7.130512549177279 0.8102263398993852 0.36713913325392256 -0.7432313619360749
Ni 6.2396647642511684 1.6706286251841518 0.38026606359387516 -0.10807195050927838 0.5415769127829447 1.3032826793741232
Ni 8.33739020320214 6.212504231814286 3.2175842456298374 -0.7268464928201482 3.128901421023708 -1.0524119163973424
Ni 8.645265399252699 1.6742760827775938 4.4103131138980975 -0.048362707574103804 0.023794788426752568 1.0163521945603076
Ni 3.5583368056106717 1.1221701037865452 11.012471890713867 -0.003745068864729034 -1.111441616766989 0.6681602918328493
Ni 8.70120548867049 0.6971957009306017 0.5273153635160276 -1.1116452481373629 -0.9538000828596992 -2.875264922376332
Ni 2.9101128752414116 6.500485896398568 11.90423340098609 -1.2986405526164213 0.453762941191754 3.442965528829522
Ni 0.2705259746728082 0.6921460192062111 2.49928074482494 0.8064918125576175 -0.5123498975970272 1.2723983310904408
Ni 5.057590752335589 0.9759554389310555 2.274195392354516 -1.5400496559596701 0.9521188385025345 -0.4070668226867957
Ni 5.443802543996326 2.335173067336314 9.737950646860417 1.253821596529518 1.7548979780952552 1.3228060941190314
Ni 1.6801194587181087 1.237493035962881 13.449257357665454 -0.6978184810189143 0.8422355458161301 -0.393954967895186
P 9.023958961996339 7.974924104853815 2.0831011810437965 -0.771996092773593 -0.5476632281863407 -2.060120319239723
Ni 3.4013751674887898 2.5973713008200128 4.434390986384195 0.05681649476841183 -2.2738826073999805 -0.23081230166400893
P 1.021976676831988 1.981099843348408 5.877412674894294 -0.8180723183063653 0.5823713210914874 -0.31750990026256926
Ni 8.384258172330123 4.1831593180015965 3.5272403686788243 -0.41151791647961383 -3.273042863562034 -0.01804477331685279
P 9.232943394518568 5.9077275137704035 11.14086611989854 0.028592466925712046 0.7763556552938693 -0.4489536927285688
P 0.6023413330758332 2.446532180801409 11.84517064124085 0.18632296100238235 0.4090964515223148 1.6367287912509747
P 3.317334767019476 4.477291414905433 3.4756130256757265 -0.3424827681578231 1.444676383963983 -0.5525917758362096
Ni 0.26734747591280855 0.5612981304108488 8.09258624835411 -1.3712431065744966 0.5429539956361294 -1.1921472594481728
Ni 2.708376834212274 0.6584619344255469 1.905176896972256 0.4620521777837397 0.19370279840622123 0.2739505276143798
Ni 3.9593896555916643 2.917956770015065 2.1466720867176665 0.6257180635082384 -0.13695135254778995 0.28750949724573716
Ni 4.8231950782631285 5.666837132044313 2.284817682121541 0.07281132753477138 -0.43927528909854024 0.14014646244631995
Ni 4.926896391729747 1.7016506242059284 6.275969993940181 -0.9187340923945015 -0.1766486711374119 0.08195699858978144
Ni 8.423328770378246 3.132440303143733 8.205741176399648 -0.0849703314948085 -1.1543674695962376 -1.3866008199774895
Ni 8.5594384889417 4.792535964052944 1.2760072106332288 0.8791383323797505 -0.6153724586078563 -1.3675867407688318
Ni 3.271555452326272 2.0005839663092964 8.99443874781023 -0.6079404278098433 1.060806825329257 -1.2582217824797426
Ni 8.10322714759865 3.779398789041798 10.362246511037595 -0.45700921604319356 -1.03751108802611 -0.15411655147316686
Ni 3.827923001668843 6.49886687185454 4.396599789915405 0.3150467834340574 -1.1337482506839895 0.4307834495774452
Ni 4.764900889939364 4.21809861204082 5.374797670887327 -2.725896427111112 -0.8674418698784286 1.2561931820854881
Ni 4.531296118661399 8.146345307006843 1.383768181620303 -0.4797503663944512 0.032999080633839946 0.6523024988649863
Ni 7.76888927451812 0.8200163915987634 10.519743171638108 0.6680638754643011 -2.418298900866248 -2.5559675911960364
Ni 4.5255923138022665 3.7917740915909772 0.14185539474700068 1.0258732466768654 0.2216000390371216 -0.8073973550910225
Ni 2.673549197038155 5.6282410756728884 7.02454739277065 -0.3501749945957582 0.20614050994894176 1.1062842409357658
Ni 5.0091968060511665 0.22716589205688728 9.326211304414965 0.2309642538608409 -1.2362370506785354 0.2433058061453294
Ni 7.066558288266546 0.3630374093081157 6.082669629069755 -0.380746439624712 0.15820769082340494 0.8888208497748369
Ni 1.436288779544244 8.900987534560285 9.713995596925935 1.8135749231111735 -0.8510677993957795 0.029285379227678595
Ni 4.860907184452469 8.745672835198707 7.233644412631859 -0.5464049302992073 -0.711448155987207 -1.2740896027499347
Ni 1.6061560903245558 4.543066613191258 11.636822652849723 0.061806491783835495 -0.8639809079130217 0.25048741149543313
Ni 8.6670943163808 4.282198957350064 12.479979929741575 0.5352085473627556 -0.3629564626311427 2.3959354455693833
Ni 7.806703732833808 8.41054405932368 12.151435187012261 0.7882362087815392 0.8740480623410366 0.47623721103487016
Ni 1.4995330888876806 5.635070753921834 2.4648122705669104 -0.29232157392239977 -1.021545565835789 0.4648477382510059
Ni 6.823462683454626 9.157379611058504 2.187050931035274 2.8218790505560243 -0.45937077429683465 -2.0876740604882755
Ni 6.85863459596282 2.911936604038133 6.275139080769022 0.5243294385564067 -0.6403193583611811 -0.419432029120368
P 6.07595719052917 7.66573694063827 5.5680431377990764 -0.9555548607672769 -0.49601053700705544 0.28193483137143704
Ni 0.7482173054405032 1.8908904010820233 9.905130749087192 0.24240463448729865 0.22958022902912073 -0.5592442481557207
P 6.784792189173132 5.078889299354439 9.214553508835712 -0.7617271067474172 -0.05290558974977985 0.2346681850749894
Ni 6.117549372780922 7.6761489433093475 10.91388818356458 -1.4008089931570713 0.7491839799750839 -0.6577462955883768
P 5.556352664022545 3.8007066407994077 11.838823878933487 2.375742001340644 0.7156377685885222 0.7357224551535393
P 3.4752920121885484 4.434982767769254 8.895146950041399 -0.4780832631046734 -0.5208527928617159 0.07616250339519141
P 6.56750792967807 4.479580380640093 2.0390320773344563 0.5900596908746806 -0.21220034298977647 0.5085474931318016
Ni 7.716094186800795 1.9409126766492315 12.15474488258876 0.9180218968188254 3.630763274605218 3.2167668146781248
Ni 7.824820059197155 8.62058923206441 4.151113797716353 -0.5416345054937575 0.10419035606668507 -0.8253223150005592
Ni 6.2902639336214206 7.154488069537031 8.621089827009632 0.8928037456819848 0.5347154097764211 -0.21137090510994566
Ni 1.4876044137989228 8.023355270093273 0.5707061517698525 0.9445289419704184 1.1762002492006132 1.4413295789789369
Ni 8.380415315222747 7.8901486300225585 9.851909504334715 0.6468160218291183 -0.8105865514522814 -0.2157620921991058
Ni 0.14714606920524376 8.927022193607355 5.7592183003369986 0.7732605613083134 0.30645312822777543 1.652519735536644
Ni 1.0487743244572783 2.8412391989489127 3.2673599456199383 1.3923487782048602 0.8324825801944242 -0.6514476070638586
Ni 0.7688514941119767 7.755825421300791 3.864609725646966 -0.2708294654868949 -0.6314531662198029 1.629269506759452
Ni 8.936996873556769 3.8061126940182595 5.639635658756892 0.33136351831620997 0.3913725518799905 1.87328468026698
Ni 2.565158295237112 7.663131613785811 2.722990856906816 2.1663413325831913 0.9353459899195699 -0.5008614373414535
Ni 1.901749031213521 4.393855822455441 5.1227481159678305 -0.7102351095157123 1.2613266466573114 -1.1153494364618275
Ni 9.046876533559217 5.281248757880415 8.81647352288815 -0.35633947153525725 1.1675806258524022 0.6225075269907409
Ni 7.656953267249981 2.233649062739251 2.016779794592831 -0.9480264136007157 1.2684861405202281 1.7291221546827318
Ni 9.190029939363068 6.99331138475742 13.207979898806999 -1.4110116447216858 -2.4536610824156257 -0.5981797488786537
Ni 2.376690811677996 0.8752511818186411 7.046173466593809 0.8163789897643423 -1.840573048966572 0.1397731382673012
Ni 0.6859304537153452 7.17953642627567 7.9432191380071435 0.4780081868923639 3.192061341511644 1.1172826489287984
Ni 5.2273464062507955 3.8937912473422562 7.672158140855705 -0.7558709050769562 -1.0131401153809132 1.4934826068334084
Ni 8.053967860609664 6.69714155006541 5.500427462186765 1.0925113555213892 -0.11851088645441524 1.1898990868439443
Ni 4.0367492536321725 1.2563816556432073 13.275363886424218 0.7078115876758843 3.079850172023012 2.2451543862273526
Ni 4.819817458093691 6.126063208745207 7.064721532835563 1.3783676334344197 1.4075720229125177 -0.9976967842426495
Ni 7.085307336865491 1.2007486226044535 8.528157818182429 -0.4348082544661221 -0.48252175849200124 -2.5546756118574905
Ni 6.772063306551118 6.5207609221539515 0.7961004215670678 0.6098240179858013 -1.069632651151003 0.9615177632189312
Ni 3.706952093065927 8.002261427327115 10.493677806953134 0.10213912996461119 0.9960638766249168 -0.990037725035495
Ni 5.710522880516792 7.67497654622574 3.4314210994147705 -0.2696128194709744 -1.1129189726434638 0.6191329540915531
Ni 1.432762283554666 3.7182573506578462 8.537255061266888 0.7441001376942733 0.103522383465383 0.021544301829679025
P 0.6586452377790949 5.802788670048868 6.5412974110684585 -2.180755965346625 -3.034668947500683 -2.6398398045306597
Ni 6.322048921221419 1.6456454016168238 4.20611876088889 -0.870679660089436 0.2769450914663295 -0.3403127570896977
P 2.771909590457233 7.904905945693986 7.883652061421178 1.0277853760979139 0.646667412066396 1.2011250374667508
Ni 2.321681196136081 3.70677530302951 0.8647172870698249 -2.359027259689124 0.3710914330334512 -0.5775317336109989
P 8.049715594996899 8.35420386613926 7.583256944858805 -0.35764379216897757 0.19546863205739237 0.6776409776297749
P 0.2291496623602594 2.650771196556659 1.1960180934194893 1.6904478780409853 0.7012146511846569 -0.3663678023055368
P 5.85362045788809 0.9382061137866797 12.158802679161465 -0.989443800205238 -2.3450198896664385 -2.4508048439137533
Ni 6.919803948563048 5.593841456481674 11.656718975737624 0.8834577856907108 0.10639019193148128 -0.5677602560465319
