# total energy = -340896.50480390963 ev
CRYSTAL
PRIMVEC
9.06022727257865 0.00000000000000 0.00000000000000
0.00000000000000 9.06022727257865 0.00000000000000
0.00000000000000 0.00000000000000 13.26055843523307
PRIMCOORD
 96 1
Ni 6.184719429547536 2.0143874802483834 11.267841176284925 0.32792158251419656 0.23081487276717025 0.7734179128217841
Ni 4.647751558103101 0.38868827432902797 5.943143875301847 -0.07895137899423821 0.2870508124417637 0.11800849289669998
Ni 2.6227636121033866 1.4117283517173884 4.793744434112196 0.39600876510042127 1.1766797599401928 0.7493667854098515
Ni 3.4644405927590447 4.498982628498956 4.905013989615331 -0.02870302436164734 -0.8324784664293663 0.04362210756532487
Ni 5.048041453282196 4.672676242959436 2.4749242618035887 -0.5550857459026569 -0.4508262271609333 0.20943152199538767
Ni 7.244158969462368 5.909043898422972 2.593314249814391 0.4724222081641541 0.42512265174724206 0.6274990666680612
Ni 5.221254875704368 4.497967883059512 11.745168370772069 -0.2080382411922869 -0.2868096429652351 -0.5221440008693137
Ni 5.624634308337484 7.708432188689238 12.480307046535996 -0.32658538020127625 0.4637197952941497 -0.18044824738916018
Ni 1.8364808601687854 6.365199154134294 0.5418994332988806 1.002294430915661 0.4595484375252796 -0.7542539382988236
Ni 2.6655731853299147 1.6730071819198455 0.3431098956891611 0.8548959148926181 -0.39769643721548925 0.20535786614664633
Ni 0.6404665503546941 9.04317579041598 4.871372460229634 -0.9436195427822716 -0.12152859023481652 -0.6779459104647033
Ni 8.749397925469912 2.3238667188244126 1.5171667450345774 -0.8860697693922611 0.057554658486017006 -0.5934206369271136
Ni 6.850501160548206 0.9429975007386758 4.578114652321283 -0.24059972006807595 -1.238351783028693 2.7143308337606995
Ni 0.8245622115921845 7.372270581192124 2.4182217362838214 -0.32124159939085967 -0.08653459065813483 1.0163804766950817
Ni 7.327050987546918 3.743015396567732 3.964960156673756 1.3838032026276943 -0.67338425923595 -0.6171220943091114
Ni 7.4800329227701825 3.6277693073737782 12.898823400648386 -0.020363651258016542 -0.3455110134611856 -1.46207735304925
Ni 8.076322711623241 8.92730454554951 6.877734391279275 -0.727180222010483 0.16513038608516722 -0.5359757645460833
Ni 6.9436855966614 0.4957176435316303 0.08107997265697303 -0.06878832241830733 0.6104439109579874 0.8414868405755638
Ni 1.9469340892067961 6.512599989440618 9.312173934139919 -0.3169504282146735 0.2396635814070518 -0.1807344111710113
Ni -0.07245735448984361 4.787641465112115 1.267998720447337 0.5843626404899033 0.4683884044144127 0.8737894093630113
Ni 6.400724304741959 2.238981450769526 7.059179030056218 0.008221616578843904 -0.7692923206891847 -0.21659615806462695
Ni 3.331400217466275 4.264866359255891 0.4574110031926335 -0.005916108374118843 -0.034363822191850496 0.08733780328572056
Ni 5.804633840885934 5.5620371990418045 4.657943407610513 0.2459113620889765 0.974563797769612 0.44578403675133554
Ni 5.335087569464811 2.878524763978869 9.109419641134659 0.0012552125633397736 0.9071152772086507 0.7231500178051675
P 0.31991118410259506 5.575129227256055 12.481672422765676 -0.9558333112396442 0.3711299995808705 -0.7599625586478267
P 4.061953512275719 6.066827754029317 12.670436819047323 -0.2867751901828739 0.6708226691563608 0.668861688775248
P 2.4174135640231214 8.516704111887497 1.3325265641460997 0.9606093924720489 -0.2462898284743178 0.8039402497803574
P 6.342856634012258 8.044349170053628 5.7543133393620955 0.613794315487459 -0.5991724518092262 -0.03991046304169255
P 4.786137467407225 0.9796279990571629 12.62550987073867 -0.08827548460864151 -0.4984260884270835 0.1936421203716149
P 3.9322291801154168 6.237495252625742 8.207145143312655 0.12772237775035422 1.0403971513246535 -0.5252779185126051
P 4.626523445919026 1.0789552691698454 3.6831735023446863 0.5175604952636892 0.32558676373343287 1.3671725360495488
P 0.13991708769042735 5.54819317197511 3.676224308129925 0.7862068370563363 -0.7442867997837826 -0.5260600480942682
Ni 1.487263465365973 1.1956238140244484 2.5765664199500025 0.5213639281701795 -0.7720362019829091 0.5389497595727428
Ni 1.9220547054861516 6.382857536826041 4.9245732079606075 -1.1303042579994471 0.9348513096713383 -1.2800311650453504
Ni 5.841980097148314 5.568379358038328 9.145501995711303 0.7257342335925759 0.9603885347104943 0.23207677019872935
Ni 8.287027353942 2.3929871916593717 10.26589964983257 0.9229054501633719 -0.32779765534182254 -0.1120065096769942
Ni 2.3144259621467316 5.301682512007413 6.987876854526457 -0.13798750712178817 -0.3039002798989347 1.2438385171748771
Ni 0.5709601118436611 0.044993993989472986 9.000736780479391 0.17413798890041624 -1.0901960771246517 1.0363826308486215
Ni 1.665351289988329 1.148501572680285 11.359498058102671 -1.198622582759871 0.42643982789676876 0.5511401309913476
Ni 4.159360014235168 6.870460840932978 1.6651419987414435 -0.12525309027425527 0.312824578971758 -0.646241637382887
Ni 5.637880360413078 7.84571275028254 7.933142130117745 -0.566004963918322 0.01574903530414062 0.03923117758648082
Ni 5.171251482130356 2.9208179042585374 5.085503680451942 -0.00397903925240605 -0.7942230224925935 -0.919514679314268
Ni 0.7652204419071497 7.361552332488001 6.975623803345175 0.3490637638094505 0.019679480706798366 0.114427460413661
Ni 4.975514335043391 4.637921211658491 7.081482591201562 -0.0174917290268602 -0.0322226074791316 -0.6321890159445629
Ni 8.112790125853246 7.21530214602819 9.042746335649644 0.033438482164103694 -0.029162223386253003 0.35695190830827556
Ni 4.590110393051848 0.2754834543092402 10.431948244634096 -0.035101728799139545 -0.19556916219099868 -0.22019981625548526
Ni 8.199596162061365 7.181869907889377 4.537351784405204 -0.7340445532304842 0.9452316244643978 0.5772964776717412
Ni 7.479190321646358 6.40707552396562 6.833006767967656 -0.5926408213382955 -1.1711428892823637 -0.20458679230857668
Ni 2.3111099190142643 5.221726007515538 2.658132020781566 -0.28970239113199786 -0.4189805434052462 -0.10082683891109087
Ni 2.3427482321797743 5.291371973524495 11.492647156121096 -0.015013185579380596 -0.6329842581523485 0.01244233952841083
Ni 1.0622482103275772 3.426777228546838 3.924886772042871 -0.08617386488460642 -0.11915237669315608 -0.05755697247886216
Ni 3.5660147992019233 2.7897617187089656 2.922587366618567 -0.2306680627766608 0.5021187067873224 -0.7150050201005299
Ni 1.2130919319462994 3.136768418090133 8.30580376866256 -0.8124007218428847 1.4462270162805544 -0.2220075588881854
Ni 3.7396178113910237 2.5380323679098447 7.113268586069419 -0.22593826140115925 0.6958965814058531 -0.2826555115875455
Ni 4.064898086095533 7.025707832940714 5.916529458084296 1.1526098634751825 -0.32831958928356364 0.6881956132171696
Ni 1.0187138189300182 7.543101163877031 11.626724927421153 -0.9481107457844059 -0.4872991252759866 -0.43032065100841377
P 0.2604471013511988 5.578082861303007 8.205818726059668 0.13698734799204793 -0.5522169089952941 -0.7708095286646596
P 8.491915330438232 1.604665888618745 8.123948701596271 0.10973982513000455 1.6490454038347988 -0.8030082248843913
P 1.9875782681473686 3.246995141449697 10.383149861269425 -0.9170659606634594 0.11649745556881227 0.5631721224552172
P 3.9119976929165095 6.278492780424691 3.8204857747329704 0.04733066676516365 0.2191793454107709 -1.0791729865412705
P 6.853382312778056 4.134226944154663 10.364651595521995 0.6323808202403948 -0.9345458626157775 0.35746612894053276
P 6.365833370033947 7.779708995583015 10.186761283851247 -0.7092755738159204 -0.6324589817764978 0.8884099874896635
P 2.419850765123214 8.425114275750571 5.857360738737596 -0.2731516858621683 0.785420593709615 -0.005235794477642595
P 6.926443984417996 3.8073430092467477 1.7098958967117623 -0.41729107151796524 0.24229381994104723 -0.09497655077790093
Ni 5.263493654621209 2.8271713965613112 0.4614446163144219 0.0806526779560611 -0.2716082526344483 0.2996003669720002
Ni 1.4746878700985824 1.1136468788808243 7.067877754131307 0.12051403292737307 -0.04634619136470728 -1.251488063300335
Ni 6.859253339963408 0.6064318071112123 9.083973087195181 -0.9921300887881493 0.1862432568043825 0.3283998077021957
Ni 2.6522818321186308 1.4487031386671154 9.176597601271252 1.0527189061148 0.35052954972169953 0.35118029593182104
Ni 6.492576887465883 1.7618427090068518 2.5699886950478943 -0.8430989222576899 1.1926205995401655 -2.026613188621213
Ni 4.171754404959801 6.844711675407096 10.548151093813813 0.20478733835515697 0.032570991957485834 -0.4954454085322048
Ni 8.259611106622746 7.335612902192223 0.3055162952259163 -0.009848096438673362 -0.6989541372852544 -0.014808011547109982
Ni 7.7611536504046175 3.8935238897823528 8.256540595645715 0.18232540980721504 0.514188750577979 -0.4976077062908463
Ni 3.0934514721438835 8.27809396998404 12.384552223983786 1.0590258221694342 0.5396768675467544 1.0003115961576772
Ni 0.13112141918496423 4.695906665340983 10.31407559559287 0.2790713937807129 0.14347681237113355 -0.030271397290031737
Ni 8.581348832516339 2.333343716410645 5.942493350993346 0.44146149811658164 0.20385994144488115 -0.28451184806999386
Ni 3.6984028381407645 2.674714954512045 11.555210742576362 0.07909407521968959 0.06566057542260305 -0.27972548242494405
Ni 0.815183970481755 3.4083849674569224 12.64748273359348 1.486677153875801 -0.37782875175728475 -0.7341610242036904
Ni 3.0801782393868757 8.420466379228834 7.960578309936703 0.6084788168118166 -0.6529946398360045 0.23424472438432561
Ni 5.720727077361939 7.9314134387798365 3.545303119964708 -0.41559028677677456 0.11982549150078074 0.36058410574422417
Ni 3.0493462864366374 8.424280734853886 3.615822491869757 0.41916951948760073 -0.7548092965816613 -0.42496787133693265
Ni 3.4759017800884746 4.483534941228854 9.28631604588838 0.11945576686618782 -1.134519324522059 0.4125008492181734
Ni 7.342054723687263 6.037372955604039 11.49246142146477 0.2808626813531809 0.2385310104645053 -0.49072100647334205
Ni 0.7114869528204685 9.191419226846127 0.3491956502576815 -1.1622011067080436 0.23307230134277923 -0.6967471023316064
Ni 4.537851002920502 0.3726398939996843 1.6742647414465845 0.044105732069962746 -0.542673231170917 -1.3369605312425425
Ni 6.200022153183431 5.628013773059916 0.4315812016452244 -0.5326353873189408 -0.04733529475085397 0.1282815926879339
Ni 8.10654762935524 8.82471559366719 11.087059746134477 -0.0269022237074827 0.46322460082528605 0.672714486862435
Ni 0.1391252238385758 4.772683030107459 5.87371082463063 -0.47917803883074894 0.07271028318053284 0.3858675629013612
Ni 8.139073844780263 9.00325642964644 2.4087537989247267 -0.24408767861667643 -0.4368031734089639 -0.0827481270325091
P 8.659583893852014 1.6713038592179221 3.6977731523546815 0.18526649471340997 0.08914708858031745 0.32951078137818735
P 1.7245598743344368 3.180565556074691 1.634059077499486 0.36110295436217166 1.0419218154992957 -0.1592505302656225
P 4.670601450944859 1.0332826641677444 8.260227202068121 1.0111822203235938 -1.303978162779251 -0.2894643069792628
P 8.59426871641497 1.6222699099476643 12.337596690818959 -0.22971624038635274 -0.4551544222226419 0.2272310120706538
P 6.421734971474725 7.654831884941484 1.4755821145170922 0.00920506353803576 0.4653473035952438 -0.6809052502033435
P 2.012720398455012 3.2911003271569426 6.087763220876838 -1.407124650962454 -0.7494544600276513 -0.6312798738667321
P 6.833821282387352 4.224285601905285 5.9917827986688925 0.8280597685363804 -0.34882979342177345 1.5718398038870736
P 2.434917922853524 8.505025479106758 10.172479647813791 -0.07418892460858836 -0.12973452308437658 0.6111247390750959
