# total energy = -340864.68736800906 ev
CRYSTAL
PRIMVEC
9.26723107908690 0.00000000000000 0.00000000000000

0.00000000000000 9.26723107908690 0.00000000000000

0.00000000000000 0.00000000000000 13.56352943031513

PRIMCOORD
 96 1
Ni 4.3474064351049355 7.629729987539891 -0.27517560313471484 -1.452598467024537 -0.41219591638324493 2.982358825243057
Ni 7.090710751590907 5.285176095447237 4.455659743008293 1.8843440234049356 0.6379991948684368 1.2277153863607695
Ni 5.989837821997831 5.003313258273239 9.788609342052954 -0.8301331061256413 0.625711121529703 0.9355606770335372
Ni 3.15954200616771 2.601979040572658 12.440252401389351 1.2689317126980793 -1.342374246058946 -0.32226335578715465
Ni 5.862292918889967 4.033497512415645 3.238156855223463 -3.205938099493737 -1.0864785190637483 -1.258270119219175
Ni 4.024295151826666 6.320483364247742 5.415117504545343 1.86795375497237 -2.2582572421578977 0.5908932425195694
Ni 1.3940603233025528 7.401617091368991 11.71292117385914 0.6463707067615836 1.9468380281740985 0.4707666748386021
Ni 8.130086334891475 7.939014561856674 11.918734331575601 -0.05604670648192283 -1.3185668592267032 -1.7688765517625342
Ni 7.347088702944471 -0.20410428028181013 0.030021195496470893 -0.413289663668056 0.7485743714155431 2.0225937830491745
Ni 1.967145901170051 6.542757904757961 2.2318921623039234 -0.7277265814322563 -0.5349429524061948 0.4933615294199826
Ni 0.674631263822917 8.695924937954763 7.097469343310487 -2.5876865195658723 0.4300180321663304 -0.9401323555646196
Ni 8.768774642476373 4.612708730111255 6.222255347064583 1.127153628185607 2.406853378033468 -0.3262938171027865
Ni 1.4060521204849679 5.094604752897637 11.788429647014164 1.135562935295225 -1.2166149055722337 0.06376618661336761
Ni 3.400591957104183 9.234731027585976 12.137134242717993 -0.02364900687750766 0.38206335866392266 0.017034586884783563
Ni 2.1057002749523432 0.936981945689669 5.69590904979176 1.164271358973511 -0.1584501458515142 -0.1965441245097583
Ni 4.378099504863945 2.7236392518638044 6.43901403156014 1.1243315853557796 -0.6509357004244467 -1.9957746059738017
Ni 1.4558171520688694 3.512419636084246 5.14433456900295 0.42361289997093504 -0.21257803804416936 -0.05216871158375532
Ni 2.264030920131292 3.2234117636493207 10.219101886777961 -0.21990053984751157 0.02641217144494161 -0.36613974545513067
Ni 2.8759183950643017 8.232201955566152 7.234786541726587 1.1248128958675723 0.12904135367209388 0.22560273243861148
Ni 8.069089419084168 3.450394057612914 0.7171159585702611 -0.05156681633369829 1.21230496534297 -2.8163702049226527
Ni 4.341910966998929 0.3221215429853159 4.8238422052639 1.2148254177719788 -2.4000101298593894 2.4443871133128674
Ni 5.697558616946683 1.1494517555824266 12.609009608399782 -0.7552399563611767 0.5800943521318527 -0.08964536837297464
Ni 8.571382617758106 5.335793712302221 12.81291000959503 -0.21322389915828438 -0.4697384906844039 0.09823748091735984
Ni 6.629832809182977 1.8422792278811333 1.1977571982511575 -1.4900201022061048 -0.38275832784841823 0.007027339160426607
P 3.9238476327693275 0.7516799508046145 0.5005592997150267 0.6058871448252404 0.32796503415762224 -0.2784054780619399
P 6.1394665370730035 8.14085485755451 3.9681598255107766 0.8225630070878672 0.09145028279219734 1.5880536946427748
P 2.6479815762863423 7.696871077637725 5.1488245425229495 -1.0468092254985841 4.335537103896043 -1.1268443244753044
P 9.379179360416195 4.840673350582835 3.761587681558428 -1.1717632964751818 -0.20260781420533494 0.1834834346710582
P 3.7026573583103777 2.174073906800765 4.259924699229913 -0.09920318726473884 2.3040820138014966 0.274432866567437
P 0.1381466156091655 2.126254993770424 9.951181598955543 0.8375558809522736 0.5635220495954681 0.5958354170161932
P 6.41353563280155 3.5532139878593547 6.512827528127323 0.6070310286216964 0.14037529062767437 -0.2468480149706329
P 0.3959266990444127 -0.08731677915953029 12.945724260367438 -0.14726738976181733 0.3582405452127121 -0.2656954866944392
Ni 8.31346630602411 4.151849322165739 10.116724930183237 0.13568765534401794 -0.2338793706251069 1.5393428597006327
Ni 8.612010159371481 9.142948369707586 9.826085098332682 -0.9747193495108698 1.3428511856953647 -0.29723315229140423
Ni 4.363503615712243 2.2260167377184126 2.056583949552962 -0.07954993181018558 1.3878246650822614 -0.11115058943460211
Ni 0.5593672955111388 3.973158570024065 8.327329157187304 1.2459668763717897 0.43766320741641396 0.29230100509710955
Ni 1.7965917780285012 0.6950571681272145 10.780049245209968 -1.6883588567224408 0.12390763198995433 0.8301408194351251
Ni 1.268396668129796 3.2276098193862865 13.39813566034426 -1.1470508813301665 0.5239975091382847 0.8641130626155117
Ni -0.15060084762883125 1.4379313958385285 1.03039841642993 0.5821450640132941 -1.1197876747388391 -0.6342883216757528
Ni 2.4933392891279507 8.511655312626216 1.1310414740657453 -0.5843269021559614 0.023186979639424583 -1.1430726134087086
Ni 6.284443102082045 6.489248911766257 13.484888065123258 1.675837070106346 -1.5802815068965235 -2.422489027688196
Ni 6.3329663246841505 3.744851061997809 12.079476310314725 0.20579829611817463 0.2600729983013392 0.7290740965990863
Ni 7.4851519134727695 5.444183248504328 1.8856424561469416 -2.7168546286238175 0.5773517563897088 0.6686703987000484
Ni 2.8029945526930313 4.044571853708524 1.5696530400515825 -1.6423085993315973 -1.2657191192980524 0.3211426119191501
Ni 0.38553349924527947 1.5698226303826783 3.9735579876891056 0.7437448112373836 -0.3944691885274432 -1.3017407888083
Ni 2.5666986913659704 2.818118674023558 7.612612484776647 -1.5584602972563741 -0.2655569042340459 0.4762842622227217
Ni 8.193010834789927 2.7828105231232483 5.294211645874481 -1.4627288705903196 -1.9499732313689706 0.24795410355061814
Ni 1.2286124445562974 8.064984035659275 9.27124206509701 1.8794131617622214 -0.7701613535576994 0.19308676208877715
Ni 6.1432290329432195 0.1836218458671474 8.71919310207038 -1.213143916304498 1.4327444084130871 0.34366984648738874
Ni 4.024767780618245 4.640325079109396 7.982869880099598 0.8143848421524491 0.6606256740187009 -0.40354286869393724
Ni 7.550050333618405 4.9643816199708235 8.073663724408156 -0.9142670577620835 1.4706535247540349 -0.5479313942460627
Ni 5.314136192970456 7.459972846282181 11.396308073103521 0.9997901764365684 -0.32588192637634844 -2.418233080625319
Ni 4.174211151069269 1.1388871120059558 10.280029298351213 0.7520867554441757 0.3304492340320567 -1.0513006856110347
Ni 8.911545606458047 7.250839239624098 0.6890325411192639 0.7246358583220746 0.7917496212514364 0.28290747969735147
Ni 8.062315073071536 7.03552438975066 5.819025143105595 -0.5027113460659988 -0.2276714420421821 1.024832721227493
Ni 1.4032348821979088 1.076110887806822 8.565193034034664 0.027020751563217982 0.4684763361425287 -0.7414914964268327
P 4.583285271027663 3.320059717911613 10.707307967293485 -0.10103047028146471 0.4471901730702428 0.14447208640486733
P 7.615337977474751 9.07130340524294 7.258970308285497 0.6064466168731363 -1.1506062027815924 1.726039659102666
P 4.022302697117069 0.7902446067512154 7.739322410352722 0.8533869344472593 0.8321264824065863 0.06426652328855384
P 2.1403875213617556 6.213687791813314 0.016265844215281898 0.4621719911910557 -0.2870832083415959 -0.19601704836169467
P 1.4963242196765476 2.368148262746773 2.0309897104042807 0.18633016009123393 0.17617584526605146 0.4054069184858695
P 6.385381784393377 9.39975261369669 10.864075230567739 0.7721950961582765 -1.1566140995385692 -0.09547740167371944
P 5.934744132469658 6.153432254502601 6.966988581356108 -0.4346822704112191 -0.5811775578937023 0.16629072494185554
P 0.43254894332993626 1.752155404388872 6.600135966778767 -0.36778242326487626 1.0831335138509153 0.0921730198908348
Ni 8.859148681211234 2.0434800846256556 12.204871215782465 0.2192999301490352 -0.5407014521565269 0.14498759258870514
Ni 2.9437359930402773 0.5435360844394854 3.0930950316873127 -3.267873917766585 0.009281939522558206 -1.2458025828797834
Ni 4.083577629860598 7.5960621365632965 3.0945462800943964 -1.1010350767216843 -2.4832567937948715 0.8461317955467428
Ni 0.2766101705256251 5.037629815434354 1.533669307996251 2.9160043090772234 -0.9099553177606071 0.08978189395083892
Ni 5.710199120313618 3.0365936497387307 8.57801054151766 -0.20169455836244618 -1.4375783394666208 0.3444491478555745
Ni 5.4957646574048855 8.207124827918845 6.59864394255437 -0.08428950337769998 -0.3194773084015852 0.21511828796751986
Ni 5.184978791632498 0.11698396642387734 2.5388617822650907 2.1900463895096154 0.9485650597130051 -2.7332639232197766
Ni 7.786383263870295 0.48522388551297085 2.7124481434577117 0.7185485144774141 -0.9263450719725401 0.25255869220216504
Ni 7.339137418568495 2.0588729556611973 10.414159495955078 -2.260719330545145 -0.8141326169323269 -0.13861022830745162
Ni 8.212138400002065 7.428464260176917 3.240910149615191 -1.1672440684485896 -1.2417808633149001 -0.2473943743924062
Ni 4.157585738283138 5.649906514078076 1.1751293998119747 1.9815970289218392 2.416474703173316 0.8855630049591717
Ni 2.011656412659339 5.908647609389533 8.435118176807169 -0.3689741295801323 1.218932755072133 1.8007407474609827
Ni 6.262285152265079 1.2136551333875045 6.449811282639917 -1.2663187005552643 2.2124296423008216 1.1577998923165544
Ni 6.297129941605018 1.5078526552985911 4.164505579825726 -0.7589518579951252 1.8093997086875613 -1.0690618662491975
Ni 6.925772570561061 7.350665854190539 9.358415202172825 0.30353184081592244 -1.2566690932806421 0.17051324766363538
Ni 7.788802011215434 0.09978583874912796 5.2397138393129445 0.058743279477479475 -0.08249847291554825 -1.7091233429633017
Ni 3.9781165387200406 4.83138758491299 12.57645753206056 0.06379292608624498 0.07012683872407277 0.7717397537884129
Ni 3.681880225943319 5.381360688149156 10.435616843092763 -0.7981920344426705 0.3254821198347685 -0.9761488828685445
Ni 8.076966565610483 2.545615740369066 8.072714759932515 -0.17997027931147713 -1.4005559966060008 -0.9568206148535779
Ni 7.868296320512774 3.107367494469877 2.891215813618407 1.4583132580211273 -0.3859423820033546 1.5542264616806847
Ni 0.45596816331423373 8.457488346218785 4.755617775837918 2.7966231042027125 -0.3875274671022874 -1.3075900485002254
Ni 4.277355434407969 6.937180532177408 8.673619639161599 2.3619344060335905 -0.45165592215108025 -0.8652476904405874
Ni 1.2450432454870715 6.145629245825945 5.207269262855731 -0.4235254824634513 -1.2124952269769054 -0.3281272707670994
Ni 0.04654930235492307 6.246187971657773 10.119695077785217 -0.9639158311374626 0.21564407856400283 -0.5143646140342109
P 5.662157793734298 4.023711316260598 1.0070283127710318 0.5332467956506945 -0.6476590865557039 -0.6805591797178344
P 7.305274955736544 5.950331615360556 11.25884167226498 -0.7267127954557613 -0.04228539103177234 -0.9647144157793579
P 3.4319430002789204 5.309465508441911 3.341538379681074 1.1152910724200664 -0.009395582282287044 0.5417208945599766
P 9.266749311407647 6.733208773301864 7.669972939058158 0.11781051795328099 -1.60232871650455 1.3656627842732416
P 0.7455255825597599 8.490322146386712 2.5351048467335984 -0.15203755745695105 0.7623922511352418 0.15100705930990768
P 6.021642959501732 7.189416031181249 1.7527466537399061 -0.4293384896008025 1.1337341096166023 1.5020173837772972
P 3.3404198248743375 8.003162336274508 10.105765502557327 -1.6280132657548476 0.8348675354868331 2.1224366607804415
P 2.2357473304862143 4.85717828936327 6.746716689509814 0.3018122870216544 -1.4669817323294025 -1.3986646931205589
