# total energy = -340870.7776562694 ev
CRYSTAL
PRIMVEC
9.22206874962251 0.00000000000000 0.00000000000000
0.00000000000000 9.22206874962251 0.00000000000000
0.00000000000000 0.00000000000000 13.49742979607016
PRIMCOORD
 96 1
Ni 0.7451680407347091 2.1723781405768654 11.406340421006165 0.8193843522495695 0.35658218367368266 1.2915911019688078
Ni 8.910233551667279 8.042169458433792 11.35723659465264 -0.7003625875970068 2.1448903617982675 -1.1066457380402424
Ni 6.82941210793859 4.735790433022828 13.258390009505934 -0.3284980238429568 -0.2582017494205553 1.2192376879070614
Ni 7.1419849003411 5.172934927784843 5.417584418485512 0.9057109406619563 0.04984443432595286 -0.402646582131913
Ni 1.42527069882008 6.753071824245076 11.167557088128335 0.39501554794921645 -3.7509865157650495 2.364797586513998
Ni 5.493245035724785 3.3250537142825958 1.6964244146155971 -0.7089531574794952 0.22735648190492458 -1.3237473749863784
Ni 0.4663895186384191 6.931509629172089 9.163810004752015 -1.012876063086249 0.3190057680818054 -0.390479864862392
Ni 8.495590904237007 5.2789333840270825 7.556495672190697 0.14194983420364585 -0.37035995418406537 -0.5152135922980675
Ni 3.3594889183550265 0.32754850956727094 0.24435438450615346 0.4920870335829331 0.3808909356223763 -1.278397228986353
Ni 1.8545118808102492 1.411834144901084 3.8945754702490296 -1.8599211144758807 0.8248831705806118 -2.117001605807799
Ni 5.960435029915824 5.764539849169553 1.921993445427176 -0.378424990580387 1.1227891805693244 -0.31996787488475864
Ni 2.2916471535036855 8.349319674512095 10.041062044910344 -0.5035721514043973 0.16174398611143756 -0.560020721310429
Ni 0.23396295763180558 4.457081076440878 9.679438914152065 2.092629604721338 0.12081922287261773 -0.7076979449161553
Ni 4.9077451237390965 5.791855616299318 8.918926273509452 -0.7653389924683917 -0.24146412495090028 0.4477015654890225
Ni 9.046996828687671 2.8285283199430817 3.273436874241406 0.9640415580820495 -0.23568042838958764 1.0779956784037175
Ni 7.0219043453793635 6.941165134973866 8.392108228303007 0.554248337603026 -1.3204085404211325 -0.37464186938887084
Ni 0.8413772711807814 3.29774716922141 7.7765978607488915 -0.3234805160237074 -0.08346469348355948 -1.42794724413476
Ni 8.354862137727823 2.224243054262819 9.14862494663052 1.1557381246915193 0.007294219668568083 -1.0670268380970398
Ni 9.023904768966899 5.6412223481367345 3.1164486786213215 -1.1770065471519924 -0.35727329620343634 -0.8968169806064361
Ni 5.389847202821707 6.833635815347582 13.196004559985532 -2.1552380235811786 -1.0388616885167334 -0.007150495001852201
Ni 4.271237950445263 9.229261792074796 9.506212500178812 0.13083058436203274 0.8092166676879482 0.14544242073793662
Ni 6.058917500266517 5.23520233482744 11.15987694941609 -0.4640735790891427 -0.21922639659862245 -0.14290885568280548
Ni 2.6217234320683462 3.842716089804223 9.434972942616112 -0.6503566879925251 1.3160983430815527 1.2394887248466135
Ni 3.9940410131101998 4.005430267804751 11.337867484017043 -1.0604098470011545 0.3203077747226806 -1.0948788273123014
P 8.907651372465276 3.387118235816463 5.57792114720648 1.2987122863946212 0.40637905259115176 -0.5004685727784091
P 1.9976476072184437 8.995546908087755 5.235342510269834 -1.0336786016538972 -2.486831141409691 2.155469422865694
P 2.6343023336095346 6.1555740010386515 9.052023778269858 0.6922983225316336 0.1890997524165711 1.8412711034748612
P 7.491095528451957 7.041999232812097 0.9633289838571119 0.024410053413248284 -0.33485353374733945 -0.18545727056797737
P 2.8046062740502355 2.4114787126137998 7.937001910570483 0.40701977149894414 -1.6800012287863648 -1.5963347037046443
P 7.044535301671207 4.228170890183278 2.923448305201868 0.9908429945456098 0.5180924565077593 0.9875296139016604
P 8.635664903877112 0.34156236497928644 2.827509281365148 2.1901854861906407 -0.11234743795618071 -0.8291362894300108
P 6.208416453993935 4.878068507053214 7.346394817005977 -0.5737894929597473 -0.5704889678316046 -0.10568570966528897
Ni 5.1840198542163005 4.9676240150198385 4.100694236221518 -1.094473621454083 0.31171489084734705 0.2142929638527471
Ni 5.398764943137196 0.6682338558247342 4.051630986969738 0.5581042210140065 -1.0059605669133385 0.177676598181294
Ni 3.138528155212166 1.9072713351483255 11.522620561506669 0.4328447029818481 -1.4899553104064405 0.11544767414805923
Ni 6.82960577137874 2.645488702795356 4.310444652800253 0.29900824191395603 0.2242829851859234 1.2113999370301975
Ni 0.49729267044525244 5.548439116167606 5.343592073452104 -0.10515786218627696 -0.3045651671764432 -0.11183527420645255
Ni 0.9228155143845367 2.2391459170858097 0.6505265619469959 -1.3199526838306364 -1.8773285113190508 -0.25314413239198985
Ni 5.821808895042557 1.2571431665639243 13.440578429723855 0.948910873088198 -0.16718803994514433 2.965280786714848
Ni 0.6621260798051383 7.89465324945077 3.7993105796254047 -1.9180383303335868 1.2224374257912818 0.484464741150985
Ni 0.9900997267338818 7.621670797456121 0.037348455536405326 0.13342714144461537 -0.5106252015964368 -0.06662936709377557
Ni 3.6351273261003088 7.453644707954329 1.4643897915235735 -0.9622808666372007 -0.6516270700645165 -0.19219381796086255
Ni 5.69334547974289 0.42589264888928535 11.49891892305285 -0.6008040738753782 -0.14160710615224645 -2.1625623251567334
Ni 3.4037087371893344 5.026949582185867 2.069169360079648 0.28318207351497676 -0.8017111033395224 -0.03297491226412386
Ni 1.6635505067535206 5.610669634935888 7.326485293151673 0.9000611985753466 -0.4454695908347102 -0.48295987447068434
Ni 3.6769770733099207 6.4701018719798205 11.19950602251198 1.8767101610087613 -0.40071799765063243 -1.3283941297297703
Ni 2.5634030703773845 3.2352492104643495 5.0754521296680695 -1.670772768209561 1.935701037720673 1.4376732131732726
Ni 0.5295330221959803 7.7995091679255255 7.102428681586981 -0.09861157642732694 0.601871338797628 -1.5700264048274184
Ni 1.797547163200339 1.301676535729904 9.56310436344695 0.2770530777991035 0.8572536164915172 -1.5959477526788708
Ni 2.925839587584295 3.0661902492817568 0.26044781638263953 2.3272509957187917 0.8935066852862805 -0.14815699145562225
Ni 8.743175779366238 5.874411574214797 12.355074559130811 0.2704664257205213 -0.5898809992049712 1.1981788103542335
Ni 6.505957274613353 9.058690411645316 9.004662000670827 0.806440904715024 2.226359622118353 -0.2995556297769938
Ni 6.669151000179966 7.330557758635975 3.8720754673310016 1.176785946500754 0.12840551986030788 0.744297341306744
Ni 0.9066649056828634 1.386169128046886 6.338041849934505 0.559710389158862 0.16827073148636182 -0.501146315571724
Ni 5.9276597981875385 2.8578544980229768 11.899023901575841 0.12297072199798177 0.5866013000124349 -0.30818708019974667
Ni 4.83167228003436 1.2006579965201003 7.60213015634496 0.2028430701445926 -1.2321037452364523 -1.1586198171146886
P 8.25213751583098 7.370314096278249 5.529303323867046 0.2626091344596316 -1.405652694402618 -0.09411214589507663
P -0.010634889484822494 0.15312875991994762 9.218798433065535 -0.257929212485459 -1.155941241841261 0.5991151162087294
P 1.3890740796491399 4.378112503202467 12.221598949558683 -0.7357841616294103 -0.7998689079244612 -0.46229977501817154
P 4.654433344022564 7.136792875731357 3.371347576340227 -0.36974134676346 -0.8343725981282855 -0.006780513256943161
P 4.751772277869513 1.2032862860649969 1.8135280858401661 -0.7164214408320823 0.7531455357259933 1.1932932001271577
P 6.410250646904814 1.1650977000810825 6.011337159642174 -1.2591815752898508 0.5912727373461751 0.2279995148055622
P 6.129807541430089 2.1256591411577612 9.909407793882487 -0.5968453463379463 -0.5215266790002889 -1.5094100766969425
P 1.9422321971297354 3.196359747268463 2.480044792495568 0.6942207363653269 -0.30037169792038587 0.15002926877767067
Ni 5.132127274324612 3.0656830355099345 6.043230761614347 -0.46431037769029715 1.0692986648503517 -0.25924227486992774
Ni 1.1565027321658425 4.601314229009923 1.0337588437986118 -0.12952317840451888 1.3807060517596093 -0.11995533221042566
Ni 4.714764116663658 3.2712982765380327 8.47224247100975 1.4874839660478125 1.251884013187173 0.9680514505723908
Ni 8.175474459737217 0.5388214896683297 7.32829466300679 -0.19589980605754004 -0.5611656335481497 0.37324910280640233
Ni 7.429953213775948 2.8577346111314554 7.024237528729746 -0.05311307777489563 0.7793926423479803 0.03989143687829904
Ni 4.230411852847873 2.7071382312431864 3.719176336918661 -0.1162377741495224 -0.34405242663778807 -1.8088363799849236
Ni 7.082456447666343 1.510390391800406 2.2446090705117627 -0.5917383641286842 0.28053435147948463 -1.1152949290748082
Ni 1.7252645896814014 9.204555870352772 1.8596218290096422 -1.777983913380441 -0.19923658374025688 -0.2589697379348314
Ni 8.186928268911817 3.6340022337337214 11.262160756434875 -1.2526604863418813 0.1912671923815351 1.8938889867808932
Ni 8.007273150932432 0.25876663328076377 4.89754274927061 0.43882303205247003 -0.44072976215687965 -0.6522803873777993
Ni 7.081506574602749 8.11249695341407 12.69062044656943 0.8720965950416206 1.4209882963184237 0.29233802898263206
Ni 8.663875211658999 0.2566400242665424 0.4057027741501925 -0.4046497286048709 0.5980468228452152 0.2851785351197153
Ni 5.827545021698436 8.553348719744676 1.822800875795932 0.31080112078382605 -0.7706555195852985 -0.46991692524379713
Ni 3.291199500530616 8.78632583824543 3.534423259429035 0.738139035014832 0.2752337652021776 -0.5468204205700712
Ni 3.4655980394202084 1.1605604423404194 5.495127259921673 2.322336332025994 0.201286267180434 1.827618288578117
Ni 7.803197995356959 1.1669974462082704 10.970589380806373 0.4891276938442931 -1.58857999945989 2.2951762266714346
Ni 6.372790604338607 7.416802543982888 10.59677836421464 -0.3671702436021741 -0.004448779799972983 0.8163694766826456
Ni 2.8067089056861527 8.788317805058405 7.613292548152478 -0.5023850730748316 0.4984515423483803 -0.7519967668335307
Ni 4.095612876434719 7.697374758417713 5.649956569287512 -0.4253501943770159 -0.4819841408209764 -0.24779495226493453
Ni 7.012304171989059 4.119894583002129 9.206462071927964 -0.7577264702284563 0.4935389355381113 -0.013890384828847045
Ni 2.3805847828755446 6.45531889604835 3.808083533464211 1.9638283920845083 -0.48946322280684085 1.3838142583712878
Ni 8.315437794554379 3.729708861442261 1.2638199442148188 -0.8447184601389839 0.12981834104743448 -0.2492165152028095
Ni 2.6495371909013543 5.815067562911612 13.145673276304196 0.7152186787732329 0.37204376964439156 0.8162992855663425
Ni 6.358597840796167 8.208388022494182 6.480993134971127 0.255213870436825 0.6287725340638461 -0.9563693862487722
P 8.067170486350332 5.865807384230979 10.328354380718384 -1.4360112520898172 1.6436239757089113 -0.3165153975597839
P 4.570899846837755 4.6759484300164 13.184613460877266 1.0420675970485407 0.5846945699080253 1.8501128701362073
P 1.386040019086786 0.3257695725384622 12.588647423261744 -0.3304224945591793 0.8743159712904426 0.41764768352643555
P 1.4286736421255775 6.662326669431814 1.97623949722012 0.03136411613357824 0.13113577430727738 -1.552853749702874
P 3.958416162191132 8.544624642869335 11.515601645111508 -0.6217742483691421 -0.13268486396195214 1.47020358170081
P 4.777824621604013 7.752126179568762 7.915189873968418 0.02394416952042328 0.17403411633270027 -0.10629788932799113
P 7.88834535454302 2.3959026387845723 13.141853495498946 -0.19538738519749577 -0.5859389838380877 -0.280577031791962
P 3.1685183222297195 5.242321771770106 5.44337854429981 -0.20911270520338826 0.5406788264487076 0.7225244684060266
