# total energy = -340886.80837094894 ev
CRYSTAL
PRIMVEC
9.07260526832538 0.00000000000000 0.00000000000000
0.00000000000000 9.07260526832538 0.00000000000000
0.00000000000000 0.00000000000000 13.27867488319437
PRIMCOORD
 96 1
Ni 6.794265305925593 1.95080062593113 11.22460981895166 -0.8536005931199622 0.4111397072045887 0.44348675607672655
Ni 4.876144203643799 0.5511036037474143 5.957437241811462 0.7491950357186774 -0.6713212060593341 -0.7452563627859036
Ni 3.2460510961691895 1.6163934737404344 4.792167263374331 -1.0512063261250153 -0.0703402402864595 -1.315287417144483
Ni 4.217336982711941 4.577719003366838 4.888278812994434 -0.3850476381032272 -0.3060839178138148 -0.4945583779415612
Ni 3.863351148668034 3.1259570221696715 2.5551359257106796 0.271249583743449 -1.6517355490724521 0.02611469480918083
Ni 5.365212055348718 4.918250164014862 2.612419447190286 -0.13207782650557254 -0.6481023447407096 0.31723222112115046
Ni 5.570425310602559 3.2897901254622073 0.36471781864268527 1.3586282460239631 -0.17535874868139475 0.7673238841089043
Ni 5.723734191953611 8.121260821485425 12.58153132250631 -0.7208293400917909 0.021039594279118605 -1.4304990640223365
Ni 1.9645637679011587 6.748085745854764 0.18037246242988728 0.824582094400425 -0.10190053159124386 -1.5878999426737297
Ni 0.49554387724098176 0.13319128675359407 13.050692971313117 2.021940722846208 0.07104035167727767 1.4530088150890783
Ni 8.225668361229058 9.074963999301799 6.8324491791024275 -1.4199847947545738 -0.09495958149703645 0.43323551066236354
Ni 8.752242362508202 2.639238975191342 1.1510913111525158 2.0482227964711885 0.8428479825891485 -0.5060915753921412
Ni 7.319805030220833 0.796139244663119 4.696295230529449 0.2820960395396497 0.2528391995570613 -0.9327358059902324
Ni 1.1960959688600485 7.3698858104941065 2.1226230652940727 -0.12149902254846173 1.178547152166235 2.310182984492912
Ni 7.9309810742623466 3.796476976313993 3.630973606418502 1.4880002435625987 1.5248917172723093 0.13251311427077822
Ni 7.766512888611273 3.938798932862337 12.438201399528916 -0.28147743211904425 0.8748900986263577 0.4825001612254465
Ni 8.169363773842111 7.311040893673009 9.21751186371768 -0.13363720057289244 -0.5273450854542789 -0.051236686687789176
Ni 7.198894421760336 0.7481896193329949 0.2424553920190164 -0.1470403613526758 1.5346714223668925 -1.4155085041507751
Ni 1.7240399335126098 6.972523851362061 9.28170054495562 0.4507511509486237 -0.7081466024177998 -2.5059606631502906
Ni 0.14407296933688496 5.552452479855938 1.1272412468078807 -0.20668944047387627 -2.6149003609765034 0.31615570022752004
Ni 6.5952849303905445 2.1596429232337595 6.776107394034481 0.4432486719239914 -0.13405757593976267 0.2870875792169701
Ni 3.80097698845449 4.564881267119249 0.368032041293741 -2.141089242884622 1.4634379808422022 0.0907807675289985
Ni 6.374267197014231 5.897646959536655 4.889832042991316 -0.585933841631765 0.8762568970668974 -1.0506789928666356
Ni 5.515272944066104 3.069960903356872 9.144305920249016 -0.06883177406173306 -0.7133181193164102 -0.14334825721306924
P 0.27913502726662925 5.978184475204384 12.174154114580121 0.4305253108200521 -0.39558273330659616 0.24782400573065708
P 3.867406603157555 6.6308404698635455 12.455636224791807 2.480352989884515 -0.2926100516970961 0.3089442700807454
P 2.5731541194829117 8.891325399028002 0.9169645706354679 -0.8835374898887107 -0.2115886775477066 2.0814195949381316
P 6.705607808673701 7.933448822855523 5.677270659342465 -0.5551366537452503 0.3678125051718633 1.3313794376103394
P 5.017794787413117 1.5803661588010915 12.637275222896719 0.48882121834746783 -2.0067269912202472 -1.4151740036294918
P 4.106496965936833 6.417452797394809 8.139946758994634 0.4949823528528572 0.14291014123438614 0.10270451554977797
P 5.01895608086873 1.3074077611014994 3.480645983110531 -0.14610859356702577 -1.2682645114277256 -0.17042017372919682
P 0.3510735277997545 5.571359788930123 3.528701757920582 0.34200942806583035 0.40914478826174694 -1.00204811923281
Ni 0.843738667435535 -0.21267002940358862 4.372561091004239 0.3251702450213045 2.5469548461744655 -0.812193233817769
Ni 1.9751968611041075 6.7308387235179 4.480437087686001 1.3144962887017555 0.19726634738776347 0.6555392606347291
Ni 6.308363793408241 5.498361608118752 9.070728907230864 -1.5311487539256148 2.3368666644316853 1.8036435229300742
Ni 9.127675835060446 2.666338846690667 10.156048367551657 -1.4468510230177987 -0.5084868150971953 -0.5272566395055307
Ni 2.7866415906079904 5.281907395118789 6.725847883440305 -1.099708644600777 -0.5652164065787556 1.153690241023555
Ni 0.41523862026437575 0.14659878260284145 9.13544924312895 1.9975689788700632 0.7407767297479951 -0.728431577919081
Ni 1.7922931418451906 1.6959692932652342 11.459987671715027 -0.5991122879952522 -1.148777634213286 -0.9560834795772374
Ni 4.155616050067178 7.015990702501419 1.6104246068306904 -0.7974250743696589 1.1324848105905336 -0.6323291410668529
Ni 5.7372251557699805 8.256769251587171 7.7383596876572875 0.9195797282242485 -1.2343557744954223 0.8084003424342401
Ni 5.980570570351462 2.9208344929670496 4.356454495131206 -1.5894765431322304 0.4194279153553099 0.8471869762841345
Ni 0.8442721366167069 7.622748387848535 6.641581527067445 0.9151306913139595 -1.8012002035959045 0.29024463678871304
Ni 5.288412452991241 4.640183889631601 7.029119669373423 0.5326695829909859 0.7193044188068322 0.3488087103758509
Ni 1.33393605847814 7.857665352271707 11.293406476331045 -1.8632959444853845 -0.5626769279863535 1.4900031329252403
Ni 4.809206523053904 0.7121659334357006 10.110023949028415 -0.2372863394241268 -0.4711538829746918 1.06197616304701
Ni 8.46588372704346 7.242950992232624 4.591978416837037 -0.4531263360490196 -0.5793317629342152 0.6107974376426641
Ni 7.473531251407493 6.312337594451663 7.172103926095671 0.6385681799980293 0.21420580345557946 -1.6516059654731232
Ni 2.7604399070157406 5.249300452310428 2.7457114398607345 -1.0347489518999406 0.12357930211625814 -1.0374851198841808
Ni 2.5061801484725286 5.596436469487248 11.230386346632818 -1.0916875740685135 -0.771266156586104 0.23345153905906893
Ni 1.4441772833151982 3.355784255119418 3.613870838503076 -2.052885492054181 1.3311822339978687 -3.336433412003538
Ni 1.8199918052825654 1.5002096925484858 2.2886989165727596 -0.24870409434276528 -1.2786440548898366 -0.21877773909697806
Ni 1.1901624851102799 3.430324778801524 8.017876671599552 -0.961619321793802 1.6063018422196853 -1.1545366481842503
Ni 3.789953773231296 2.857616580477162 6.894486745665947 -0.281374845102909 -0.43610100513561667 -0.1393514773488503
Ni 4.240635432665161 6.973494620110111 5.9804626063505095 0.48153136955427395 1.2529358514904552 -0.6419301544917267
Ni 8.239286341517134 7.453889061318428 0.24823191970017475 -0.570419805156566 -0.8323725369791214 -0.9356879466400209
P 0.5529172175112962 5.752784673554158 7.773920670693362 -0.40722314575900187 -0.11303675071372145 0.9742647784719544
P 8.722538653338871 1.8305976806701485 7.919335478327786 -0.6559256974398704 0.9491481859099848 -0.24755558256061883
P 1.9691635786979973 3.7331411199575197 10.226146036505533 0.3319882963844024 -0.4883231956651267 0.13474200360129698
P 4.355848445109058 6.437358093032412 3.6932779075726074 -0.8778090720453656 0.5939587688187706 1.190854765888994
P 7.084706613695221 3.9532788106370016 10.350966030513087 0.06537389742011966 0.6033278687384963 0.2520773816903723
P 6.360658289331277 7.98418283069758 10.284731476820145 -0.036387537490098626 -0.13932088122123104 -0.1059119667434821
P 2.6162399212071477 8.665780435695826 5.612776231311916 0.8418917893234661 -0.4318599704710756 0.01388241440904706
P 7.094160268232313 4.322660855572892 1.5532998559407178 1.7023322881833973 -0.1576081095661931 -0.765177784300179
Ni 2.9751521798322846 1.8860494431756296 0.2044502491630837 0.7728286159772175 0.3984466851179525 0.12098840146063035
Ni 1.3704260762787035 0.8454443171984656 6.8866525511431265 1.0127089413807655 1.2984322932603574 0.029755891106193918
Ni 7.122630103105056 0.7531550561162491 9.14721459745112 -0.960829736012971 0.7619808746294361 -1.541986725081383
Ni 2.7403622318808205 2.093440123658744 8.955403394483453 1.2193096787955777 -1.8044739892511696 1.113946385466714
Ni 6.976488579800362 2.090536890019713 2.297170915235655 -1.959600212935774 -1.2488537110012814 1.0984544604787017
Ni 4.022920127553244 7.437422283022053 10.178289859008167 0.8523181268631128 -0.6953800467807508 -0.10164470682669591
Ni 7.329095377865729 6.331426355628288 11.536127695680138 -0.910357438295032 0.0035211257793810323 -0.7409803611183691
Ni 7.587601115606023 4.02027999946275 8.021779706323024 2.180164097398897 -1.2640512446773262 -0.643970067739891
Ni 3.2883385086426924 8.848112580832058 12.186649813614613 1.0806341444678291 0.2719319545224542 -0.1562557093033567
Ni 0.010511520294314543 5.098286940055236 10.133288830342682 0.23226934582550965 0.3168398707787382 -0.4276343624255023
Ni 9.258049170663156 2.520560227590851 5.593416199242145 -0.8083296370973047 -0.06872250217737842 0.19597513938016572
Ni 3.898298823597863 2.7398269481786244 11.242482851041942 0.09281065347483371 0.8800626439662327 -0.511065631567965
Ni 1.1471946272526297 3.7381764158002126 12.64807071573135 0.17432593654150622 0.7928158577324217 -0.8212396602907535
Ni 3.4077067742324525 8.847949273939864 7.828349950601596 -1.2063454053254257 -0.8665772078852881 0.6727088304354801
Ni 5.690038536530614 8.189976732679227 3.7780223902353933 0.022275523568748734 0.1944612738388006 -0.9214576619732519
Ni 3.2337849340442855 8.591121968147135 3.19164903407632 -0.02043898458064222 0.580755125644303 0.45259257503273664
Ni 3.8678239429931653 4.664371454886774 9.433356397653448 -0.5900694610666934 0.33856980625666205 -0.6788897624352115
Ni 5.110589392600628 4.760885828174291 11.664930563336235 1.0044233043332056 0.7294841875533113 -0.7904334735431743
Ni 8.299002228429941 8.797578170302685 2.082135657676769 1.3383198734839143 1.4903319770195689 2.578036398070618
Ni 5.0233744395631295 0.63534002052337 1.326057408190221 -1.6630522596368518 0.05689414208388265 0.8347374376668721
Ni 5.855958339001202 5.997717794031985 0.5384944971489003 1.6537312393462422 -0.45478418336741677 -1.454057825178883
Ni 8.2413367502747 9.09619389528721 11.010438273400386 -0.21023781994676696 -0.7215798451045702 2.2050310358439056
Ni 0.6532194034372364 4.987592084962079 5.690589243661518 -1.2114181918626428 -0.2939043450284874 -0.02027340553705541
Ni 7.420510947074701 6.41469472543773 2.597096724399791 -0.2326604106163412 -0.26832032591179594 -0.5561769220843067
P 9.022478978671202 1.7646035510129379 3.4041339823354204 -1.433757165948318 -1.310368125465995 0.2265098176339131
P 2.060561002696724 3.5816104692103754 1.2843533642260612 -0.2451459446778617 -0.17907270719787224 1.105981364983366
P 4.9185132695634 1.296057932093915 8.09105539725285 0.4775775271128485 0.5552490109533985 -1.3526548020493478
P 8.764417798581885 1.8957843484715033 12.320007129041938 -0.07634453749901045 0.6594249688423804 -0.48898319784662886
P 6.452101076355612 8.140512889554246 1.3720056168304386 -0.4322710898665652 -2.175090282420415 0.9178102950286516
P 2.322051627522146 3.483962020282611 5.299452906164167 1.6980843115403206 0.9113467987914949 4.824015594192111
P 7.090694533075721 4.157829765716939 5.734515168620047 0.8971113719184033 -0.8615064782306001 1.781515066462151
P 2.4659159269412254 -0.01380306143256529 10.03963414218961 0.6810026950131562 1.3450188827706449 -1.2943596658528804
