# total energy = -340876.80702967005 ev
CRYSTAL
PRIMVEC
9.14188155510655 0.00000000000000 0.00000000000000

0.00000000000000 9.14188155510655 0.00000000000000

0.00000000000000 0.00000000000000 13.38006773144489

PRIMCOORD
 96 1
Ni 2.1161169734191976 4.471815230011079 13.05565415292264 -0.9913088784384346 1.1524481410863379 -0.606794230020542
Ni 4.4217817136679605 0.9301224288868751 0.5877800006094798 -0.04185395992130857 0.18039682532593448 0.6899835583555278
Ni 1.3275291507855942 1.1935914478908336 9.256049682435439 0.7820465350310596 -0.30287672373042673 0.1401084101195329
Ni 1.3281873662390389 5.89554439769392 4.597217158338039 0.6727818497652607 0.014840921667574442 -0.8038255785793641
Ni 3.156572767689792 2.548390830587906 12.274941146839003 -0.024149343552693894 -1.3316432327946872 0.9489304134722237
Ni 8.536441925134742 6.6972691037525305 12.707879618778064 -1.1371853013899964 -0.7031632902705954 -1.956186045047902
Ni 0.7466302442290039 3.996035159745915 6.803724483089702 1.9642963328598622 -0.02772754782225547 0.1784867527874152
Ni 1.7544184398698703 2.6092117668624835 1.8642581436635053 -0.47141973504156875 0.4056308615712175 -0.6644998122621265
Ni 4.382499049731111 5.764577806220959 9.713540504976129 -0.49733002714942737 -0.9572821278710286 -0.323927630863455
Ni 6.721623075529995 0.9530319834192804 1.4794873300946711 0.45018910779756655 -0.637658009478934 -0.8777995589636689
Ni 9.140775130210233 2.1836663343289913 5.3070970397496975 0.37956218950862375 0.5886687240644249 0.11134805015738888
Ni 2.9145414603292847 8.477915601065924 12.816672577163096 0.2922305568704902 -0.3731848252273702 -1.3859549588633744
Ni 6.970903894759695 3.022836186183584 5.938502097912504 -0.3263015304122703 -0.11048827326025489 -1.5146738961990431
Ni 3.334665757253154 6.283900657107769 0.8931252352744873 1.417138069334398 0.7615684696823658 -0.37249654091109397
Ni 3.0313015682653903 4.458559502129201 6.035708635940645 -0.4657861909048752 1.888334632621567 0.7568898332597739
Ni 1.676017665859532 6.646833344632307 11.624495378309039 0.8670652032653002 0.2442704840514438 -0.4996077674400105
Ni 5.252998128793426 2.8416715245041444 2.6307354121901354 -0.972426696821951 0.052749266677573674 -0.10125621313902562
Ni 8.668624386820316 7.606328638129165 4.6231609032732 -0.987570494441925 0.3748190183966835 -1.5481296047543274
Ni 5.472476414992144 7.9598269041543235 12.811909657006916 -0.7337833291492976 0.9620546095590078 0.7692105596086559
Ni 7.293703723386682 3.517430248159717 10.390746388441153 0.2532611175858283 0.13258613360055874 -2.860694994981957
Ni 4.44170187301597 7.341497478811828 7.766380124951226 -0.01753903732502786 -0.1663650298232167 0.6257805413150578
Ni 2.835436761459013 8.954353886784533 4.861259373299373 0.31685992538339625 -0.9832785519347904 0.2823099553226686
Ni 0.3119996100617105 0.06722025318307101 5.970052558647634 0.7446778645746144 0.44047522294391234 0.4076260376243754
Ni 5.106846872484742 4.772747678573615 13.53072664157535 0.9020882563077045 -0.6423880679647518 -0.9185356032304504
P 2.2839436302850777 -0.06641942438137959 6.974493911545359 -0.33347722222510306 -0.021782900203046355 1.1512122117967076
P 5.83685351976174 4.052595979335696 8.623788029995024 -0.3232894830588239 0.5474814511928378 0.3765231455719838
P 2.051045062341121 1.064928610504931 13.759525989945352 0.4563204175062851 1.13570871684447 -1.2584963762973682
P -0.5336353802467197 2.241159625811153 7.604962841063267 1.1390354672248577 0.8735862922132698 -0.21461023798284976
P 3.7524588744460723 5.967271598356829 11.919619989683055 0.5543786925333033 -0.38351346084688787 0.3277223220191969
P 3.482224863281707 3.943606470502761 1.2083446159292996 0.03674646349141413 -0.1357411342897727 1.7100787648980353
P 7.65306193532376 8.557760792321321 13.202566927943435 -0.925219185898213 1.0161470205280372 0.178444329585254
P 7.03632319732709 9.249664078348893 4.934140279382071 0.42405821503846963 -1.222279560057179 0.048914209202199625
Ni 7.995068856557525 1.1029314110600823 9.43712201111377 0.8963125301661918 0.4448514976347371 0.33845616349693325
Ni 4.715199535803667 8.043127726540307 10.164944662948715 -1.5066867642285084 0.6440086342873101 0.9766265938359117
Ni 3.0676496883056315 1.5927534109987391 3.3389423293242873 0.9026197033311424 1.4511491361725202 1.4012789908149546
Ni 4.212688604623598 0.8446047002861629 7.6216211771642035 -0.8692192734938256 0.3550896582885562 -0.073760321711602
Ni 3.220721348756786 4.241933482895411 3.393907890627594 -1.589757821818075 -0.6233765598592554 -1.0344031385247476
Ni 6.680758866128619 7.8264194303748384 2.9614639944667456 -0.20936673019572333 1.6042747844873273 1.063546592857923
Ni 1.1740369637947383 7.1401018338202515 0.5433943385321718 1.125967578297306 -0.3842822206921124 1.058989312504544
Ni 2.6900259975354537 8.829027836072344 1.8880480613648931 0.5333162154360492 -0.8082902992189369 0.6588706390008072
Ni 2.3654526439366843 2.2187985841566182 6.49559463138137 -0.026188742580225865 -1.421024805983314 -0.33364074438616087
Ni 1.8698164074925963 7.559860455492207 8.84030434665324 2.178766445720422 1.4225016476391565 0.30296311279664595
Ni 6.4274099097213755 6.515729624939879 9.034716508521388 1.5489654703920614 0.014897485937122729 -0.271941467604151
Ni 5.05126423419383 0.956889857326972 11.705324235992085 -0.2086154538519956 0.411058460344692 -0.7297767790930658
Ni 3.4574869324897324 6.723542870602542 3.267866944797914 -0.7868730098854255 0.8093056278573287 -1.0434423659088803
Ni 6.7658240716050875 6.727940115506808 0.9947116486324257 0.05058928291177739 -0.9967758150902769 -0.7074904568910395
Ni 6.320989269533136 6.253284496641279 4.60210075132735 -0.0003882365773541701 0.3706044660947037 -0.23655948856043127
Ni 5.279015922967099 5.344526644347473 2.4912878974371626 0.7360186462377195 -0.17430999570190625 0.20264329542896065
Ni 3.4620121637321666 3.7256183109555927 8.427797065226736 -0.8229661560635569 -0.5545967220813803 0.44738737668271333
Ni 7.3332606437624674 1.7447828969819392 3.6585388427445085 0.5301054218082354 0.9167440585476663 -0.7624305605723449
Ni 0.13977022316278698 8.195632590350996 10.422028992054257 -0.2952109796550529 -0.4493470715122455 0.08184104183720745
Ni 7.638142385045674 4.060640834877802 12.493450393620147 -2.6263080885928125 0.8983714695777496 1.0538959571420363
Ni 2.853629105241729 4.2454165396698915 10.62198021980077 -1.603642293109651 0.4609982825979287 1.0597256764499363
Ni 8.111298735378353 5.989824619518618 3.034586246215707 0.9554268198298449 -1.3120830512745725 -1.342423611239643
Ni 8.79804600035394 8.266500454171908 1.8362666173176265 -1.3372137849039292 1.0763517150423914 0.02441725250209988
Ni -0.16147670611639553 8.430953756838882 8.07937985682692 -0.18853308127982368 0.6150950365767535 0.06803318941983766
P 8.972902763937865 4.939257904532606 0.517564867113234 0.42199541897216997 -0.1491250117958464 1.1558329983981706
P 2.168152561766544 8.83520774782969 10.739926029741207 0.8338789463213188 -0.20093248338544106 0.10636011002449423
P 1.5784372248863103 3.6351502536320965 4.730121828646143 -0.4277989130278246 -0.7288601808160673 -0.4632788511019892
P 4.268719195098104 1.5533336188424218 5.327996294584706 0.01786119655113698 -0.0010055584463789134 -0.36655369306409774
P 4.8240702001797295 8.034781188915373 1.815889363904725 0.08227787226430991 -0.725904183511537 -1.4163088885648834
P 1.3759994054267803 7.485884352030028 2.9797943806570593 -1.0112758084786648 -0.6343554274682623 0.2178729678945215
P 3.601590407387699 2.1786748671403666 10.080515732410575 -0.2367932018377922 -0.07013429492324051 0.5951414762729621
P 5.871537817405772 8.856334635509015 8.526568693333067 0.5217994730457013 -1.5801287833687432 0.19717533033585397
Ni 7.230771012532301 3.4336631898275427 1.5052308678294088 0.8160326621685173 0.7532676631261543 -0.0120121939695277
Ni 7.539730032874347 1.4167539122525834 11.988580857065234 -2.0722898647227215 0.11666200617113458 -0.013019552188119511
Ni 5.103930612350728 0.4818511936350639 3.267747186152912 0.06922001063908723 0.23579869913500678 1.252739419208933
Ni 4.794578491112874 3.1437009988224225 6.83605017535889 1.5074490963158298 -1.934519615818062 -0.5160445728397951
Ni 4.859997793680269 4.222973221083676 4.814790276474286 3.173755344113605 -0.4180428620823252 -1.3926781365198209
Ni 7.831493174495144 4.283190793192596 7.611090644097214 -1.7407602531422923 1.1163385398479742 2.736488600804661
Ni 0.2736210781852178 4.825532901187386 11.067550029129068 1.0458944269937986 -1.6467535224768284 0.6775101084788655
Ni 7.16006770257475 0.7457681648226169 7.146842142901154 -0.6806167724286473 -0.3583490457661183 -1.0180419235579046
Ni 7.332117908600235 7.246650460346662 6.857244712959819 -1.6860546340692963 0.5139470668808181 -0.30409928328361824
Ni 8.432142201407602 5.093262036876141 5.523131579263516 -1.9632352385851994 -0.3145258779335809 -1.9989440048407188
Ni 0.38263892685017636 0.45306066686375346 12.38863141103529 2.0532870983679734 -1.054348985519055 0.014487394982897632
Ni 9.127802800648588 3.651578214324328 3.219993655005477 -0.7686132923442891 -0.8927050153205915 0.8135327785647989
Ni 0.1879177693941592 2.7577216285460127 13.232899690089692 1.5987407420429756 -0.8025904206206823 0.24198194512758325
Ni 1.385059009792947 5.068103579544465 2.034438834963581 0.14681950359112136 1.5489855249967195 -0.32994195537833504
Ni 5.713511257291185 5.45274823515139 6.591690430831822 -0.24356420201303858 -0.4457153882969292 2.4464270265610315
Ni 0.9081416894943312 3.614754716456599 9.079540066712864 -0.30040486515116654 -0.0709796736426713 0.4000806211769497
Ni 6.954942170013653 8.397805295252889 10.736246422518823 0.012486562502784947 -0.12401458988146384 0.4606342143902905
Ni 0.9004359977483758 0.5146111252658996 3.5347458855259695 -0.7353193061778498 0.19074782954295538 -0.189273558990274
Ni 5.732828052473535 1.653620056679806 9.384458375521262 -0.7657580822836811 1.22518902039449 0.4715338920219298
Ni 6.0030803474004975 6.073728806070261 11.632201984243123 0.8346921862512334 -0.25367892184953733 -0.7900735191005942
Ni 5.166963883899385 8.547211061303607 5.8980675569321255 0.5045242309050214 0.27248808413624037 -1.2211775852422515
Ni 5.126986436983899 3.6538545427674918 11.208803979626495 0.027386362432752834 -0.38077729286264744 0.2757742110866799
Ni 2.507160945934615 6.860140860954977 6.558333534352236 -0.7902306135037488 0.10846712906516803 0.10903482864317997
Ni 0.019648645473463143 6.167679920168237 8.719589460867684 0.19979014225088174 -1.586222812081623 -0.7633376457676467
P 4.193499795779417 6.55492087006375 5.164719552040764 0.5391652180176586 -0.6658385856782081 2.083768811896599
P 2.3214619111314434 5.500368294831875 8.706757916278026 -0.40285766970145453 -0.5471898880943479 -0.1631166980892481
P 0.15364119965601064 6.755566880788902 6.455360297601415 1.9059536312549108 0.060387757059437934 1.0028199644018279
P 8.8627613780614 1.4743294806664256 1.8425553174624159 -0.37155834536754073 0.6885131444575885 0.6420800498060296
P 5.982017452890257 2.4711236498585007 13.211759089588421 -0.5684786222697951 0.5680417918426928 -0.024310808831222646
P 7.017628050072991 4.178991630159732 3.833389207011525 -0.9072628585301084 -0.3448530681622125 -0.11115058943460211
P 8.128357485880137 6.30470757894167 10.54711918222896 -2.4580710385578635 0.8584954593184183 0.21515762584588752
P 9.120434444322525 2.441065144151179 10.905906026584923 1.026719910947877 0.1306125548139557 -0.021956192556117023
