# total energy = -340858.9221915671 ev
CRYSTAL
PRIMVEC
9.35292842273274 0.00000000000000 0.00000000000000
0.00000000000000 9.35292842273274 0.00000000000000
0.00000000000000 0.00000000000000 13.68895615516554
PRIMCOORD
 96 1
Ni 0.6090458544047476 4.269808171889115 10.155261751525307 0.020009867463023606 1.1590970138614232 -0.5261032426273778
Ni 7.763379414003333 1.2855319334743487 13.364541385602346 2.6401725052797302 0.2755692941647254 0.2918947707976263
Ni 2.2231629936706674 0.8169043972346426 8.487891844504377 0.2624538398286899 0.28580254185695936 -0.35533751263330415
Ni 1.1936300601826877 8.795241226633348 6.353948304294304 -1.7662141744390227 3.1410707093963905 -0.7612900192099985
Ni 0.7369677250931973 0.6979697553316555 4.136227779590502 -0.5175381266661861 -0.42875639184508735 1.7365611274592803
Ni 2.882142261583406 4.512395072720156 12.40858700361021 0.4116729540002394 0.7188097385586008 0.0010155857487079284
Ni 5.758607295700088 6.400377175575308 8.491821009675334 1.2007249738148549 0.05951281065365234 -0.5400774454192828
Ni 4.822977762155959 1.2253832516975653 9.958866157596924 -0.9111339114497404 0.20570547929405217 -1.7296548872577502
Ni 7.8779901971618935 3.2694283158538218 9.389172748935579 0.7646324533196702 1.749831876426257 -2.031299538353289
Ni 2.01348904746138 2.1487417433366813 6.132514921356989 -0.6797464540085518 -1.093733657964265 -0.709532684132049
Ni 4.121208847356455 5.751143658931642 10.194617003147194 -1.6570770158900234 1.9995212175004276 -0.7040559772881939
Ni 3.6772346947733223 2.3351549569104755 13.72167266380115 0.2583544729483357 1.5355168010863232 1.258568367185884
Ni 5.352606031938871 2.438841519836524 4.127178821478383 -1.1523234425830153 -1.5784310839513462 -0.8054404884749676
Ni 7.3260364875716135 2.9035604673474915 6.674146739296071 1.8878970308635163 0.21579937319494447 0.1683774322675552
Ni 5.809646225330924 3.8564461535705457 10.058275626419952 -0.5368872206167592 0.718134309758131 -0.6969026540728642
Ni 1.7676847393015849 0.06742619527243175 2.2707516280585467 1.3315822976497649 -1.5461922785222983 0.1716833567123366
Ni 1.7548992863411024 7.540321427423563 8.02282309747569 1.306251275084144 -1.6069461606719035 1.411163339808202
Ni 3.0437515093552983 7.2057484769463285 2.880238005385342 -1.4471261310560561 -3.6199893239181655 0.43547057064046935
Ni 9.061687447509883 1.0743615187400595 10.056235752761811 1.5550433011550249 0.44973222276580604 -0.826505536675383
Ni 1.91328177385596 4.9874396530536345 3.262667083999299 -1.3185686589989163 1.675976681008004 0.5923741979404702
Ni 6.973206621089361 6.243594038796545 3.7333887408811797 1.347184780073712 0.26894741797283356 0.11987254268863226
Ni 7.520951512953073 1.6909159039690027 3.6807962898628257 2.1896573816013127 0.1859802329509829 1.057150459523592
Ni 5.196374717928703 4.951000644469845 2.8133271564612077 -0.7333092177263564 -0.4456099730673164 0.021553043580427395
Ni 3.8516481013622594 6.7556668621955325 7.205948629611548 -0.1694830066269081 2.307164766491878 -2.0183249804704917
P 7.201988599777262 7.069981370015558 5.897312157404002 -0.8380009389094922 1.051907208846782 -1.4167794004433987
P 0.7399531798005755 5.266783562030028 12.89655733082839 -0.3834178158092881 -1.4173247314239075 1.100766139331014
P 1.678513921068052 8.550933386998553 0.19054440199562642 0.25015419652573045 -3.2817200796210577 -0.8229779831380988
P 5.859188686436758 1.1845764256064277 13.080071136634993 -5.400761855787337 2.9457751125817526 -1.2323721684064906
P 2.1071679771264806 0.8948816309011637 11.478203527539039 0.6438764795848201 0.33816640017065636 -0.10994705604480419
P 3.4367709086621265 5.8664091470698905 4.663854522721225 2.016065495012354 -2.3371492286691105 -0.2271767617939507
P 4.997026404541927 4.918115748632935 11.756444726271074 1.7121934972481931 -0.9659799127553429 2.880415099118704
P 2.0444285342157884 6.565418948026423 9.97389631334491 0.6649597826176806 -0.4448586967235887 -0.25458472149325834
Ni 7.846648534491392 8.23840528848025 9.601269103569713 -0.5080713248263314 1.0952565223666946 -0.16967892468779808
Ni 8.709783520927473 3.3204578925563766 13.488152491645963 0.9278951900684793 1.7862890908120268 0.7478740029144088
Ni 0.030642998927892264 5.054097972914175 1.6016487505741723 1.4183012364045637 1.467774917654659 -0.9285009419732784
Ni 7.120674241299987 6.1833985923783565 10.501072245332475 -0.9343751413658682 0.5191926315504737 -1.4927249027317775
Ni 3.205342051270628 3.9859187397680285 5.692839374611924 -0.1117224027776721 1.286400301796488 2.1749807534257446
Ni 3.8042381079045526 4.832629984142218 8.124559574855096 -0.41626700112882503 -2.7341663804293876 0.1586010696070817
Ni 5.914492551363849 9.641840235868163 4.923232735695613 -0.5992274734168777 -0.23500217137564045 1.2943185282023
Ni 2.351139111343149 7.452179431300968 5.1032700580600725 -0.8979312967165374 1.4238105962585672 0.24930624670313842
Ni 8.150618703632343 8.70989575606685 4.56287095606846 -0.7051258133136049 -1.9651242280777963 -0.16561195370727605
Ni 2.2141187120226893 3.9961695491642892 1.1005656179056658 -1.3086010062632432 -0.4355896127168369 -0.10687844442180948
Ni 6.9698115081232626 5.466992344818681 0.33710011169883064 2.221539317911574 2.242505635750596 0.7813137706300931
Ni 0.7687237224865596 5.256888163908455 7.40122187214618 1.0003056826204062 -1.2299540458833012 1.2350237470967247
Ni 1.1967258794437847 8.665469346730864 10.292027751196516 1.2452796204967778 -0.7066067687345057 -0.02635535006507719
Ni 8.745801647738606 7.089379343270891 7.639450308398153 -0.22136092644312202 1.1125919283213486 -1.06533993731292
Ni 7.610075566545199 4.023798099307132 2.2508336319907754 -1.1101159559770302 -1.545208060232158 0.2902940019694097
Ni 5.43811050228615 2.0081298195562183 6.376891037368235 -3.059083628899622 -0.7278469090602045 0.9596606554055342
Ni 5.544247532421889 6.989106599167503 1.504963789759475 -0.7590387612819766 -1.1134002831552567 0.3216511761244525
Ni 6.956792231955749 1.056862189925822 11.012299564014835 -0.16073894188569093 0.3215539884249559 1.7711761464299887
Ni 3.278631597282582 0.870396599953653 4.6245806415753865 0.6202783805499059 -0.22696516000377684 0.40800964621603925
Ni 3.698998958883814 0.15302887136666427 13.45317721633819 0.890676414926337 -0.8048141677448785 -0.15234788960851828
Ni 9.255742003489466 9.122864951397606 12.186511074499972 -0.17473242795130553 -0.398689654366694 0.5501296874489623
Ni 7.776548337023347 5.165388466532888 6.387869504584779 0.24457670243795296 -1.5864035606338613 0.6591971691022904
Ni 6.2816698098295545 1.7346782553970181 1.7632336807325333 -0.6494138644632816 -0.32403047498990645 -1.2745729701442565
Ni 6.215881312299172 8.757249631954869 2.8707793890145035 -1.0891223844444984 1.598855413243969 -0.44216572327245784
P 7.710348310648589 7.6503305698677435 2.036136228001623 0.8600574044888994 -1.5456410340045188 -0.8589186628987658
P 2.2612481176319585 3.1298265083277346 8.008381240916597 -0.2583953534886001 0.3844891944965959 1.0002342059525227
P 8.490878234504583 2.7191487804258876 11.254525441814222 0.16910916822725713 -0.03465718506255322 2.48099756544705
P 8.520003253172426 1.9887318463008847 1.6545021482915727 0.30891521661502286 0.12789155633836682 0.5614391989245104
P 5.468909695116339 8.586493220323904 8.802039870200995 0.8906093091338274 0.38240711515658654 -1.8669787926536106
P 6.701101878602661 3.8652753178680554 4.1935565534904855 1.4902170487082593 2.1827825088583506 0.9275249512132542
P 0.20696533817903465 8.987434549884961 8.391644600733242 -0.3074597151154189 1.4818517074626996 -0.5003850119256673
P 7.975990179692936 5.429028808925046 8.657388416695856 0.2759472463294344 -1.0410489259760394 0.47331772339522993
Ni 6.242855157462325 8.731697431890467 0.10067959648362369 1.092047014290461 -1.0134630459379708 1.2319587350181558
Ni 9.059414685937536 9.105122446448055 0.9623386908369237 -1.0266530622656835 0.6078308988151725 1.2468986441574397
Ni 0.3925676528708433 6.694162005817966 11.303039080809116 -1.1082740176722847 -0.546948204397187 0.7585147704577067
Ni 3.542103586965677 8.312452421682986 9.671945441419883 -1.026956195328399 -0.39941470545817664 -0.5702465128034954
Ni 3.190947894645769 6.931651560735722 0.721280993779868 0.05682060853346988 -0.7180970287622923 -1.5365416428064118
Ni 8.748551408653297 7.007569279594709 13.758496077737298 0.3581436146235316 -0.3041651035245471 -0.7882341518990101
Ni 5.402148493044705 5.08694545703796 5.728732172184087 0.13802684500015583 0.05649999196925753 -0.07958361326159843
Ni 7.091932692691675 1.3235702927942332 8.746681758289872 -1.684344336246409 -0.9258843302860378 -1.8146768979261003
Ni 4.776250532462783 2.6867689427161654 11.669561634295135 -0.07895549275929627 -0.2314270524298724 1.958836081076239
Ni 9.510057476385208 2.0626293326511203 7.451528467492593 -0.7891877740615311 -0.25641868937820356 1.0663483239727765
Ni 3.4361536153955634 3.3630698338057976 3.6583595502089112 -0.6089246460999835 -0.819037510433112 -1.7451740659392718
Ni 5.036757643880718 7.45405001695722 4.533138932355163 -0.7009423713598767 -0.5106617112613271 0.5308826662938922
Ni 3.0703418844589208 7.704147319198113 12.167114036537466 -0.7903506840213808 -0.7941518029350259 -1.7043421195245745
Ni 0.0367981610297895 6.418306739090483 5.2251836076206395 0.8080702127883309 0.682230139662354 -0.6528941097023981
Ni 7.06316308529852 8.881690342737034 7.136641560461754 -0.16468815634142603 0.02340398074623711 -0.39972889426448577
Ni 0.28048590151953545 7.636909117784135 2.988326056360551 0.6178384036498457 -0.9168841836699564 0.27796299120788254
Ni 5.992009620958932 3.692302262234432 0.291601856781813 -2.559810619091211 -2.8687811144242015 -0.6806118873326407
Ni 1.187681597795806 2.814118414193802 11.995536437803407 -0.04251910430913322 -0.36024831967136023 0.7418023427990321
Ni 1.4806807820628394 1.1842771319014276 0.2543678492941168 -0.21047924653361172 3.6840319041213716 -1.2407213117021343
Ni 5.770522926330414 6.87633834288035 12.587118504521385 -1.607642929628612 -1.6610084897339459 -0.44066394191595076
Ni 2.7372466966501254 2.921331031081886 10.246402296454875 0.7418902745271481 -0.4704887385868671 -1.0451351802302709
Ni 5.456648006139607 8.570677418600294 10.850550957611553 0.845958246083356 -1.0287701086086865 2.4620025124017855
Ni 0.907152672806177 2.803465428881447 3.3089350849138643 -1.390866794342695 1.2502595902098728 0.18938977285316413
Ni 7.501880892187584 4.569438582307561 11.747040356884266 0.1955046275016504 -1.7355938784500045 1.9019522234050021
P 2.5368602082241294 2.0091867004520005 2.248862970001914 1.1135733183980112 0.9989057169490859 -1.1857318428401322
P 5.540309949615478 3.456636528331523 8.027710002502648 0.2393807600593103 -0.5157926047299891 -1.3126530648454298
P 7.437504686827671 7.865522743762974 11.735048967534862 1.3525277895531804 1.2475568465667288 1.084870294036364
P 4.091288829784704 4.831769514740342 0.8627337458128166 1.1737170777674433 0.5795976150010921 -0.0874514460454494
P 4.261091242730981 0.06956708055601217 6.677144352810214 -0.5747413153500553 -0.04058743450405913 -0.6217387671455163
P 3.8114492156094038 8.933000507288027 3.0102147144171845 3.1833553290972145 2.7559137994088085 0.32932720461247156
P 0.5541404242224386 4.216038187200151 5.599207209588229 0.08576608792322649 -0.5685053617426725 -1.668460832246933
P 8.462669802808303 0.9808509417840217 5.788087725642619 0.11849288873228625 1.5202650171335754 0.3207497473561057
