# total energy = -340888.0309280849 ev
CRYSTAL
PRIMVEC
9.05812776210924 0.00000000000000 0.00000000000000
0.00000000000000 9.05812776210924 0.00000000000000
0.00000000000000 0.00000000000000 13.25748558943368
PRIMCOORD
 96 1
Ni 6.296214116383517 2.051838071946191 11.049782856323542 -0.4312012538411542 -0.2880028919423879 0.7279271274788367
Ni 4.654772644835818 0.6800942060648297 5.654874204691409 -0.026467707273225383 -1.1362062253061787 0.3712878653149735
Ni 2.8871423936260054 2.057879843250091 4.6418829288456385 -0.19218944708548838 -0.8456234884517565 1.678713877433509
Ni 3.313834566102033 4.6467743179072665 4.624927019244784 0.39894547913124195 -0.6160491729599068 0.18191737573551897
Ni 3.525459608040585 3.1716581907107084 2.646074812787609 -0.8316356588130968 -0.7675719955639684 -1.169119945315064
Ni 5.4410634364925405 4.474017702752875 2.6207401348867427 -1.1264447750440405 0.766973442748021 0.5840186268869232
Ni 5.244728514435522 4.545296111134268 11.05482098705702 1.2149370036491787 0.5370893093252364 1.1672780070103186
Ni 5.935329243042172 7.891332321892018 12.16988105961434 -1.425785460596751 0.7123976643846699 0.442263939413219
Ni 1.8522512819759793 6.446923248249015 0.48634266208258253 -0.23775993662643566 0.9392345263406986 -0.9174567683439748
Ni 2.762058705566704 1.5153795056760715 0.4201730378322242 -0.43709267962492465 0.2615655236864657 0.010837456935136176
Ni 8.074469551610534 8.941948343562391 6.774004999923353 0.8481881638551392 1.1233039154222135 -0.4474210581341262
Ni 0.21265948014380742 2.4089366478287206 1.1768763605428316 -0.37225948519962343 -0.660939605714694 -0.04025447664467261
Ni 6.901487280248431 1.0679985690949352 4.588707189056216 -0.08549997874603339 -1.2436354000251355 0.08537862267682071
Ni 1.0490308492892884 7.7906874628850735 2.800736911665134 0.3305572203648307 -1.1561258470482412 -1.1074412373583442
Ni 7.54802927478886 3.848372809259069 3.473222290300764 1.183375941013446 -0.25006909301109187 0.6090737700833381
Ni 7.722226132278064 3.802058601347764 12.33053601590515 -0.5769851170789095 -0.9011330914832869 0.44500087872840777
Ni 8.369030812527358 7.661654431064902 8.813033067404813 -0.24852720244526877 -1.4754846275940912 -0.397767913883373
Ni 7.080041097253641 0.7769609199280614 0.2140471853368471 0.012983042523229255 0.1756341138299685 -0.10277496377639718
Ni 2.01120331022311 6.266258887444991 9.088019713947235 0.17667721038250217 1.222703534968475 0.48693788528182586
Ni 8.662197121748829 4.834984099245248 1.1129060497446275 1.6575490704304354 0.1706214911067255 0.4532901153203935
Ni 6.538084247353136 1.9455952899020497 6.917649697845955 -0.15788835981077323 0.2669134182619403 -0.14609779493374841
Ni 3.907114768638066 4.718967597205742 0.6295824616884166 -0.37152903479150207 0.06709165144217479 -0.0019229280543257203
Ni 6.0894170566113495 5.710850717625008 4.8941200871875425 0.04614898775223665 0.6047355477193005 -2.7869472716758454
Ni 5.660741154126995 3.1613138086581545 8.862059278806955 0.025733657320678262 -0.12436117458760518 0.35841280912451823
P 0.06372483553233348 5.65623926456472 12.401198471589893 1.44401046824521 -0.6095350259904728 -0.705529733620243
P 4.1919113676874185 6.270661137600456 12.469023015806103 0.7198644050753602 -0.1510541104977592 -0.9738953109476777
P 2.4329316286143743 8.529785408224976 1.3193398785883292 1.4006375005762137 -0.4255918780741767 0.3461000531954362
P 6.538808897584488 8.110357854318258 5.491740944609376 -1.3260168877468452 0.34031327131033007 -0.8331065869316684
P 4.639319478652229 1.1437788670386038 12.378315828909365 0.6757414466142169 -1.0115689142390514 -1.2841539289644723
P 4.337249029713018 6.215361266820382 7.753627038428139 -0.6644098236514815 2.9099419049332274 1.120333005719348
P 4.431263339103088 1.3201587333497575 3.2877507810245064 0.9706348950288509 -0.6709795064491993 0.42824397098504313
P 0.21055618284730732 5.678712479864533 3.203671426306276 -0.12330522251926507 -0.41376403220131325 0.6191581509025337
Ni 0.5589725431454469 0.14509399838530668 4.657103301142405 -0.01220528381694027 0.5771162433401351 0.9997145860036267
Ni 1.6804820027618046 6.758966695997214 4.81485331581828 0.14582037290264563 -0.23172170085215574 0.3307883625390303
Ni 6.275887677394084 5.7969663394933395 8.873009649615478 -0.159493499514364 0.1949130166642385 0.2221253154129723
Ni 8.656644489351091 2.4412016993796826 10.151999191696532 0.2328247041083474 -0.840293848708727 0.3565461882294247
Ni 2.350013525891885 5.548855158406198 6.881748713759183 0.24581494572042828 -0.32054920130952536 -1.0147223722663687
Ni 0.5522278611171352 0.42907083686044145 9.499704380131956 0.6693609970091697 -0.7497164554397863 -0.8824763956140479
Ni 1.86842909839092 1.2655744546731442 11.351152206163922 0.06302030958627856 0.6511858687620398 0.05155293237662735
Ni 4.47351950571882 6.9710446443303615 1.2374299455002096 -0.43031833701556854 0.6591025525059552 0.7699001294765128
Ni 5.906134896846565 8.219761922996671 7.6756736956032015 -1.1522661069825186 -0.6759417355504811 -0.5164703475233041
Ni 5.286767285981848 2.9645984452296767 4.7862577118763285 0.16943209878431464 0.5142422295237337 -0.21588807625400885
Ni 1.2208997679102738 8.00679627813012 7.272566170719324 -0.7689043412221468 -1.2000760273769462 0.8610583349495881
Ni 4.927132434289587 4.564399702858293 6.76370409688468 1.223787254950957 0.3308611247584947 -1.0854781028236917
Ni 0.5217391084457756 7.128103523848083 10.81919552945608 1.3129811376088099 -0.0027348824326598057 0.592232015935651
Ni 4.4474139811343525 0.08848251068648537 10.244921090862839 1.8654327883227293 1.515965875537589 -0.04622277841296555
Ni 8.314111383118743 7.168158565386084 4.528226974934763 -0.3819512585660906 -0.04203265159101793 -0.1991615075279473
Ni 7.278350691191095 6.528364876125123 6.728850232382212 1.6357710553233955 -1.6257478667594387 0.8781769969077456
Ni 2.2412978749332537 5.200524850323031 2.466727503779068 -0.600905632450249 0.40099927633647714 -0.053935830786507113
Ni 2.498014277517704 5.4036986589384375 11.37619521234667 -0.3607180602189272 0.267500658223978 0.5332025726763204
Ni 1.0207332577549804 3.468230356019536 3.870152171962363 0.6230927100702495 0.7178430037699572 -0.8945019593200144
Ni 1.8066979568075943 1.123878160060091 2.811978954191776 -0.5306317266253506 0.35497293020503384 -1.4874196884687803
Ni 1.5387494756371836 3.747927229065746 8.369463791040591 -0.4216863723721835 -0.781675524844886 -1.4789576737443562
Ni 3.686712400772259 2.854777702668233 7.139036684213611 -1.0833623420322698 -1.370630669801478 0.1688194049009802
Ni 4.137861518556427 6.764782014103816 5.442926693399905 -0.4260248518465373 1.8491901012116216 1.6281179096535123
Ni 0.7192805731379953 -0.05662507489065917 0.20098174166556484 0.6320154664811761 1.3625856880098146 0.1515639602546422
P 0.30799174714215055 6.064416623629695 7.686133115879984 -0.3734175100634666 -1.4322774960789977 -0.3329894839554071
P 8.708167120800242 1.8863551334889976 7.926014081964541 -0.11722276377061101 -1.6180114173471294 0.0992263271931904
P 2.2457091832166114 3.5002236637337405 10.306952962292176 0.2960324471150837 -0.9333387296815538 -0.06298251436980765
P 4.062923626506707 6.269383941567697 3.344558830098582 0.36322874245592285 -0.32398059558857756 -0.37032652984296865
P 7.300543104526259 4.065242507247033 10.185792349422858 -3.020905575168004 0.33224180715610524 -0.5910007146317112
P 6.632986253276614 7.720414506699684 10.057473098080568 -1.9437365064306393 0.1514480035020682 -0.2736779906792835
P 2.465124215142201 8.660430786809908 5.789026890396085 1.266037936090052 0.5126350329376139 -1.0832037049672183
P 6.814583601253505 3.760644840625979 1.1982580714316708 0.34349501147242134 -0.5247624123287672 -0.16462259321081327
Ni 5.047252268264125 2.7097208426072834 0.4750915614280487 1.4224545964513051 -0.11663320981572817 1.073529672212564
Ni 1.5255517832986796 1.2518332746611258 6.998626643761209 -0.25206941127057236 1.446676445113147 -1.1905104951756982
Ni 6.9800755978385896 0.5421081206363 9.073675262617614 0.3363578862070078 2.3629970429701497 0.7935946448799752
Ni 2.835329902084315 1.3192166880489993 8.902892413530868 -0.857791234162542 1.3787707824101092 1.6198677538295778
Ni 6.404821069807446 1.8187180925201507 2.428771230473622 0.05983188455596792 0.7699638928349126 -0.5283874106758641
Ni 4.262447009581674 6.834964389010288 10.326149852733487 0.4090938804191535 -0.08914631724936906 -0.05125879817497624
Ni 8.299817657305319 7.479730990483904 -0.19921721835222198 -0.9394936935393562 -1.56113964386075 1.5622842989881547
Ni 7.919602739042651 3.8442875935798204 8.020818260106786 0.355165248721498 1.4216220732476808 -0.7533257700575994
Ni 3.2445580039847517 8.37955635713775 12.235479115994721 0.2547281890496581 -0.4418913865651486 1.9785176186655669
Ni 0.24154947324224588 4.713387790424329 10.185620244992911 0.7613676665254695 1.6839712691777062 -0.13036315780731098
Ni 8.545039295594943 2.4083569276436387 5.558571812195844 0.7592202811651635 0.722969012142613 1.1749455508579056
Ni 3.6883066312812343 3.0820189570924277 11.905991525552292 -1.3036840285776 -0.18842355228515292 -0.5685914936985756
Ni 1.0308602447381292 3.5648171737309076 12.17843283815709 0.2980409929046802 -0.7840933902577594 0.6801215779597836
Ni 3.553032549343541 8.418624062735532 7.8431150013106254 -0.33958976288074416 -1.3961365273820665 -0.4068359376229123
Ni 5.7516938162896025 7.88325247181244 3.2143699811594035 -0.3780143854055297 0.8732962717766766 1.4461845930783932
Ni 3.338536080863255 8.416794320901367 3.782890696915706 0.18096606756584319 0.4906515866879872 -0.8884763219512247
Ni 3.929959367181448 4.73408561265733 9.253446492011498 -1.606451480423672 -1.2040936331767713 -0.9802690756845052
Ni 7.253069456244791 6.052333081021895 11.245092398303196 0.7530992558690901 -0.5638143840249064 -0.9987771617910218
Ni 8.120213097464648 8.977465263026545 2.524000234813998 -0.21715460167125827 0.2772289412553355 -0.20034370076150657
Ni 4.727346365505753 0.32209253483147743 1.2245076202496195 0.20904997028625288 -0.5734058843680834 0.5214413183753343
Ni 6.381115949114332 5.7603533865542635 0.12633552133396278 -0.7164744055572048 -0.54998904810604 0.6901900179393791
Ni 8.08168887954038 -0.2379171639575924 11.307004702444361 -0.655926982991451 1.7405327105125188 -1.0495716187350697
Ni 0.037355719426211895 4.868553521212644 5.601990136620106 -0.3588051594669305 0.7534088166897089 0.9742827761940833
Ni 7.157134823741636 6.096065722484007 2.477811029067601 0.7323795068232355 0.02931906067909144 0.8482164459899134
P 8.732796170538329 1.8781303533631488 3.4314081603261575 -0.5724126672168787 -1.0903002068026837 -0.7351028192916695
P 2.0711952912511897 3.5939028223918115 0.8070438684698635 0.34163533255586326 -0.024204879380977668 1.2653815334529754
P 4.822393301475501 1.234758703584887 8.150026113795272 0.797633333725723 -0.8708100150197132 -0.011400528527457784
P 8.836566083667979 1.537952360382696 12.233424732588837 -0.12330805073274248 1.1359354881432955 0.3257240606422455
P 6.719799350992621 7.764183380673363 1.266605269627243 -0.91489157871996 1.3409727377257292 -1.169295808771296
P 1.9401060643995558 3.5025063119625006 5.939843813983496 -1.0076376975054453 0.2202779777915884 0.6005670181639076
P 6.873461432550879 4.180570591566755 5.975506569306711 1.8499418917759818 -1.899157691379 0.0548377737754862
P 2.3987371958224366 8.381775598471267 10.306528136094045 -1.0526458867850192 -0.36549054190690605 -2.0384466909210315
