# total energy = -340856.3844196758 ev
CRYSTAL
PRIMVEC
9.39996150158826 0.00000000000000 0.00000000000000

0.00000000000000 9.39996150158826 0.00000000000000

0.00000000000000 0.00000000000000 13.75779382024580

PRIMCOORD
 96 1
Ni 4.775641066297585 3.5740157812797633 1.8506851101823139 -0.22680318050461581 1.010402661845092 0.016575387860177905
Ni 8.996693801015951 2.0945746326062213 9.25266697401436 0.9320966297443366 -2.727141869482439 0.24210227275553145
Ni 8.323590754194932 3.0817679947103467 11.236237460658463 -0.17462572717011218 0.02418199656284222 0.13655026045462934
Ni 2.3096457529054226 5.491664337562928 0.9528224026909246 1.0138790504294668 -0.9080773840116038 -1.5492956000379703
Ni 1.095330519793024 3.4309671663884505 0.3948416249877542 -0.2584997402769484 -0.3910066839001395 1.3715997185829667
Ni 5.10346472540749 2.2604087542984637 13.622760799113145 -0.6450818127468311 0.5775471602299665 1.0267723614523672
Ni 3.4323113608903206 3.130318796124043 4.224963118723805 1.7017769299005596 -1.4869946851162197 -2.284518489847272
Ni 4.274322316830934 0.6931277849142601 8.743999334606716 1.7123184528618316 0.11185969968648478 0.3177574974970011
Ni 0.8445301456364253 6.68871184130515 2.081265227045398 -0.8287686216779468 1.096297562036699 -0.16147376316918644
Ni 6.654890779642714 1.5895428983267124 12.286576944477359 2.356265123562955 -0.9339136283484175 -1.4742957494923126
Ni 4.223806923452965 2.8832784065880595 8.524232933512522 -0.18916685820908066 1.3258351107533424 1.3110324985228712
Ni 3.9327559139326786 8.772805516781405 6.9803334284916145 0.6277536058810285 -0.27070630964546927 -1.576623598428962
Ni 0.38649445912998803 1.9846420822609787 2.621933155562945 0.2903323114065129 0.6348958733527647 0.8393867635134254
Ni 7.368723859866548 1.2999488828469141 0.8025677772742021 0.4033832031876214 0.9272195041576934 1.1191664962150727
Ni 6.7707265058423225 8.96883231497719 5.5776984256595386 -1.5560200632459977 0.9802978720399116 -1.484460091619824
Ni 4.844072786392785 7.414125674160479 8.809060228489534 1.1576402268102386 1.5841998681143232 0.6025277414347042
Ni 0.3104177503049214 4.1559862008586155 4.703349721989323 -0.9199723356769768 -0.3670537726289678 1.5850025665212768
Ni 5.526434795342069 5.312538670236809 9.594300116639632 -0.9133607438977303 -0.6336355185831023 0.5944467641987826
Ni 3.449635490029806 3.8336709192179117 10.881149213068321 -1.1848913492167077 0.505453170477194 -2.1313205935336326
Ni 6.609065967078964 6.767417719376182 12.08497032910458 0.13001914420433092 0.6924505318387816 0.2585159382268645
Ni 3.4694224090957944 5.1813622067850895 3.347491747826168 0.08084885312726722 2.108481998372562 -0.5326227889134505
Ni 1.6338449171191134 7.660564466157164 6.105819285498092 -1.494613378003742 1.2155211582874228 0.5042205836216735
Ni 1.5934532823321523 5.040024384896157 11.913713369593257 1.0766491916781522 0.20783666670444206 3.518077993693644
Ni 9.300744957362014 8.363371391481042 12.993273573891265 -0.3081719106910951 -1.19571312242256 -0.15421091095918601
P 2.172274714791239 4.031568309762451 8.72716024348329 0.23607457850421276 -1.0093477382180165 -0.15879390234417814
P 9.014440928425255 8.481228109414232 5.562895366208176 -0.5113746781679516 -0.0746794910917617 1.3009103224872047
P 0.30895981626827784 6.168828167774209 13.577098605884235 1.139459956356786 -0.16627709809510072 -0.3686254879914619
P 5.051793136758683 6.024839556727743 7.150145613912468 5.035664949774424 -2.564810900519279 3.525397924393825
P 5.250348524611831 3.4856749426184046 11.632365940382623 2.423375801168523 -0.6848675772852011 0.6568664640865849
P 4.549355791867399 6.565760344211026 11.481745656461547 -0.5176165453126054 0.8229748978143053 -0.33040938193305674
P 4.542475020011673 5.749317283690598 1.220977925860129 0.1556640984659448 -0.5013270641239624 0.07620492659735263
P 1.914772168048393 5.928442951016716 4.809683027056482 -0.03704445434780717 -0.5535682808168659 -0.7425749592989985
Ni 3.4742069895255274 7.6472635205617365 1.0270726989865273 0.24401877305195394 0.28220119765894625 -0.6395490558540599
Ni 6.5562945829286265 6.7001139946671655 1.0693029662529692 -1.1106111504458938 -0.12253003491613736 -1.66457589537023
Ni 3.2750218042484267 7.9765159738274765 3.384884794878188 1.0917333397047844 -1.0461029434601792 0.9932557177521604
Ni 8.76823713546736 5.52003342152547 11.623423756958644 -1.0828098119629095 0.7561699243746138 -1.34575704648825
Ni 5.2178152576819565 0.16906958845828182 0.8931025669616902 1.4338587245231889 -0.24126152202179096 2.814997750055159
Ni 9.197232580756472 1.2086376563352692 4.880660256739839 0.2933654418058818 0.9493438468605585 -0.9482940654398055
Ni 2.9299868155376543 2.8553605207799904 13.213838031721185 -0.23817259868382207 -1.886310917323319 -0.8862371482080608
Ni 6.2717483468020045 8.798298212509177 3.294922462849189 -0.8539659468791809 1.5025861117965735 -1.2925280119607803
Ni 0.5263339271476057 0.6007703426819287 0.8251342649709807 -1.0468459922737907 0.4236478669739284 -1.053377365634405
Ni 0.5779058762039666 2.5688214928044424 7.166586146666108 0.7836725006702568 0.1391262487119217 -1.2575514958855953
Ni 0.34589508519273804 8.524646531820789 3.5336617463390088 -0.5839988293925813 0.15966910586027985 -0.5517556530881594
Ni 7.297594350806056 0.4454096581504107 8.873323065636628 -0.10753433283825352 -0.6360220165374079 -0.841345687012009
Ni 6.535924866246442 5.514280645055929 3.079874842453867 -2.20685574775747 -1.261549304191079 -0.20732733116819133
Ni 3.24015734685377 8.804436387402333 10.22909832013813 -0.5690296096772587 -1.2787723529375847 0.7271565678613993
Ni 3.0998817206201617 5.954781643284126 8.480221373532062 1.0351467015589915 -0.5576463075409815 -0.41568978846911636
Ni 5.166905065918823 1.4874969157232103 2.859282184739292 -0.04128343212981922 0.2844108037157554 0.7156837913351094
Ni 4.84147839700456 8.714685554508243 12.799921064756893 -0.3850473809929111 -1.4696369105640625 -3.4059678685592503
Ni 6.236761689907178 4.572423297514874 13.24951182580543 0.3357480205371508 0.635568731050073 0.23532047394700764
Ni 3.6143134164512087 3.6170206053780523 6.486153009827201 -0.5347835440101951 0.4329925414136221 0.16273617482137778
Ni 2.982720599841785 0.5982455130091856 0.39252359446914487 -0.18230021299623442 0.337703858711941 0.11530754902576915
Ni 8.460284995077405 3.8749743502753717 8.243133663286848 0.2554295859920569 1.5587791140483735 -2.8113838074516546
Ni 2.1016716035776333 1.07178361610642 11.502025133512836 1.606275359857124 -0.2996908698032774 0.8169862843310381
Ni 3.6631650166345544 6.689379238575309 6.120031087367863 -2.5379935232161195 -0.0033817719880393374 -4.607935199421638
Ni 4.836834815998101 1.5149354034921514 10.967190821134173 -1.9993029308420343 -0.9152481907284302 -0.3589995348659237
P 5.4688412309157926 7.14554057274837 4.240372475695242 -1.0061068626832157 -1.6718161218724112 0.9926980454764774
P 2.025879713587578 7.785659154485039 8.531744442788355 -0.4377837921546783 0.3972457228313158 0.3198524323528169
P 1.8451372528745957 2.639546803518218 5.33755666790623 -1.8415837496192735 -1.2102064309427287 1.445056907231853
P 2.534803031949424 2.368846710757012 2.0200160175717286 0.4936011562346144 0.8318814562753157 -0.7629671498021052
P 5.774311781456139 0.8943593418211309 7.039780665335854 -0.24916997823559023 -0.03712004478074898 0.6353810405192993
P 7.518032849151186 4.636831834066016 9.769134701517471 -0.5443272218345722 0.6723599317364937 2.812304005273079
P 7.256535318748935 9.00928034953346 13.181782282838128 -1.3846652935176733 -0.9076783488009723 -0.42124877061413263
P 1.869595952831699 1.2892517266012633 9.381962505159617 -0.3149112862974576 -0.6126002951793579 -0.821114961787431
Ni 6.13607870172865 4.094350652965177 7.3884722390901745 -0.15415820334437966 0.21457347120764336 0.3254908615855168
Ni 7.8089052594019925 7.158728718805177 4.199277723784226 0.204753399793428 -0.7306064740832128 0.4395815074850494
Ni 1.489094909186972 5.06814906985836 6.884276161392599 -0.6758610029112168 -0.006585109416685433 -0.47541394380262636
Ni 9.352754944626676 6.742677020572532 8.114305310230703 -0.1002938492257563 0.025107593700905144 0.14389487374515864
Ni 7.340326576019351 7.510174481294099 7.035033684752327 0.29010913965211327 -1.0818883285899044 2.103469118539003
Ni 2.061223569021363 0.30695856445395525 4.3651005655226065 1.5584582403738452 1.9594621446960123 1.273972103335464
Ni 5.766368813945089 2.60785013316643 5.2344550696204895 -0.6661381191964978 -1.9013855522682546 0.6754195444984239
Ni 7.3208310557614595 3.151835308115515 3.4140378356341294 0.7200711217695276 -0.4487888850159303 -0.1408656000005316
Ni 6.395010042627329 8.895926213183456 10.608249529304056 -1.1993887715019342 -0.4623445122131779 2.033435610859685
Ni 8.047269484425906 1.0743404056484387 6.82969904462821 -0.48271536256004605 0.8588387015904498 0.5529615004708025
Ni 1.9889848644977897 7.569648038030683 12.105854223683634 1.16384172763526 -0.4247403287071588 0.6848320960615755
Ni 0.26774756483786755 7.681122182070379 10.587544233994482 -0.6775206500018267 0.8284102098972635 -0.677527334870046
Ni 8.027839763898877 8.219768178858189 1.8160697517687734 1.2499112057315185 0.37948299953125614 -1.18686364245173
Ni 8.550111027663908 3.951386637727828 13.301048995004049 -0.7073097083388012 0.2612199674215888 1.4485569499653117
Ni 5.282552792887402 4.809161329190371 5.1309972127919465 -0.224084238911556 1.9495122325721523 -0.14243525848049662
Ni 8.28868869695407 5.334318381151724 6.383369130241904 -0.4108908244185762 -0.024038271896126343 -0.6577630077589253
Ni 3.920507764031024 4.761052325969597 12.954888830895557 0.48545744408155744 2.647285719285744 0.40653820387683537
Ni 1.1182382260941235 4.267262945705728 2.6694386812521103 0.7661501755157772 0.23626432591751564 -0.9722068675016611
Ni 2.448859183483708 1.1028504890342548 7.113563783542346 -0.5216840305137597 0.5775111647857086 -0.13316823135627387
Ni 9.200936165607779 0.6681144872256161 11.196326163906786 -2.2694950198552464 -1.6192434899820176 -1.8360026559870701
Ni 1.2358881448731793 3.248025114672408 10.555543944884578 -0.4667644956577445 -1.0810149248460157 -0.6746962931791541
Ni 6.558616373431857 2.5039147582910686 9.590200793407003 -0.5520868111753331 1.142443464465142 0.05482080449462171
Ni 1.2002340907081936 5.691996318149316 9.850580668380777 -0.10347507516721534 -0.3174031994813759 -0.8764970381021614
Ni 0.30117194812282816 9.21401151212597 8.137817434059565 0.518173960477972 0.4259567176127632 0.04313976861226764
P 4.325279508401824 0.8878188485735704 4.806133601574621 -0.4564911387561944 -0.47205402619145803 -0.3075954693623348
P 8.015384814843088 0.7294952961610074 2.818297412378429 -0.10009793116486632 0.43112592051852844 1.127233332383607
P 1.9046954092651438 8.918354521445428 2.001015875287604 0.499640677560475 -0.9323051462107169 0.4990565229222308
P 8.54047606707358 5.50976866351119 2.671777391686133 0.9605443435620684 0.25547303763548257 0.869533976520767
P 7.6812537815321 3.153235902386694 5.964595203143933 1.7715836662810522 0.8775722734442111 -0.2433914238806002
P 0.4530584068648976 1.8236771406524332 12.650992773915094 0.47110426068367894 2.1196233597013623 2.25610265770874
P 7.713345250269052 7.6008841102664455 9.545336656913822 0.459589318065544 0.21313905275396197 -1.138434343305749
P 7.095147378870571 3.609810834868022 1.2538401914443076 -0.3718895034547144 -0.46304899447937026 -0.0221996760254908
