# total energy = -381165.80435640394 ev
CRYSTAL
PRIMVEC
9.33543972077121 0.00000000000000 0.00000000000000

0.00000000000000 9.33543972077121 0.00000000000000

0.00000000000000 0.00000000000000 13.66335967206513

PRIMCOORD
 96 1
Ni 6.02945230593696 8.339338773216747 3.1025661038906556 -1.4886301638371138 -0.4337433035367176 0.005254306420403854
Ni 2.4112039922134554 1.8016277989402805 4.815473619963562 -0.13453220158333606 -0.374720030924974 0.9099635452907231
Ni 1.1666405393380308 3.7235800776437653 4.901812432213542 0.6437957469455557 0.1775164184543459 0.8994672737450897
Ni 0.8414797130725163 0.8720990211007059 6.65081822575936 -0.21964008709727334 0.3437397804933758 -0.23046108897217726
Ni 7.329318902432311 0.4771679206163799 10.56095679290114 0.706037526494597 -1.000325223004432 0.872687177437768
Ni 0.5821757447858616 9.301243788799107 1.5611478108688888 -1.0372660618948395 0.5832735211907826 1.555111178278483
Ni 9.100009054857326 6.104378543393666 8.868436009616415 -0.7195684711014962 -0.4767018093761145 -0.3610103946483653
Ni 8.518989971025972 4.841947059308158 4.79624914939359 -0.9515156577008967 0.04592967265257897 -1.0358473271704418
Ni 4.036307965578251 2.443392587622217 12.293184001026955 0.6582515173595695 1.0492612865835027 -0.781935463374492
Ni 8.169172381943282 8.380750782855165 8.524952516236986 -1.0969022855002335 0.7572837262640829 0.056536244523831665
Ni 5.107241579124338 5.928956299679618 6.167489848614487 -0.7935532501190784 2.6641398147286055 1.9387732488880935
Ni 0.394484866476049 5.614949456533124 11.164836500989157 -0.7861245617551751 -0.6350704512574159 0.3225217516548639
Ni 2.287173342967282 8.928068930078156 5.372542633748169 0.3932438007607743 -1.4759893351446516 -0.9505538080082598
Ni 6.424210700790468 1.2723923980359577 8.604500729791974 -1.861000977803621 -0.4686141472719736 0.8638292128265058
Ni 8.3334201045714 8.039036355261688 2.938141007911967 0.9349312709796543 -0.30900494811535173 0.6483851660884512
Ni 3.5511078328128862 0.3251626933534153 12.321453578932061 -2.446680280222419 -0.7566664043950582 2.2517646924550188
Ni 7.126879896794551 3.4864972560077705 8.503555688894503 -0.19328242303935098 -0.3013700572779132 0.11593952618281322
Ni 5.872355529968678 4.005799749280155 11.33601111972902 0.03557198356733874 -0.9060143308349881 0.2515503055423087
Ni 0.5442831958403387 2.9566550515357073 12.406767359924535 0.4994193055782882 -0.6105385275543227 -0.36197198723068624
Ni 3.868820845442348 0.8340347000683147 8.758158329847094 -1.0727282593571912 0.43248474853926805 -0.544187096712282
Ni 2.6699637043770443 5.856261232264296 10.831696674579828 1.5811248287334252 -0.5655089981185099 -0.003252445499026657
Ni 7.434239907014408 7.008058422791442 11.32572253185199 0.07534206437642509 -0.48432667291122394 -1.0279692099739457
Ni 6.723000777545927 0.7221074481386895 5.183154572536584 -1.8718734017417502 -0.5403633520908178 -1.4601734511583175
Ni 6.769930031931033 2.8361065212244143 0.8832063270222095 -0.9233137413453841 0.7170912132055973 0.8646920750474335
P 4.630742075976422 6.901681089646768 8.03835953589767 1.8446942702237974 -0.9014305681190475 0.7877662111236562
Ni 8.105112596068885 8.811665334906507 12.778738880493458 -1.2541784656483046 0.4645291785693226 -1.299158887013737
P 2.888403653324148 3.3998457065344163 6.622670942111751 -0.9066190542985225 -0.46607544001051987 -0.4904163307487296
Ni 6.187071866517451 1.5203416712542608 12.519312617949307 1.1749409228722152 0.4987839859871346 1.0678138527747094
P 4.682684461375016 6.595291965135295 11.59469988255238 0.07629620075957827 -0.26674706788740515 -1.292257274797897
P 8.789288286416136 6.212426920209504 6.349403956959409 -1.4419525572749168 -0.27742974441223184 0.9083152110540227
P 7.087577696483969 6.163070451553435 2.9121539449655143 -0.3340639479665085 -0.4123134157977157 -0.6360261303024659
Ni 4.68161088583209 1.2420988968464475 6.671176018685081 0.24352923501004514 -0.3666683642650911 0.05878724534153747
Ni 8.579829030271593 8.392457423992807 5.409173964816743 0.31939888975516606 1.7404807742286605 -0.24843875649652053
Ni 1.9168457932949603 7.183153926122861 2.6464561341627744 0.0816806049999432 1.372297773091256 -1.115054788039544
Ni 4.214717549933484 8.088831589574431 0.8227668245873474 0.8963888919300821 2.409479502802405 1.2987549667070988
Ni 9.18630585762954 3.476013557445114 7.202147811337092 0.2069504074447468 0.08635152811305129 -0.3469464603561315
Ni 1.8064075439661755 7.212681921273068 9.08006762253347 -0.4654560612589661 -0.8888434754826563 1.3863138848646899
Ni 7.527762339962486 5.488360896862938 0.7945457909676588 -1.355722385231078 -1.10428957910324 1.2869345770334029
Ni 5.2697809163232785 5.1116479065700835 9.443622310845855 -1.0171950021765772 1.794538989525645 -0.036038638791112125
Ni -0.10219692333491741 5.639221599242748 2.234738046362893 0.6949265041831 -0.5435960000955026 1.7358633300613073
Ni 2.106700626481731 1.4661774512537864 0.7063277547455835 0.2062955474695673 0.6833421417796102 -0.6583034536434276
Ni 6.233954443705038 8.464863092783514 7.111559507025027 -0.4111386787633243 -0.46869230880807666 -0.5905240321056088
Ni 1.436985531925713 5.3432975024149245 7.00192503903751 0.10653571637041007 0.2688209196972983 -0.17399914932970678
Ni 6.4268806364885265 9.169175326140248 0.7844233739137956 0.12560456007640303 0.6590992100718455 0.12958771309386713
Ni 7.756648645714232 4.29854979667672 12.638006196431213 0.6414897245201985 -0.6167132889064669 -0.9934380089662954
Ni 8.49953491510026 1.5518581150187558 0.31054992989827185 0.7271151731005027 -0.14449291234047373 0.0965426097134402
Ni 5.49593193830044 8.593048012608833 12.088697733506033 1.387751645752481 -0.6980154275210688 -0.37918089490980506
Ni 3.188668729521192 5.015698259351043 5.194686640955506 -0.19243215922391377 0.01397908788791141 -0.2540483893738141
Ni 9.036378699200098 1.691899043013777 8.858884921460179 0.5277603186148265 -1.5356430422515424 -0.1285474447548109
Ni 3.5705628887385994 6.363651704729959 13.387236830503957 -2.361857787159384 -1.1364178270963525 -0.8362561883042438
Ni 3.8452581961350063 7.18592655165546 4.298342549919738 0.22782776511438826 0.34052024511481355 -0.29577019459263254
Ni 0.6145407800012433 7.737389634018096 7.173400258929394 1.2735607268296583 0.9385626970846546 -0.236428876519838
Ni 1.8945901055181367 2.3243377276315162 8.335632603733778 -0.03180326055352587 0.5167973918454195 -0.4700894462659194
Ni 1.0723152585926343 5.4404887630879575 13.74725245370049 -0.2539530014465303 0.5737139025268055 0.13020400652162736
Ni 3.0812738334706142 8.157699126793235 7.5450982511208595 0.4957061183927592 1.0010901261949148 -1.8414978747736868
Ni 5.767695917692684 8.198840408686044 9.462805705482012 -0.20258287450467044 -0.32695587616681754 0.37765674495579477
P 7.597582092010668 5.010395729712942 10.095993092347948 0.35744581722555857 -0.14687555364003738 0.4984456288111093
Ni 6.048776665709622 6.739095075250309 13.334331961292532 0.31989434133434586 0.7735333553537258 0.4059651049821847
P 6.60963120021298 2.907391937274676 6.221228372573593 0.16522705956403158 -0.5711065468109455 0.19357321480689244
Ni 4.688967212161006 5.845301426286951 1.8183335679321537 0.13875061054005783 1.3766020568935646 0.9566120983871979
P 4.737623522854298 2.9648328965409494 9.670720879932643 0.1411265669714021 -0.32489925074810494 -0.5697785720281413
P 9.250337637185424 3.6727579449856163 0.6998629628892705 -1.1483883691946672 0.3342917477065985 0.5717400666298863
P 4.419387725612628 9.758708330798976 4.679085649446338 -0.7731307205986685 -1.4274502498936836 0.49813503954922594
Ni 5.24968171507181 1.3935383964754877 3.0027963948267002 0.9630581111228576 0.5848640056063541 -0.7267683312840452
Ni 4.778120659421353 3.748206967054529 2.641687591664284 1.6786958797113798 -0.2385389808843053 -0.8340303842975184
Ni 9.344588234414791 2.8780599863540473 2.8644274440467923 0.5858132568935008 -0.2389783824145691 -0.7481408834225503
Ni 3.027296322260214 2.492002221117989 2.753057517855538 -2.103103507669468 -0.17544848018172365 -0.2810855959972643
Ni 6.871798347795421 5.69721334943974 7.832411338550469 0.9442710603233415 1.6370116125987162 -1.0682008038004829
Ni 1.7024014124554407 1.0876440502577116 10.494649033194252 0.07152474751286392 0.4043213987311746 0.8809424754680248
Ni 4.945253032856114 0.9435328706390768 10.633017983974158 0.9294645914381283 1.1692186756764573 -0.22656046836619045
Ni 5.521679080451647 5.084005670199625 4.316733365742029 1.1253993644986617 -0.7398989551287322 -2.629962397515948
Ni 4.433979017556913 1.8982215914850764 0.8718180243716445 0.5545206174278063 -0.12204641041149951 -0.7022798592243775
Ni 6.924608929067858 6.883308944703484 4.884610017840071 0.15918599557627425 0.3388801384082293 1.376623139939487
Ni 0.8609777120199467 0.26929848981931714 12.687767823161742 0.1642065887193172 1.4813554845525714 0.36272043536093657
Ni 3.385833211839361 8.367839870021546 10.39584927629473 0.9215931591098515 -0.5254864349789853 -0.38551017956194256
Ni 5.098512943188377 4.653716592595031 -0.16062090438093038 0.2622723199455031 -2.535604711268969 0.13314560564845457
Ni 2.045590839490503 4.9685542898573525 3.103768508498732 0.7075609051176589 -0.7757113368416512 -0.7611938599517665
Ni 0.09689439369681513 8.386949514685623 10.40684829111799 -0.005452281363822868 0.3799779368898037 0.3612780464874552
Ni 2.8783213786601505 4.389617009035325 8.752378759250352 0.7692401272950107 0.4661834263432939 0.845082528346622
Ni 8.317017737363399 2.6542801660108264 10.614407785323529 -1.0010546449712887 1.5360251081813094 1.524533305491626
Ni 4.900638967467927 3.9448860065185047 7.275574777209503 0.5592640456500626 -1.2846635216110391 0.19054882615827184
Ni 4.719232707032006 2.7779560685558593 4.906102066665492 0.15133924583834582 1.030530800053535 -0.14787519854914533
Ni 7.082424533877926 2.9231221528384124 3.7859118736660275 -3.683649066860656 2.49709395678828 -2.1135771535072827
Ni 0.9573773274230657 6.745648553781907 4.763798228134774 0.5923364027239992 -0.7687495608118373 0.09362697872854198
Ni 1.7055941327657067 7.73596131177403 11.925530121228494 0.7651448741797144 -1.553717126144434 1.23838983535548
Ni 8.50985057575185 2.41224956143787 5.137519210066691 3.039844578164352 -1.325244528357195 1.868845413548704
Ni 7.904269950586258 1.0888296510746818 7.015001189150345 0.18190374888876415 -0.3282432275196734 -0.428505709286862
Ni 3.3521602815495104 0.12972993506318325 2.753905175762474 -1.197838139185363 -1.1671440525356156 -0.19520200865956705
P 2.998113738371644 4.049750998463581 1.2246780331885907 0.5206833571633871 0.678051068584 -0.6394356702046471
Ni 2.610366258585416 4.098136581411263 12.562270576369539 0.3440737667940268 0.6274167913669001 0.544212807743895
P 0.4134386093004135 0.7029035155356259 3.7325290299520133 -0.30808989250025004 0.060981424779378846 0.5146749461857782
Ni 8.677309689569242 7.451109046197596 0.7317388210746582 0.44801112630964135 -0.31768447816722056 -0.3892907296502973
P 1.722453936509391 3.624512393630489 10.543768381686924 -0.44351452399086844 0.20443355456016404 0.12758148129711577
P 2.0891780065332837 8.252528521271831 0.6316134317656119 0.5360043037911737 -0.5363436894084634 -1.473430830388856
P 1.6316947936544082 9.479672044033348 8.561665999173192 -0.42577211240578283 -0.5784503887705263 0.4621159411421396
Ni 7.459380245597876 0.9297350910526064 2.826293107218123 2.0315319660790694 -0.5383113546577956 -1.0691958207239005
