# total energy = -340877.3049472455 ev
CRYSTAL
PRIMVEC
9.14650245764981 0.00000000000000 0.00000000000000
0.00000000000000 9.14650245764981 0.00000000000000
0.00000000000000 0.00000000000000 13.38683088940412
PRIMCOORD
 96 1
Ni 4.247818738610242 6.387039353271794 1.5427515697512506 0.7912891366752501 -0.9327111233998839 0.5750719592165967
Ni 3.1666381054874204 7.100539728280423 3.530924096485859 -0.11624240213521271 1.3944833080493595 1.3561517594590127
Ni 2.107354199594763 8.36255586435545 11.226544430581537 -0.008879818988133094 0.3703833512228331 -1.4394706713933274
Ni 8.251983794394942 7.885629779158099 10.302424796196483 0.4627700297863707 1.5590089706709924 1.634869883665365
Ni 8.587980567494393 7.545928672504672 7.5015516711783095 1.3737105942783825 3.180649757240593 0.5899146806563841
Ni 1.6953316968640975 8.6176335289314 7.244859648893036 0.5443984413921399 0.596310813990715 0.049486279655585746
Ni 4.144435819695226 3.2377613097237434 4.753891069000426 -3.551100985586885 -0.6980493660827979 3.1053105210776453
Ni 5.361442016463804 8.21508680289683 4.750209601702957 -0.7745772232372079 -0.3276189636721132 0.48623006058152385
Ni 0.7266914610618221 6.690575188635299 9.301839485405038 0.9275432060456994 -1.8357614865105418 -1.7600445552932011
Ni 5.560296129542753 4.1422955380862625 1.1891496084426847 -1.0960682196347122 -0.15654855795342718 1.0108832010259365
Ni 7.386660622688945 2.3935848520345133 5.092498253942605 0.016424721214926552 1.3652573213047068 0.814278655591888
Ni 7.7468316021665595 2.5672952294594427 2.529495478154472 0.30945669094078965 0.1168124157060698 -1.2649115357950926
Ni 4.700918184528321 8.668332592856547 10.71156706525765 -0.7391926730903269 0.720345972697469 0.6322630637156079
Ni 8.923520015463724 0.7464341869291196 6.447794082158027 -0.3861195310111673 0.317067413408512 -0.7006191836925031
Ni 2.396822713955766 6.917070032578724 12.897636066248733 1.1054599452622573 -0.12958617043197038 1.3825521038294126
Ni 2.7798142174263885 1.09276010541747 9.637260028840537 0.22199213226921768 -0.7387003068349406 -1.7776753810010868
Ni 4.302258722099774 3.2369930035051415 9.106498543975674 -0.7291748838430087 -1.3360279921259441 0.4873055530338898
Ni 7.231755454614566 4.224879310083403 7.016251962848454 0.7461513637963472 0.7771010181003261 -0.4849079993359906
Ni 2.0500696537958825 5.1624415593432165 5.5007560562021185 0.5251015408357409 0.13663202153515824 -0.8934817455856161
Ni 7.933749529349366 5.0563878616682985 2.3230836099751535 0.18654227610204002 -0.4182722044843119 -0.6847025124622466
Ni 0.664096455851984 1.3266910559766527 10.595502520484395 -0.9208971614840915 0.891502253261742 0.9825236760466369
Ni 4.974727886434001 8.984051569686459 2.5656534322423106 2.0299458525388716 0.08361073214312051 -1.4756630621534843
Ni 6.492022910142231 6.879395588359406 6.662451522433416 -1.5551844547185798 -0.16212348093804338 -0.13890950471542526
Ni 7.859223826144948 0.5358515135631035 8.761239107690765 -0.04742991134718928 0.6596252577786446 0.3640658936452375
P 3.8100396845511963 6.61767756289411 10.831887477691804 0.1522710136239958 0.02549145940288513 0.5178962813365532
P 1.343072442137565 3.6313627562131594 10.423200704460235 -0.16865022631296758 -0.9107284484812057 0.45173922589350585
P 5.614900750079127 1.840541572179924 1.8036207997750446 0.4634940524365888 -0.015910243472353244 -0.8538499901266068
P 6.142342969149578 7.951640088439676 8.65338171970265 -0.3418345930508629 1.2788654268720232 0.4231914961628002
P 1.3792377134274856 0.0061473643990783 12.990407212844437 0.2879656109465492 1.2479980478692054 0.9649350164305962
P 7.072761799876911 4.7567941689264295 10.338877267668117 -0.37526973278085696 0.7409659629406657 1.031068931945192
P 2.374002189962758 2.552852901850241 3.49943817592733 -0.18983971590638918 -0.8496799179093173 0.5425328489383108
P 5.3778142561221145 1.4718643452820697 5.037959488224968 0.47849592516205985 -1.260892901554003 -0.48570067044061516
Ni 7.587563552350833 7.215675903039534 3.5006299652164237 0.2389094768498466 -0.006866902323162367 -0.27317636845251664
Ni 6.225402359282043 6.979924798462472 10.756640115432056 -0.08858581676020873 -1.7559701281135112 -0.023361557544075894
Ni 8.45091107949471 3.309881482743729 11.314750557728377 0.0693591073201128 -0.19439571070818779 0.6069857772060578
Ni 4.282429104457753 5.694813743316365 4.993060221600007 1.4346423967667485 0.009302508347848496 0.6662615321482397
Ni 2.6512784163547516 4.971828445109038 11.641910894663644 1.299147317049511 -2.128104143478864 -0.2755289278450932
Ni 3.3358941361449768 2.084524529099153 1.475456176854035 0.08757228789402983 0.4650696244538248 1.2359938243194777
Ni 1.9087653350912843 6.4128965161288 1.7230995641147475 -0.4354908823554435 -2.3323759756501827 -0.48909838326825444
Ni 6.727408154615196 3.07983779579057 9.062924605577802 -0.17233898801846448 -1.7515519444411578 0.48021445051506323
Ni 0.9486295174087276 8.590120849103357 4.913743580332448 0.9942412215938814 -1.2571655733010867 -1.3286448122879957
Ni 6.65657763846215 8.869436745575687 12.407664324389568 -0.09844008384646917 -0.21235692317229882 0.12101668359540446
Ni 1.0656773112117406 3.8164239433676768 2.2463901856539645 -0.6694147330652407 -0.3428982584286869 -0.47420938197156404
Ni 8.842582613935017 6.068795941723616 5.882949984645811 0.17237986855872892 -2.077046662681416 -1.1373933036357444
Ni 7.083261984864475 7.115530846045769 1.004091165238948 -1.5114085951842098 -1.4924811621520877 -0.38929458630503927
Ni 2.9342712068732495 7.624487983356754 9.114932534025353 0.42494447429816495 0.030360614569728356 0.8678049096448023
Ni 3.152707982023953 4.676122015973193 3.113508815820814 0.45088613386459114 -0.3939462261444377 -0.8010513582683365
Ni 7.424490557452503 6.217234532458092 8.740315568337495 -0.9506669365473562 -2.0248193299455837 1.0889028122345246
Ni 0.19511776676586493 1.5492986363140544 3.918766904936799 1.516061520575189 0.4863105361104721 1.1016493132669156
Ni 5.273306317387003 0.9485654918905106 8.838495041922002 0.37500105250050253 0.4910814751365542 0.7263646680877233
Ni 0.21444707071553337 5.151246240157871 0.2996814991668514 0.3981021572943402 0.6493950954102041 -0.5807456125626063
Ni 7.227045005774326 0.39775212937038856 3.756599413796108 -0.5479321655770112 0.17142418951367894 1.5598276099175459
Ni 3.3857334288254974 0.46188191771691084 4.043666056573718 -0.48450973545630743 0.5063998506611794 0.25451761570074877
Ni 4.79550216793982 5.7077743375039764 8.944063060308732 1.3368080648250784 1.1971781370038606 -1.0609796034616954
Ni 2.05579536442499 1.6040496008920675 5.690487447585426 0.2863902960396294 -0.0030133329050270686 -0.20091988497995075
Ni 5.017515225608065 4.49825912636677 10.879570939708938 0.23861714242040838 -0.20130786444698878 1.390732582757676
P 8.133554878698964 6.802199106395085 12.467678186565008 -0.8956885234289477 0.23890844840858208 -0.33490264181771995
P 0.956376605112967 8.133097553568845 2.7261343083031173 0.4939027466354332 0.9498806932006351 1.92490651820833
P 4.237757585747594 1.6958896335228444 10.933774943431326 1.7414439094728784 1.7783765208331694 0.6386743665585904
P 1.0402866199874563 5.182701062607551 7.425648504681969 0.39957668495733767 0.24916406469831928 0.7016869628353851
P 8.374931082376508 2.4077070520526314 7.558245352909075 -1.6963611582016267 0.910320928630142 0.15774180693057996
P 8.208409855997072 3.383510828693112 0.4549168559851773 0.9506826202766402 -1.3843536758145254 0.7544002340687007
P 7.557755100369586 1.1904081672007758 10.920775933932784 -0.16346045458191202 -0.05533014003087245 0.45916971402962214
P 2.770155510678246 4.572912880607623 0.398380494099174 -0.28603882623748156 0.14377634588942334 1.40838012063611
Ni 3.0909690894577007 6.373447650404616 7.195916713467552 0.6163726177375966 -0.8207640062059155 0.05230395161003896
Ni 5.387628453414498 2.5622463600229137 6.987751460739351 -0.5616070919609425 0.145855082795323 -0.6024549792152399
Ni 6.676096275015688 5.34000261436376 4.885350092303793 0.2693683075603361 -0.9136173399932265 -0.9484308481279858
Ni 3.0686150370974157 3.6671164348859713 7.12487308380387 0.08512176947100825 0.4551279398600807 -0.7341455975847229
Ni 3.448981494321147 0.8784054143782211 12.76109067284817 -0.1476494556915844 -1.5772139237147933 0.38956712324013554
Ni 5.1002270486416394 6.260287120207626 12.745548020975898 -0.6525488105478374 0.0014051078776427413 -0.5186197897661391
Ni 0.674957013042083 3.448844296782111 5.979388878785079 -2.0236407362564504 -0.20513623705414347 0.2629742311085342
Ni 0.7514510436065401 6.0407802042524406 11.474254587311249 -2.0769307059288424 0.527525319785885 -0.3578332824719644
Ni 6.356453448569342 0.24774582808985932 6.648957687144084 1.3299648166509999 0.3940189883639021 -0.15349563005971628
Ni 0.2279646869116319 7.754249415777113 0.8553571424704135 -1.1888212803987332 0.5380467881424992 -1.8995209882556898
Ni 4.196753814580999 3.1270063097111875 12.801184367005822 -0.09424352926661834 0.6771339560863693 -0.7315079028515595
Ni 0.9565412421598104 6.066802004156291 3.8154205720321928 -1.2303124576639841 0.5891973428743853 -1.1455025630064402
Ni 0.8111859374526055 1.161185091386083 1.7421352653308786 0.5827623858823189 -0.5874929585887688 -0.7829358796145484
Ni 6.425610154746147 2.3550780760783763 12.850112668027144 0.043503579709589596 -2.8989566095663175 0.25238771384193953
Ni 2.9337772957327193 8.626240387880266 1.6133140933780465 -1.6482293356914064 0.7067949734859117 -0.9349220150082738
Ni 4.25502618266094 8.577151108413142 7.413774515003523 -0.20951636839971016 -0.6436257970265948 -1.0341272591555415
Ni 7.317494770009537 0.16354586908287358 1.5163794587977282 -0.07070096605998791 1.3480155035051233 -0.6276569324021642
Ni 2.5911218687387154 5.022490923023776 9.118131980635676 -1.574921785246507 -0.5194762242291634 0.9520154801554508
Ni 1.6748160915268968 2.7467038780056723 12.84090305455678 -0.586501284099461 0.30612171303028574 -0.012606890130733127
Ni 6.765695414508875 4.495496882580844 12.785534701053102 1.1545816424895727 3.766577428224771 -2.4433514729595016
Ni 8.77265760153961 4.266806878012841 8.996793562461875 1.999416059381131 0.3270111548847852 -0.1500812050615286
Ni 1.2158811769484819 2.4560554648089585 8.313797688282534 0.8185579996935322 -0.08645565779108336 0.3487246353024768
Ni 5.6840117237429215 3.371775865854223 3.4200538505405125 2.3317702237453846 0.2699570901842705 -1.3622306186632411
Ni 8.712089461306466 1.2219270151686732 12.98024636310342 -0.3540619883549902 0.29797954353912554 -0.11906290230314334
P 3.2608928148052327 1.4924897086504991 7.492007295712697 0.8262437983735642 0.36545197535948676 0.3990141275856483
P 3.0559379844904786 7.774243670465976 5.614517511620086 0.6613625521847255 0.5590958955033145 -0.7047555744583798
P 5.943763251148701 5.652904468392133 2.786227745051197 -1.0648455141750048 0.6158810228131587 0.42534659483259
P 4.679835496029771 8.14952467224277 0.39625301759385395 1.223487721432667 1.16086644705702 -0.6030535320311872
P 5.194198216378777 4.934913160605721 6.936814587746543 -0.9312124273671705 -0.6591202931177681 -0.9814731232949356
P 8.76931912808973 4.3236340986816 4.126879107949905 -0.05368617666954625 -0.9623304889282137 1.1967770449107002
P 0.9988621097011513 8.804322793549145 9.33714041219903 -0.7037867827872073 -0.2555200888233341 -0.80649695476394
P 8.018190041374796 8.080358819563362 5.494008681232323 -1.3001796149687672 0.7251809321922672 -0.8431043215743287
