# total energy = -381168.54703967576 ev
CRYSTAL
PRIMVEC
9.26664970235542 0.00000000000000 0.00000000000000

0.00000000000000 9.26664970235542 0.00000000000000

0.00000000000000 0.00000000000000 13.56267852670091

PRIMCOORD
 96 1
Ni 5.358440155300566 2.456996552593192 8.95939719283925 0.8179183092270043 -2.2157286247670682 2.345622299137128
Ni 8.533129455992112 5.11493113601654 10.037005686355432 0.4266663420852781 -1.0852829560937503 1.2691744248365044
Ni 7.9747489485334935 0.022831171387167372 6.34007766513774 -2.4688064226974964 3.1858169032638295 -1.1411106045863315
Ni 7.67162757210455 6.561983344112122 2.5714702556117386 -0.0463230514362557 -0.1613251534064641 -0.18393954837187032
Ni 8.941899904985831 7.928804899610053 3.909292757721 0.0850898877918083 0.7673344256318656 0.632797338952523
Ni 7.835628737462975 1.5623478629373455 12.351069728215517 -2.5174797195334833 1.0599097674362843 1.263976425575333
Ni 1.0033557566023763 0.6914625696226195 3.109271387546117 0.5651410732561299 0.2009337689370217 0.4587274842858809
Ni 3.274667183675615 7.177566879808821 1.355088123721637 0.11692914378959218 -0.03502099615987517 -0.5673707339175971
Ni 8.415674671783838 7.394582547767289 11.154421853402335 0.7426009274409275 -1.5092732940087619 -0.7201109738685275
Ni 7.138498684919505 7.165297835683239 0.17932542387086892 1.5105038239817534 -0.03652020641322098 0.2617745543734782
Ni 5.982873341405068 3.258923145934404 0.21231932992006508 0.013637645388092642 -0.7692725231948428 0.44049656310015106
Ni 4.279487070921377 7.415034043526473 8.409131490471848 0.2191538914894742 0.7323178003473646 0.5745451401788493
Ni 3.5138208776280533 5.463737095178959 10.99567024506592 0.857101150074053 -0.10025502556802088 1.0426247551035914
Ni 0.33981360235013386 5.259296270784248 7.136207042463118 -0.04003361888311815 -0.4598945080107886 -1.2893912661040117
Ni 2.49237662092512 2.6595006472127913 2.6926122397124366 0.28842275308862586 -1.4971099191733506 -0.51351923531478
Ni 6.697480295172745 8.628223814615016 12.14015707571106 0.7065646026426605 0.5742744030159658 -0.8392152709325676
Ni 6.699704291086747 7.251236744460165 9.336208820548748 -0.8951455064412842 -0.2574435310982921 1.9776874094547874
Ni 5.4329440184196605 6.720619119328015 11.603684781335296 0.9422411743775063 -0.7690691489347851 0.5707507061334235
Ni 7.8862339111561806 3.837643949356506 5.986742167630469 -0.07715314944323487 -0.7809918685143001 -0.11569038628648462
Ni 5.224694601022221 1.022528454711009 11.923967992900629 -1.056905947612954 1.2527877559483651 0.014642689613839297
Ni 2.1193013063511454 2.2088449418386844 7.745686636040844 0.08533054304770467 0.8307478568915048 -1.6505471851913056
Ni 2.831350664817718 7.3482678328581805 5.370535913077848 0.3121355233245334 1.1641700575089564 0.930330024762217
Ni 7.402190467123107 4.837756378584295 0.8453630868716153 0.7958021940542552 0.8685387024870334 -0.3061875332712147
Ni 1.0038654223326686 9.239739291119019 5.495095437566398 0.05618708871452904 0.7980138569935934 -0.7570569549652575
P 9.01596823557177 2.064711473312018 5.753627549249513 0.7496436932203219 -1.085422052774776 -0.3585351936349955
Ni 0.5721034889129802 3.611259698610302 4.109315243566558 -0.9826686862649334 1.4428326458870249 -0.7531738178607673
P 3.8516829235636494 2.1489453185548753 6.1875245187466446 -0.18386987147619946 -0.15556151144980954 0.9789148756494561
Ni 8.01105568182959 6.038278639612664 5.124549918344601 0.6493809543428171 -1.2003812173221906 -0.6434928709931562
P 4.33316877229562 5.001322011409561 13.190518839285813 0.7280361422528752 0.7046563298763542 0.3525347530771864
P 6.370867961902146 5.256405076096045 3.7286783428849737 -0.12969878475043467 -0.9330767342694188 -1.6819439543350323
P 1.6736125251849787 7.653659538449335 8.19783890533208 0.020804852560493203 -0.41149657632337516 0.9490949640745462
Ni 1.5971904655900566 3.9189865999111597 11.110233834585992 -0.13972634418976582 -0.4128780300519341 0.8422023785853496
Ni 5.000089547007218 3.811057931534531 7.402347073502051 -2.4489119977664147 1.5623999986304125 -0.09040435802618624
Ni 6.274689405271165 0.26929439857696086 8.316295414366621 1.2812267280153484 0.10122973077646437 1.2645230421074223
Ni 5.6430374990957946 4.9562026943042286 5.713454769722909 1.0557836610830529 0.7780541260422148 -0.8996590780409216
Ni 8.856674528231315 6.793056519577015 8.686881706846842 0.8313795769382327 1.7296687712148213 -0.091425600201849
Ni 8.960257137925998 7.473747535656148 6.531812986208744 2.9610726621707717 -1.231149865963615 -0.6053430993963123
Ni 3.184595349158501 1.0127614059886798 9.3588852388869 1.1697933172330048 -0.3753075279973278 0.4079600239250264
Ni 8.28909223767851 2.0497551007903487 8.103280159058466 -0.7384542522624057 0.8592680758183847 -0.80844816495304
Ni 0.38638129679446065 4.700925029975272 1.7338661344851005 -0.7714705592874261 -0.4968975675976991 -0.25834521697695506
Ni 1.383019659071584 0.40642876662926775 0.6553346826646077 0.8100180805433211 -0.23798799347684174 -1.3739476499898533
Ni 3.8855988612521926 3.6485579634180576 4.572344706207198 0.7655084281667204 -0.18633658784913715 -1.7476376969884162
Ni 6.109381642313262 0.2364543189118166 4.939337391956375 0.6047849128999971 2.4717991867772335 -1.42273253270304
Ni 3.1812130220392882 0.3797778822598006 2.0252605657925002 -0.4089792092181601 0.021609607849975686 -0.005789867208899706
Ni 1.3324052187287365 8.819848862555284 10.106202539224737 -0.477758532775403 -0.9616807711593568 0.08555140080925912
Ni 6.736038824331768 7.271753106766841 7.104551240622181 -0.6193697526927076 -0.5512409182352701 -0.4757106491074387
Ni 5.189879798318435 8.619893096587147 0.5508022413816539 0.4719848635164194 0.2576114241347241 0.10709313153577685
Ni 1.5657857899544083 6.097742730363315 10.193844658205803 -1.0924036262989316 2.109412737716948 -1.0440180359066922
Ni 7.163546438900962 5.215427951380542 11.96586251593066 0.4884226973574685 0.4756592270442131 0.3637825580768638
Ni 3.2641310030330266 5.393143758208652 8.39516201613702 -0.21459686824641105 -0.918013155068077 -0.05126059794718914
Ni 2.4516496957499436 4.301486097170721 6.131158268971207 -0.9785466936767598 1.5691581432898525 1.1267291390536789
Ni 3.7233212927271193 8.007043222534744 10.991506739381915 -1.8913284251425688 0.6434000541690339 -1.1365983185382749
Ni 7.94546633566579 1.2842835071395002 3.5599456262195073 0.35206372697803884 -0.4339410213698204 0.6926431074655619
Ni 1.2693178679681894 4.1595858912076995 8.913894236438752 0.01599457565604342 -0.3274130183088942 -1.1341714542643369
Ni 0.937571810796101 6.900697921814753 1.1501302202769212 -0.7636664898619752 1.0391784484262039 0.17989340332695472
Ni 4.9885062349551195 1.6716109288623762 2.7545533059123075 0.23619259213931584 0.55802297415411 0.000420889587502501
P 7.382341303590631 3.4228409114460536 9.532840639290416 -0.818519690256429 -1.1867602841046463 1.0827090247189868
Ni 5.939310821439538 1.947757088184394 6.53635642452806 1.1371055971919966 -0.4424032932045607 0.327426645155649
P 4.095062209752692 8.238320264291753 3.221298695059261 0.583174276608757 -1.524695027880471 0.5135326050512188
Ni 0.9062384883626935 1.9315867845596653 9.791779556892802 -0.4803100955526632 -0.36912402489443524 0.2753993442457644
P 0.4646335196936143 2.125741627852112 11.985433679973882 1.4191098483487883 -0.8438622827862757 -0.4044697513835808
P 4.592023363386266 6.6593016986490285 6.306496253501262 0.20471123370158295 0.24043619790701817 1.6410348748254964
P 5.546590209625205 9.005784187615562 10.277227825011554 0.4428496367133599 -0.6048957274462486 -1.327116034348295
Ni 2.0295630712211317 2.2632309085856956 5.037233058765958 -1.0971154299523043 -1.8638937259703836 0.9385372431633578
Ni 7.151379327921438 4.819306479147714 7.978964347455493 0.16812906370217498 1.1266507204072598 -0.5160132053812274
Ni 3.4854463964252336 0.46384492780910747 4.686488516498501 0.2916569437552074 -0.21798301110982457 -0.4391855575982114
Ni 2.507240326950372 4.808371832570533 2.428994590705968 0.6258481613281996 1.3603987076608248 -0.198099127701704
Ni 0.3649808961119684 0.20297298709146816 7.815615554231843 1.3850437599030148 -0.3946962169365848 1.704439307224071
Ni 9.150844321106398 2.317718808478765 1.4026251097184832 -0.6859767511889798 -1.20746152120774 0.4052786204381213
Ni 4.91099071070248 4.059339275384022 2.2053319549595245 -0.05145291646365332 0.019506445464043825 0.8238588430811553
Ni 4.132091741720839 6.037018375261396 3.685549502122674 0.6319959260971503 0.08302837727708927 -0.2154769568585192
Ni 2.147360721466148 5.1885917340182415 13.352280255425846 0.5954083567811036 0.06049677183347646 0.1992070160539021
Ni 8.764406497749123 8.838113428999034 1.681568870567324 -1.5204452514651814 0.15084970779643697 -0.3020051197587509
Ni 4.2113030628579065 1.851708264648397 0.42580255103512493 -1.440567761112248 -0.47178431746983907 0.24794459046892134
Ni 1.5992105952119426 7.380395307165879 12.333886579784954 0.6069394973491546 0.4506611623379787 -0.10272996947107471
Ni 2.7640191885212824 9.21479347028362 7.088981415894232 -0.4661222340880553 -0.09820534212784376 0.5092977410342648
Ni 6.046794690633367 7.347869366923588 4.723039889345137 -0.25551288973448255 -1.14081981281879 -0.5696189065218256
Ni 0.021244720968512022 4.0466624986742055 12.852088747727182 -1.9754842311558818 0.8193496423568921 0.39148079532308067
Ni 9.070141069377021 8.98329402893521 12.58828113240306 0.6768807024249827 0.2701350105230315 0.6036960507111926
Ni 6.156307956098723 3.203953380259967 11.594381065095051 0.5932463161327783 -0.5926706461349663 -2.0305613746356834
Ni 2.5190738385427958 1.2837182415113577 11.620868856430826 -0.7159378163274445 -1.0755235627141413 0.7841934061707333
Ni 5.461883765250622 6.223713565592291 1.3488581551675367 -0.7430696395472298 -0.3065824547167881 0.18885549761624895
Ni 6.1400449859775765 2.8820855716059075 4.39114741910871 0.1867230246542784 0.3799439983280747 0.24073547431499187
Ni 8.09066546890125 0.6437819505563271 10.137382961939057 -0.02844642826615101 -0.6179998689283744 0.03514929420762334
Ni 1.8717890944219142 7.114312729354724 3.294699826870996 -0.46366631634839506 0.5174141994938121 -0.46974054756693295
Ni 7.654252604026403 3.5217531297213296 2.738101296138472 -0.535483141180381 1.0673999051657423 0.2949505269048146
Ni 6.112059704059708 8.926267067040321 2.7407320979717444 1.431386351723296 -1.294370464486158 -1.015443566703109
Ni 5.468657686138689 4.722951856173541 9.84154053880365 -0.15796626423656018 0.9656137876651756 -0.41919085964383934
P 9.033102270759231 6.215086314775889 13.078477631798208 -0.5323808481059735 -0.12984430918936346 -0.8811538201478825
Ni 1.7013476075625225 2.8036989822869494 0.1573718042047685 1.9943944377968232 -0.3832278112856691 0.05887543417996958
P 3.586471410818812 9.019276429493846 12.854855769310188 -1.6607436661083332 0.33893181758177116 1.081133709812067
Ni 4.979545384751617 8.930807725364744 6.708086902352609 -1.2347213853649572 -0.5820370776805203 -0.9910461116953512
P 3.515692740855672 3.2356175220855823 9.94982504652652 -0.41666963588388245 0.3355022230749319 -2.6232556749197338
P 1.2619045482548468 5.942563415463767 4.96730414057496 -1.7555181281777574 -1.6883804539889955 0.7958551587793777
P 6.999888139579278 1.4362287613141018 1.5062438593467677 -0.22051889015780088 0.2781853916313338 0.1882482030495532
Ni 3.7002566017689817 3.2249330750487273 11.953615711764217 1.4918062475722502 0.40988449464124893 2.705552059126805
