# total energy = -340877.0048084026 ev
CRYSTAL
PRIMVEC
9.17363488254633 0.00000000000000 0.00000000000000
0.00000000000000 9.17363488254633 0.00000000000000
0.00000000000000 0.00000000000000 13.42654193583017
PRIMCOORD
 96 1
Ni 3.1425294340694765 2.775969343672297 11.718752157886257 1.4948630321207028 -0.37663935943487387 -1.033522021471375
Ni 0.10914882155149604 7.263757246539109 4.758621116460984 0.43545128736675975 -0.3765362581981064 0.8807604413642058
Ni 0.7152233370995826 8.436808247071372 11.210235576602594 -0.23874261225467913 -0.5248647422345865 -0.20685321974525023
Ni 4.381098532745205 6.900481317320222 1.2875278690456347 -1.3525234186778061 0.22952417898020472 -0.6431516856036537
Ni 5.643546602222871 3.549838809254289 0.10433174603551529 -0.7528321182506325 0.10957270342452098 -0.2660688108734579
Ni 7.570450197691782 6.4688526368738115 6.85905593566432 -0.7226859336845554 -0.479571931835058 -0.9561382440745727
Ni 0.304684842543935 4.904894719779044 6.778846261747013 0.5868949199934538 -0.1435061229471722 2.138219377535995
Ni 6.26557406829903 5.531857601257217 1.338035148932009 -0.067653951703548 0.8144676316742424 1.5643254977878993
Ni 5.830551143059412 2.303609725707405 4.274151383492005 0.8896698280386935 -1.4555444370267385 2.60107013996163
Ni 7.581119134703943 3.6752056993731106 2.2911051444165396 -0.12324043071960065 -0.11242431394070315 0.3642913793924823
Ni 4.185856068059206 6.22232955490666 5.715812825960617 1.5594033778959338 -0.22678466856185459 -0.6450782132024051
Ni 8.09624623706324 2.0119431879906045 13.204990125487708 -0.02268972828803189 0.11677307782770212 -0.9870493318311324
Ni 4.963945405546266 2.8681460238943015 8.415125444386984 0.4654102956226952 0.3393696764501381 -0.7531432217331481
Ni 6.577807894735749 8.079852952075509 0.9887480950784219 -0.2690114384415496 0.3878820222282287 0.039127047908448745
Ni 0.725128110351543 0.6110200219481347 3.4075621585210953 -0.2189392043755068 -1.4879992151213342 0.5005953281642604
Ni 3.2252389234088064 2.273052348933968 6.500553965878905 0.6748089074976186 -1.0165853936170361 -0.6928140858257875
Ni 7.23154861554195 3.7951784923611056 7.167450596030885 0.09169505181315177 0.09819814303899216 -0.2320546587115423
Ni 1.5709482266418582 0.9247482334573217 12.738297061600553 -0.17106423507109894 0.855478012648333 0.395518455727564
Ni 5.3993903179763905 2.0458122468460624 2.200059573337785 -1.5604801558998804 0.41129860137995616 -2.3918900718554164
Ni 6.763684078519413 9.127124248933018 11.698747212965861 0.25900496204814105 -0.2076052674199263 0.9383824627530484
Ni 5.296544700742225 4.369071897815761 3.387181094583075 0.4505187232228434 1.246269495213873 -0.4824006595331046
Ni 2.7709697128282493 6.723778768112792 10.93162128616086 -0.24872620582995233 0.28007232424140155 0.21502032893707484
Ni 1.3675320535484337 7.3169092852738125 2.4208185025975806 0.37718957551138915 2.0527199130105935 0.628226431752389
Ni 8.888995042603124 8.890251830540068 0.8734813766280349 0.054197311978009886 -0.007219400566574664 -1.0901102022790645
P 3.6210537344695983 3.2559522519700397 4.195914958372047 0.7799225467095213 -0.3976470720347926 -0.04366967297380866
P 4.069084873538316 4.642914063550938 1.352321250057579 0.544194810021766 -0.6079134312266498 0.8532216125139885
P 2.2329543922012465 6.809864154976178 4.9597374593661465 -0.6959839989133368 0.10650589157373916 -1.9684862025714935
P 7.945009697439438 5.829881467735348 2.9020802155552508 -0.14452530824030593 0.9897194224641277 0.6141879513814519
P 1.7591820345116143 8.096347147043579 8.963438169825809 0.6959174073414597 -1.2951793335406985 2.433809852017654
P 1.7286796995456344 0.2670637671467972 1.3692787135717486 0.8678532463842343 0.323943571703055 1.343023449607171
P 8.738767602782707 2.405813188521234 3.7616607837099174 -1.2679773192046098 0.026980128133269665 0.20824958587214457
P 7.2597758891330235 1.9230873634851968 8.299952297009275 -0.9846193822334011 0.07847083981339388 -0.08829553921329954
Ni 8.02951721915571 8.089072454824624 3.054457955320337 -0.6257170350669741 -1.0681920620497345 -0.705279822392966
Ni 2.091662072458082 5.510327080906794 1.076486570892444 -0.9742038433270319 0.40809603528225846 -0.45506906159768723
Ni 1.103166252330507 3.329093640446358 12.539570450502502 -0.9254593269334772 0.36856712394970076 1.1080770711701302
Ni 5.202203042760228 7.720741852954233 10.512887983838262 -1.057795806417075 -0.2973776482890685 0.5165845045036652
Ni 8.40918643336233 6.915149959007621 10.195833412431732 -0.8177995242609529 0.7361250899085967 0.24411081854512795
Ni 8.300781593574966 0.5783939905777565 9.590712954879574 0.6954641218541249 0.5133382296522256 2.7641480143931427
Ni 6.28209578417083 2.008897541311294 10.887796999063271 -0.5818722699678818 1.4225954929045437 0.47211084757132243
Ni 2.7247621154677555 7.640344119528113 6.820844078200473 0.16274568790307453 -0.14734992217329462 1.2136779344310968
Ni 5.501694690770557 5.535949042278217 7.736386569360542 -0.23345385305191407 0.27340905328861304 0.7461058552703925
Ni 7.395527333592142 1.0216126409477821 2.212559567811362 -0.13274631332750686 -0.06478974278187552 0.3987768147638616
Ni 2.2360826015917423 -0.013222876878184448 5.177126912646092 -2.062342266591706 0.6766367047349766 -1.7726532451961472
Ni 1.6142477818416852 2.7967751468911968 4.5922260630634115 -1.3988500696584876 -1.3139031352024468 -0.26172621763404597
Ni 6.039838442281627 1.351358935790532 6.583314827571862 -0.7736760515791772 -0.04470351355496172 0.13777590533161432
Ni 2.1117339849108836 1.0440421774866753 10.423426699450822 -0.8584689769558571 -1.5140771431553086 -0.03525702343008121
Ni 3.660482015878254 6.920617445215058 8.767357234939542 0.6791679557972626 -0.4419368950911034 -0.03425429319717971
Ni 3.4622489463204023 2.452011612247151 0.6985686035264288 -0.2761321086467309 1.0343985105390574 -1.1950546629029548
Ni 0.9740748665737347 5.269629256895553 3.4319988863052684 -1.8391476293739553 -0.4753643215116135 0.4178608279785062
Ni 5.690378006734549 7.118235881256301 3.432173185362217 1.1624685014368172 -1.5161350541256018 0.22497049817125123
Ni 2.5687461122297353 2.5751768300676754 8.803849953283803 -0.3845604140541635 2.2782516830019537 -0.700051227004175
Ni 3.5655807661871077 8.110887357846911 3.3113344012702255 -0.5336280902495132 -0.007957821394495971 0.1516572912993969
Ni 4.88119922166863 3.914683429985713 5.971185713203461 -0.5966352872096692 -0.9281309602283693 0.06351421850356158
Ni 2.2861064309359493 4.732155180708548 5.635938907068801 1.1317754432283347 -0.20748725378482327 0.5931095334445979
Ni 5.457211736710396 8.036480007799073 6.894891821772922 0.6607550005077136 -0.648500865730709 0.9889648036862904
Ni 5.836192928323797 0.3968835394889226 9.137715210051283 0.14340559281356594 -0.23468926812091193 -0.5921690239081996
P 5.503107430495298 0.023033161694009655 3.3019222521950087 0.8196843999884916 1.3262660276431737 -0.007835179773702634
P 7.8458335340357666 7.475218697155891 12.545061788159837 2.999808388178072 0.06059884462897951 0.6220277591408448
P 6.456981953732164 5.1949558714450035 5.513622250446578 0.05904795520209186 0.43637045674691943 -0.5534793206474856
P 8.454605098149266 5.398344523634699 8.6614219375801 -0.09168219629734534 -1.0453920334360833 0.20306624189899222
P 3.9685877067556667 0.1020787013835921 6.190011757658044 2.174729299536571 2.0041736286707743 0.23526853766314967
P 1.2017277822175707 2.83484573038257 6.846636669175013 -0.4544851640697592 0.7729188616981785 0.5824499968482226
P 2.0780575723815264 4.514675825809756 10.946552293797138 -0.10574201682452111 0.9373509361647405 -0.7393543954791718
P 6.083073782039421 4.542664584901847 11.586125253363804 -0.12490342024432037 -0.6969993275517287 -0.633351154573464
Ni 3.192544089779107 5.651353365247248 3.357467692190651 1.60503171725801 -0.04920705785227009 -0.4429640508040371
Ni 8.942541547624606 6.433460754678698 0.9544790657554401 -1.1970560096036997 0.272363385632918 -0.15469762078761745
Ni 7.62096022966853 4.716394876506578 13.1421810016346 1.2863599354768556 0.22665379941094516 -1.8997138209927866
Ni 1.870256401960662 7.820358350817563 13.324271226428655 1.4763024955096962 -0.5889865124151598 0.3049323207078748
Ni 7.907572094733825 8.624225601463843 7.746375740050605 -2.322852352430464 0.8720081490928725 -0.2985305309465891
Ni 7.1795341074947 8.707109389860122 5.253402932057109 0.1582290309796436 0.24983872216784073 -0.3667704370605941
Ni 0.023325800636991537 2.799508889994915 8.877239947257136 0.018936431893186743 0.8366634510449913 -0.16890168020214136
Ni 3.464432271349546 0.29898067656443233 8.306853622300975 0.6412153878128892 0.2440007753298249 0.6925878287475943
Ni 2.027419109520712 3.485907749892511 2.2193673220303856 1.1270037328713043 0.2705289035273406 0.9177416465742452
Ni 0.8814743644343082 5.96859599616259 12.229108970265912 -0.45007289393467653 0.28043407845619445 0.42710548650522573
Ni 0.5003731458703395 7.2299065349528036 7.376126013826863 1.1098814713687208 -0.6946945906779519 1.144244779339939
Ni 4.516161954611106 4.715449992145224 10.025021253985702 -1.2285810767951744 0.6509030474142984 0.8508343432287346
Ni 0.24917059290585178 2.14485080573109 1.7664493878229075 0.7031558340714277 0.21011543543628974 -1.8854364851381658
Ni 1.5893597112363607 5.310773007969964 8.878287576325743 -0.07516080160355443 -0.06903129166704886 0.5291116904363985
Ni 8.58400838748163 4.295618605763852 4.956475314910838 -1.991631016119073 -0.38671371295174045 -2.3506557477959773
Ni 4.0890742232799315 0.4870594500098503 12.099072700147788 0.6340360964556306 0.6316771093051509 -1.375203376773825
Ni 8.981868919052921 4.597018369766037 10.7283032709574 -0.44795224804724787 -1.1785494661590799 -0.8752631656950604
Ni 3.3869334064495167 4.948469484016158 12.651346600996632 1.4534518161637677 0.6459691004477907 -0.3377874195646827
Ni 8.587650320408395 1.9222984309116407 5.915506338143006 -0.21088548083309488 -0.518817507599242 0.22461028661835508
Ni 1.0873876008593837 0.6609594538542402 7.993907921821141 -0.3059607619723892 0.9895844395481602 -0.5393351679366196
Ni 6.0101892553312375 6.561598082439542 12.463442126608161 -1.003440371594646 -1.2835425206327185 0.40295897116600926
Ni 6.7605375218597645 4.014749435943279 9.592230274038483 1.3985330526387012 0.2747239154452946 -0.5051868041896848
Ni 4.008493017162287 0.24689461416748798 0.9188000487980912 0.6188097664241795 -1.718827457624943 0.600975566456236
Ni 3.139850732773216 1.2033515155375645 2.8709843464321887 -0.5327528867334115 1.353706897462946 0.9854807017924316
P 4.075543112279985 7.530829269957025 12.569955362945905 -0.8945410400880659 0.23152912522537547 0.1998909294948041
P 6.515326269637016 7.241740523556147 8.930650682486888 -0.06243204118297635 0.2170666699431423 -0.839835935235702
P 4.177599796940594 1.700103827840664 10.04928276534947 0.7018530560996041 -0.7727856785544239 0.5507308113680709
P 0.11352464524435991 1.9536355666240577 11.125607880273373 -0.33077730679543677 -0.6713726281225599 -0.016258113730075227
P 3.4303522188988347 4.702799550064597 7.883917877979004 1.0979980896675734 -0.24709432665348413 -0.8426474365425681
P 0.1539179930104358 4.243475666832534 0.8418772881494494 1.2219509730731664 -0.48623031769184 0.9315405001305505
P 0.18505697821600625 8.990336183766786 6.223040511586318 -0.8117759437746923 0.15905846885947444 -2.6475428296018726
P 6.017528162992225 1.492834728225221 0.07363493001651931 -0.6119266661511009 -2.2983062876599836 -0.4520403020736925
