# total energy = -340885.5665466565 ev
CRYSTAL
PRIMVEC
9.18587297615315 0.00000000000000 0.00000000000000
0.00000000000000 9.18587297615315 0.00000000000000
0.00000000000000 0.00000000000000 13.44445362287084
PRIMCOORD
 96 1
Ni 5.239585134444891 2.8416589543504185 10.242065437278448 -0.46076174110709034 1.0763748549708427 0.3787566628881929
Ni 4.973847018549344 0.44863160025086846 6.310665258331422 -0.892006189481354 -0.445913106130032 -0.2733599452182325
Ni 3.531242429765355 2.687988487316764 3.0120688374923543 0.14425842773216446 0.3050662751825778 0.5629399518397531
Ni 4.904732511169272 4.603399137950789 3.2058971848972826 0.28392332255637553 0.7324692383235643 -0.010117033829343867
Ni 5.386430497945399 4.80766539268373 12.442115974386963 -0.4368998468878282 0.5520721558873137 -1.3356868067364418
Ni 5.859925500259751 6.0000008754642575 5.16525121410717 -0.9777493945864449 -0.3149907333851414 1.6815320636085944
Ni 3.6368707817541166 2.3590699379071114 7.256159802858917 -0.6378305305010563 0.10667944103712594 0.7163980437933146
Ni 5.401789277363193 8.47460153630055 12.927420334846959 0.5601487622478611 0.5811999264912056 1.4273576901798775
Ni 2.480957284853705 5.761517244337008 12.337356605970525 -0.42444233785076585 -0.7380459610803933 -0.5783488301956555
Ni 7.769392891154952 7.204838331203885 9.8488825213575 1.3921405188487959 0.5583225076723998 0.6947043608699649
Ni 8.081997330369628 9.176457337853149 7.691531595639938 -1.1767334959962636 -0.7828829148894259 -1.2121134181574542
Ni 8.687842388815302 2.7698346144773756 1.666520344146478 -0.17087808720222183 -0.3155412065719727 0.6012689293269387
Ni 1.1927488470591154 1.567514087900711 3.076426899906796 1.0428906071704684 -2.22613002260605 -1.7447536905724015
Ni 1.9756332330880055 6.871198243145461 1.1698098853592864 -1.6670572670311867 0.12943139002166096 -1.2147575406485207
Ni 7.591214515337402 4.017211847420234 4.592598388644903 0.007261309548103624 -0.07620518370766877 0.1814751459917778
Ni 7.455869864654523 4.163010021414984 13.472955545046505 0.235115299914737 0.38793550117398357 -0.555505864159211
Ni 4.447340343974176 0.3752383132937583 10.807955623143 -0.4805018998484951 0.5492665681177187 0.9937701954947337
Ni 0.6571968434811353 0.45705596424851114 0.7093882172957755 -1.0727642548014493 0.1429188829851345 0.34445968937853577
Ni 3.7235027486735026 4.93340162035763 10.120473875437868 -1.3018857990265966 -2.5188472893049716 1.7233538847403869
Ni -0.23356918914846922 5.33219710459453 1.6606992565166598 0.5466928938532714 -0.5203066905502588 0.27787377392818596
Ni 6.118370033106416 2.178007198012296 7.7045461403044895 -0.31962000462703666 -0.02854464440691213 -0.5186473005699649
Ni 3.509591327440152 5.054480610492761 1.0203281763486662 0.22273800929630672 -1.4203174955036442 0.32649024938430865
Ni 0.43642633098506556 0.04920229078679929 5.065224407386931 0.9755166486011845 -1.720027134359999 1.0307102630541927
Ni 7.129560103136409 0.7005789652254022 0.6510680291105898 -0.4010913218296511 -0.13861588473440645 0.5718236274826282
P 0.31184293035478616 5.863893797334204 12.610211936156087 -1.104665217275104 -0.2692240686729879 1.0124587730431724
P 4.256476277740373 6.664525289723846 13.25422797067395 -0.1093436181328504 -0.41823852303289905 0.8334662842639324
P 2.23430741275611 8.820679296208073 1.9179183939241313 0.29613606257248354 0.5190530206488158 1.062894561096221
P 6.313542273710401 7.910368481899498 6.633883055045691 0.10977736323615933 0.30237175906955027 -1.2855734350198182
P 4.561585044703302 1.5359698005079456 13.295744441640853 0.3409398491507354 -1.1067840633903197 -0.44477590720179533
P 4.0266824823363505 6.553027164979121 8.985089885786754 -0.30331663948132276 1.206164142552555 -2.0820672558244593
P 4.93481624477769 1.4585237064460925 4.263961845531976 -0.20078515917429937 -2.1368988589523585 -0.8489448395155056
P -0.03079839451673369 5.555312770431128 4.174018371447451 0.11814630402614491 0.6039721871907147 0.4940117614094718
Ni 2.501129461648846 1.7486135712869568 5.127203328731272 -0.36562372505066065 2.2875086828238476 1.221482003856548
Ni 1.7336773420206097 6.502807998066993 5.285606357461127 -0.20564094460470392 0.8171184390335282 0.3689628167262226
Ni 6.800476208015321 0.9307034520522969 9.819856081714986 0.28715828455390546 -0.05655141403248325 0.0969634993009427
Ni 8.888627197735238 2.5028104763817742 10.74932495245523 -0.36811486690363054 0.17464578177477016 0.9325319175095423
Ni 3.103226683968646 4.537095507665122 5.199360197201758 0.009260085145687278 -0.6671727311085993 0.2938063859980424
Ni 2.018540445205538 7.001490663756697 10.232492839173615 -1.2771191336048777 -0.9112200434056436 -1.8654065630704844
Ni 1.6915876725873975 1.5822298562184776 11.990220633509814 -0.43675715066237686 0.31700467849137665 0.0735021829542089
Ni 4.1040642752882 7.240801023441124 2.064208012116759 0.7687536745768954 0.5294690737758172 0.9090798571341893
Ni 5.7310109605771435 8.095785325528782 8.773070754362056 -1.2360570734572456 0.25626879406390063 0.028421488565486534
Ni 7.082115069827256 0.9153354867616456 5.377849055521892 -0.7422291459238056 -1.117653916225288 -0.5721316456413501
Ni 7.978270454062375 7.281880246860007 5.288846214817978 0.7432794415651908 0.60104370069001 0.6744564092542062
Ni 4.736089071377841 4.5805171286626765 7.860420298236666 0.06224203665935732 0.1660924928881204 -0.01594289648250157
Ni 1.0537757765975122 7.898601378768999 7.223853088018977 -0.5060316686884834 -0.7798886081477924 0.47082169644625366
Ni 6.575174304438631 2.307877068472085 12.306488398820076 -0.9277578931596666 -0.5595808055595329 -1.1409887342964866
Ni 0.4829601257067518 7.4230395550617025 3.2518908502949455 -0.02051354657231951 0.7404453145505054 -0.645801721631991
Ni 7.293684093481936 6.302813174212804 7.763016058217253 -0.4374456920889692 -0.9641888822931911 -1.0164820352699526
Ni 2.123222652289974 5.414741358092313 3.038271539818465 0.5660425020244767 0.9028940400384515 0.25910472085079894
Ni 1.124516183473367 1.2212158670446078 7.413070127249424 0.12194639449852547 0.21461949395423038 -1.2649166780014152
Ni 0.9835314068559641 3.5910057185764592 3.976129868239493 -1.013023644407707 0.993914948602714 1.9315276230692735
Ni 0.8034589040551904 7.906179723876463 12.592290298211042 0.47327401464148816 -0.3958020484062538 -0.5468201634597549
Ni 2.3099714474836026 5.610097316153449 7.759748643241829 -0.7560832781980785 -0.14171406404375592 0.07692097882777076
Ni 6.579399805953096 2.262406997827301 3.154781476794259 -0.020445669448861562 0.4194703385574711 -0.6944441652300426
Ni 4.0547085804246805 7.183894541088711 6.857437805604878 0.5056714571355871 -0.4206070232650756 -0.9248360915271814
Ni 8.417943072515293 7.54800416941557 0.9554759139744895 0.1060603193958883 0.27122412982215227 0.2647243810304215
P 0.1265987811352219 6.198186082365513 8.638598761600642 1.4843855296281467 -0.14564528077736208 -0.9370807132224894
P 8.672492795270363 1.8009271172106023 8.751102739423267 -0.8423360759497364 -0.9945834354246483 -0.1517087133626226
P 2.0136076314810434 3.7116437868144283 10.815216137049594 -1.3645739220844368 -0.8619826465360703 -0.43948894777124314
P 3.7941972261850694 6.367729737696983 4.315131750284859 0.6167474845785121 0.734830025246257 -0.7391060269137916
P 6.989613330151907 4.127543366312053 10.949525539861428 0.04815419110772352 -0.07364847872408607 0.6391438499958412
P 6.325566581280911 8.19041818770708 11.068576289269615 0.2881116496061103 0.4201064294795732 -0.8349490394570458
P 2.5811016707465204 8.951431010462185 5.8831179920504475 -1.1364581934159848 -1.3213379942139374 1.3426784075629263
P 6.794018539396477 4.285393405495885 2.118012425205182 0.9165543111343634 -0.4373179082618533 0.7854234219230926
Ni 2.6196915226210127 1.834446367267737 1.0325169110433257 0.29801605320401575 0.730473033829142 -0.9401218140416583
Ni 0.8555556633793981 3.476834504830192 8.65781101468217 -0.03161762690528103 1.782344504341982 -0.34594732966765585
Ni 0.25528459258367514 8.935493521054367 9.561304992743173 1.6463274906830034 0.4669033352284539 0.5519335734269205
Ni 2.12982729487454 1.7890038542415256 9.42755960252479 1.7482290507155118 -1.233740766619243 2.0117663534163674
Ni 5.175954593160766 3.305692507621511 0.8634068289107308 0.11596215189063254 -0.3754610228560566 0.9452393377738818
Ni 4.195114647052058 7.1612605503677536 11.108761727259461 0.5964972189699083 0.9878815979244406 0.5218534662120884
Ni 7.367005730630757 6.632301247739623 12.354565420181824 0.3013168354424746 -0.2047549424553248 -0.6466699831695573
Ni 7.454400124997318 3.7894481299177256 8.820610402161641 0.20051262223920308 0.7263248159887233 -0.14284277833156045
Ni 3.049039219982064 8.944367074234743 13.271732569991263 0.3360886917060212 -0.3375897017315799 -0.37411556457175565
Ni 9.181610612526224 4.988388255282818 10.497953541708863 0.07115965086396131 0.3571349708533591 0.8286907172521598
Ni 8.241537570159245 2.4196415835296783 6.649452190951921 0.6649821512151839 0.892336062016947 -0.15747621197401912
Ni 3.485101790401971 3.3145476890561723 12.315656818519177 0.2844516842560198 -0.31535968668878595 0.4345148915954194
Ni 0.5602417926444553 3.7020629214240226 13.08599697657382 2.0453686148518453 0.4138067125137906 -0.524244077931452
Ni 3.1309404623798205 9.093270073255338 7.909896328034621 0.16699495009773174 0.19931654504857285 1.8374147058432484
Ni 5.704978196898898 8.316466735058135 3.9817093674131585 -0.2396892924386646 0.1824519080827503 0.4201128572374765
Ni 3.1564404454323296 9.199743525546992 3.881010154799748 0.7939098621275489 -1.2026826117618576 -1.5152629359332936
Ni 4.92398610067866 3.1731862916516107 5.405516904568779 0.8027061202629402 0.1645485454397682 0.04837916263433604
Ni 5.910953023983342 5.806105471187469 10.030960300203073 0.6789784654942759 -0.4044995761802518 -0.10009767405455018
Ni 8.151396599808281 0.3724136573900672 2.9524956962494016 0.29545703422758796 -0.7420334849732317 -0.37516997397819907
Ni 4.7363003464535645 0.5465309588173027 1.9946323739192393 0.35215243003710317 0.1314317082811414 -0.44924294183421337
Ni 6.141940982858844 6.023847401402411 0.975212680396183 -0.2808775937515163 1.3148307892230389 0.253138475965035
Ni 8.243218584892173 9.200845830289897 11.703867581747394 -0.5099837113576959 0.47986349493354785 0.43678877523126064
Ni 9.094537723709678 4.695432398110404 6.684917927467567 0.3736931323223564 1.1357560251426373 -0.29694621717860475
Ni 7.154619164291757 6.35032250863196 3.265993920893115 0.5620056129509418 -0.6241108669221186 -1.4254388758906094
P 8.81611391739788 1.813162699856835 4.473171018449556 -1.2694382200208525 2.628456759504699 -0.08473584688649922
P 1.6831458554313254 3.6616358949780237 1.8888781754723292 -0.4191006139228782 -0.58851497209538 -0.9018414304042209
P 4.569108274573622 1.29981938108651 8.917558104300035 -0.15337813064524553 -0.42410629466758576 -0.7955923920362944
P 8.588781935919675 1.856492462125814 12.984719972557672 0.6053055612901574 0.15526043526962294 -0.1746943756245185
P 6.66503051273101 8.198290480745984 1.9995798850403061 -1.347218461525125 -0.4127445897978633 0.13041046610547866
P 1.8975533137989826 3.5362211728541375 6.688548184420863 -0.6714343345984308 -0.014668914866084414 -0.04676862361410655
P 6.407082017018651 4.15390682141317 6.568919643609937 2.115275367145312 0.6453474077033918 0.5849743059319732
P 2.1341905844818676 8.843598048987616 11.171816314315418 0.38856567855881463 0.9122541410971128 -1.0985495912956693
