# total energy = -340874.8521390907 ev
CRYSTAL
PRIMVEC
9.18207258760726 0.00000000000000 0.00000000000000

0.00000000000000 9.18207258760726 0.00000000000000

0.00000000000000 0.00000000000000 13.43889137008161

PRIMCOORD
 96 1
Ni 0.5778819844949014 6.335785986936205 11.742244335419446 0.33648027071748504 -0.2135360310820645 -0.3185604530142707
Ni 2.2558882526291884 7.38739954616419 5.05236458487189 -1.1800602463766516 -0.7423908683126504 0.9944530804943712
Ni 3.4912626249335967 5.441791880927122 12.018924047411982 -0.28708706499633785 0.47897415035005897 0.1599195313081891
Ni 2.368074812073936 5.263439308439416 6.812791888653901 -1.9731902929153824 -0.16125367673858035 -1.839483158336503
Ni 7.4598552787373205 4.847656710241915 12.552246353209108 0.6003042514208242 0.170180546914565 -0.10815268314854277
Ni 2.5852491862748836 7.894901864634535 12.094531067200814 -0.4207528048143205 -0.008514722339230497 -0.0039001063853545737
Ni 8.389503371513793 1.2999702509828992 13.633082775760785 2.241590323025178 0.01967253872826289 -0.8622898933638441
Ni 7.380816000320199 3.964965735242529 1.4779151394601815 0.012563438487307396 -0.47237849941041227 0.6242257952334281
Ni 6.85370995747479 6.845896013941686 0.08690096872622216 1.36845885896114 -0.3578695350265385 1.3387060531787396
Ni 7.25907090360405 5.5546946420118015 3.3598570699434402 2.2775988799093034 -0.2700097977990769 0.21435569876988245
Ni 3.933296767856301 6.163071206844888 3.81340644974613 -0.22045127014465907 -0.7321591632823132 -1.9179951358004774
Ni 8.848698807577946 4.289248982902552 10.640121114638864 1.1360756132655854 -0.08285714180654763 1.032756861170576
Ni 0.7499099455776677 2.153425507757365 11.323071716126266 0.6352437436104866 1.4900949213080983 -0.36059696126003055
Ni 5.536807965158113 0.6032988788474145 3.4496421275812352 0.6230330604769078 -0.7313852612307662 0.13173561267480538
Ni 3.714056427386319 7.016774379571639 7.6442827102632185 -0.822310781867745 -0.9487877172467725 -0.15227564160968615
Ni 4.427999277530935 4.553233561723677 9.7558416411304 -0.960911754203816 0.6659820532346079 -0.32657972377432143
Ni 3.9173658724039657 0.2852015933004975 10.582347515684344 -0.8835351758958655 -0.3266771685841342 0.14730081410291404
Ni 5.1720868710588475 2.6657575962610967 5.3970182599445975 0.5017183860251102 -0.39496746832010043 0.5755692105679894
Ni 1.9167484119767277 8.062786874692462 9.569833974960495 0.6845546740304727 0.6896855674991348 0.45704109772239354
Ni 7.2351791514617 4.696887082963903 5.9523270378804085 1.182774045763389 0.41646189074845047 -0.9374429816579144
Ni 8.858238980704735 7.987741797728808 -0.0786325126139292 1.5825368785896035 0.7535605117762247 -0.4167663093627467
Ni 5.415173053309646 2.399036759892539 10.041526211434235 1.9597017715106444 -1.85561297401883 -1.503095447332824
Ni 3.893676125852365 6.750191274287683 1.3848373906931604 -0.8175809804922436 1.9619049498095504 -1.2675831690899846
Ni 4.351751349095087 8.071794487625455 4.838175302377891 1.9033671014746576 1.1687358225027678 1.0293246955605757
P 7.154266730293986 1.2381106298518412 5.110097782708263 -0.40864110915245105 -1.2007113469680997 0.7525058452594653
P 5.8366669004819896 4.3234797484623835 4.1567158694331185 -2.0801008761267084 0.6276597606156417 0.3443491319426005
P 2.814075610233188 2.769009999351306 1.704293622941487 -1.748265560380402 -1.0888997269107312 0.5079106308787511
P 8.450894706957202 6.896250498472296 1.8652645325523785 -1.6592825081817746 0.6541097272770541 0.2281823202403296
P 3.8436981062863347 4.067345841463592 7.747587451165578 1.0910455696091403 -0.45519658831448706 -0.9529004538635653
P 1.966597882530463 5.262732288871791 4.268581056347127 -1.4284051576077852 2.574703219932327 0.7903113461430131
P 4.0382570363955805 7.267757144006303 10.08001470392274 0.007876060313967082 0.016483599477319998 0.022395079865748527
P 6.874975636937391 0.9762562918058992 8.831702791738019 0.7462737483068245 0.8356838607405414 -0.23905294440624636
Ni 2.3033595664554567 0.02317279588072598 7.361757691040159 1.095207928516946 0.23945172250656183 -0.5160052349614275
Ni 8.479120397228373 6.9935070083461515 9.323499175527544 -0.04971665049883695 -0.3697516311761051 1.4449129254548212
Ni 9.266547372044483 9.032624897955893 8.263923841402315 -1.4107311373667897 -0.3733691733240344 0.6542876476158151
Ni -0.20613844149537838 9.149108667240233 10.799452106135758 0.4865733028535556 -1.0713131241772196 -0.006118454192912043
Ni 8.245124466561327 0.22341818336958616 3.4280458935155904 1.7710288222188464 2.057927425353462 0.76779902397311
Ni 6.341515600055661 2.262260610810123 0.1244097340995889 -0.5954201838556455 0.39089278403009453 0.5086372246321305
Ni 9.450464280350124 8.622599459094769 5.6301565850581845 -0.8802341365470906 0.7719796377133608 -0.18940417103086735
Ni 5.592185043240555 3.731943104240008 11.79934580668111 -0.21787219656357318 0.5478455194004759 0.7073655012774012
Ni 3.3198700632544624 2.695342233233676 11.273603301573266 -0.8146563506462808 0.1299057585549182 -0.2299016169242815
Ni 2.9242512958427413 3.5392022244475125 4.0848716628756225 0.27677848398147814 -1.5421435623742215 0.25563887378938555
Ni 4.533005456431749 5.3636616276683755 5.79695994699837 1.203167007597444 -0.6747975946437088 1.0042029607922835
Ni 0.604863503968497 1.600150558837515 6.829039565600822 -1.3455873536796052 1.4303401698469689 0.16152801344588955
Ni 4.69077182280756 2.8015696277512965 2.8552939328185105 1.350429769373571 -0.526767358573938 -0.6447822792285411
Ni 1.8731886609531656 3.425877088036719 8.577345615730598 -1.229489961762689 0.7009588264201089 0.7609292934364702
Ni 1.4648068130349627 5.933106205920539 8.859104850123268 -0.7256578718286858 -0.9030560195376125 0.7349194996362698
Ni 7.200241366334244 9.18895886105184 6.845596678384483 0.1593052947629579 0.7098268183337001 0.8327389191796046
Ni 1.8263141818268407 3.643345288551485 12.957576998499755 0.06219729946435095 0.7782896390917887 0.6756041497054042
Ni 6.688386745590466 9.288767987026992 12.567325152351373 -0.8442250654423331 -2.307632450156916 1.1825763279302859
Ni 4.997159211541587 7.610735090883015 12.746559203780532 -2.6752428666203025 0.962027355865498 -0.8521391780830874
Ni 5.110291524433937 5.008223608671306 1.9814296839276722 1.0430448733601456 -1.419715343143271 1.350873798889525
Ni 6.008454291270317 6.842700652778912 8.718211459818473 0.11825274769702215 -0.6142445156510002 -0.021347355327524523
Ni 7.79119954000129 6.889648588483691 7.116134502210986 0.31587802108610114 -0.44452059665787963 -0.9296569099545925
Ni 0.36213817715935676 4.295630523155793 3.1752202871689463 -0.16311901208209326 1.3143795606182331 1.1578253462378512
Ni 6.252247493088742 8.774278111531157 10.321148777601108 0.35556376971149734 -0.6091573309360799 -0.017288611877118613
P 5.305713569340023 5.3225167616615074 13.386438540491092 -0.08146257545186615 -0.25209177986807557 -1.1584102722070437
P 1.600343382355958 1.288694666190122 9.132465242976888 -0.02026569222757155 -0.9341915646001525 0.409864697146907
P 6.786488006116549 4.466747622665723 9.943730713915969 -0.7310533318126442 -1.3511231958961698 -0.5220344718746429
P 1.116521628364908 7.396572436398705 7.157795400681498 0.05396642691412641 -1.690485159036824 0.7497984736306312
P 7.646829817121131 7.413990827564746 11.384352866701995 1.0730735585117521 -0.13603861092553346 0.9655348547981243
P 2.014032468067504 6.327944497186179 0.24097706024192136 0.21358668181434184 -0.148792311046776 -0.5639941041358802
P 1.5064658750910127 9.184643287067633 3.938159593349994 -0.6889546028703812 0.9638428118076819 0.6712553858184053
P 1.3082065698421181 0.5157120093198728 12.38874945550661 0.2961545745152448 -1.8841833294573551 1.8348888540976012
Ni 9.41924523450693 2.4557819667486975 1.9251747997326982 0.5669992095107912 0.14861799025244085 -0.3277251502326743
Ni 0.28082817226075835 5.1343577359501165 0.967905197042845 0.21313648165080068 0.7577007591968434 -0.8024680361102051
Ni 5.9967930594406536 7.169628337263299 2.6484695905218123 -1.0205749743924037 1.7197216873044383 -0.23795122670163538
Ni 0.7466383732147471 2.216515526577537 4.442548271101094 0.42833215982347517 -0.7398274784608484 0.4316956769790694
Ni 7.265296348628074 7.951096147152282 4.760982538701672 -1.7012632234889347 -1.2746285059725404 0.9925489214931228
Ni 7.633176075600887 3.0461708519327204 4.265154306962221 0.47401783478604814 0.4421549246391805 -1.1974370470922022
Ni -0.1653608583807831 6.1263796459068285 4.971045397900986 1.2896638030391079 -0.3044836632062305 0.25526195006594105
Ni 7.25950246100247 -0.22260465176320177 1.5160005389744167 -1.192058042168476 -1.0325300898717507 -1.079355791976038
Ni 7.5123216398984995 1.682706570948149 11.33622870753471 -0.30777544658362477 2.7036332448375373 -1.3528592047506702
Ni 1.2056611863195332 6.971194572640575 2.7760049020346433 0.3945481213944947 -0.13847833071527765 -0.1985120468694065
Ni 3.7410333558237614 1.8570465778377732 8.60017775672874 -1.0480227861907112 -0.11039957020119051 -1.0256145936988401
Ni 1.0399706915429352 0.23931969619054005 1.8946150266811344 -0.546122108951466 -0.2757143043830219 -1.5125288248315822
Ni 2.6129698625691784 4.9152918548539635 2.0829742215688136 -0.612130811742107 -0.5160252895660855 -0.9077161440174433
Ni 8.779291523010682 2.2494332557974928 9.261989391351378 -0.45956720657835687 -0.932601337294897 -0.8901074297967444
Ni 4.8771862547806535 8.805543067735885 8.345591947120878 0.30005005291490905 2.536606670170922 -0.4797130853986125
Ni 6.010639624479341 4.633007405925344 7.778658665644633 -1.4366182895461967 -0.7707979587004338 1.098037170435625
Ni 5.981560001483636 6.053859638827551 10.986226475343281 -1.0765093236661782 1.7831490025211485 1.1174772814381078
Ni 3.465865012932928 1.2098849395806712 4.484262425590986 -1.0094022456050358 -0.562371738041109 0.09853572888406902
Ni 3.2809380766735385 0.923890933440095 13.475982109627218 -0.10872063983687082 -0.29480140292146007 0.15210954834546708
Ni 3.1465859946801227 8.673183495433051 2.7129892580001567 1.470969513332557 -0.4786028830535693 -0.1032292777049964
Ni 4.197905727594289 3.2641073381351338 0.23479752557943034 0.14997116184622558 0.8280839369060964 -0.06554461867002906
Ni 8.32595424907828 4.455104754980673 8.43985234680102 1.1683709829641813 0.9439936382922388 -2.251130915525762
Ni 2.592760121421864 2.6751508562309754 6.389708624765246 1.1878648300227348 0.3185452835056191 -0.6005053116880367
Ni 7.309811035171547 2.5286968029371684 7.218821289647097 0.06889785141297812 -0.5751755746739966 -0.6433229210741952
P 4.958107858020674 8.8261568200647 1.4443721111161312 -0.26698026694413374 -0.7118824153111482 -0.9162162110686545
P 2.0000573540165214 4.402124197770312 10.632474284821743 -0.5146142681511718 0.5538562443709301 0.45095606787057824
P 4.1586707326272405 0.7627979022675226 6.5319324973473005 0.1987871549076641 0.9593888898013864 -0.49945221569875276
P 5.654760866011544 7.62331452994336 6.496212399659302 0.3952209790918032 -1.2708921788585597 0.5752578499751576
P 0.2826251038112033 3.8945208765045933 6.473809061437888 -0.2925622291782961 -0.5088321142517559 0.001164195511430253
P 8.863638039221145 3.4162726404037835 13.114556461278871 -0.00015272352778038212 -1.179673038240562 0.17249402553909002
P 4.974158120412998 1.437343234765259 12.024810673967886 0.9200301854981058 0.4582541441938882 0.6815356846984908
P 6.881145989527575 1.814965140455609 2.2156294565999284 0.9650738560013055 1.29903316006915 -0.2601511598374423
