# total energy = -340867.0686374357 ev
CRYSTAL
PRIMVEC
9.23537340941507 0.00000000000000 0.00000000000000
0.00000000000000 9.23537340941507 0.00000000000000
0.00000000000000 0.00000000000000 13.51690251052795
PRIMCOORD
 96 1
Ni 6.425557047339096 2.3217820457748717 3.4496353682858154 -0.3023478478101503 0.4347984842741093 -0.7447493412424981
Ni 2.3650035921260257 5.8671494450792325 1.7110366603255591 -1.1158963101042332 1.2407174550473923 0.4361655398249649
Ni 2.669521551065468 0.2337676122969388 4.906446217708223 -0.6140804792693102 -1.7833526338915222 0.6067798318428389
Ni 2.7477543970356866 7.7373956267086745 11.047472500683337 0.574368762501985 -1.1381098700867949 -0.8959880569472375
Ni 4.721067343040958 6.471807796084091 2.5396232570712622 1.2963638407671028 -2.554194044235382 0.40616565102876495
Ni 4.039256684724659 1.483939758056278 3.578897345069852 0.9731316933087757 1.4406037565565062 -0.23880483295118224
Ni 3.341311829511894 4.551598245702566 3.399393091264545 0.8371211074077002 0.4109296480763116 -1.5706013034942823
Ni 8.013847286639324 2.5037650737341632 1.8040202442940818 0.10189127561986323 0.337761965643386 -0.2963911160060831
Ni 2.0298888419341528 8.111419003989738 2.776142087030169 1.31132611850389 -2.0765147014373464 1.6348313171179456
Ni 4.380937785227573 0.021906305116439456 9.58580846266958 -0.36060107502508865 0.35614149659183825 1.1289485153025007
Ni 6.517088830648131 4.687469055514142 13.190941655789507 0.4220039036126022 -0.0033545182945297065 -0.5703861237051532
Ni 5.953380124199045 2.518744848986636 0.7070878746332017 -0.78196348839895 -1.4024069337718106 -0.4825523546196206
Ni 2.885435339985046 0.7297865747660789 1.5407779385826756 -0.5657853917083482 1.120093378904716 -0.02730228735937879
Ni 8.132854305075428 1.3938025160931884 7.630453699758286 0.25839612481954854 -0.6934997990389025 0.10082838157298764
Ni 6.565934719248825 1.8050629179229378 11.778790300318013 0.022809284585031685 -2.6461143246854624 2.52474617128791
Ni 6.741970166898257 1.2659480101775105 9.537890729070655 0.06441153350685036 -0.7337151949155235 -0.2515053112369862
Ni 0.4559355959150209 8.364893055518321 11.119638630030037 0.7254719810701248 -1.029933275678852 0.371146968861735
Ni 4.760917978191648 3.1877922216069305 12.216778795586837 -1.2310693904346668 0.6584993717043175 0.12038162111456686
Ni 7.402170052038979 5.093243645691629 3.61944802150546 1.6559246474531353 -1.2170460795723814 2.3568713896883864
Ni 9.34785999694675 6.8545493656206 6.841525642401712 -0.6969592183424126 1.0993013818600292 0.5477555307898309
Ni 6.01058402550226 4.391272167784612 2.0502436043610635 -2.359366131085782 -2.2629793302239154 0.3691142547024223
Ni 3.2750387917734587 0.8092763550222787 7.781828854017365 -3.8189171181687525 -0.8834441588439559 -0.8488404527271575
Ni 0.9838535372510168 2.7767442333596764 1.9072754102822098 1.9234132214922552 1.0769037308911196 -0.01674379511724213
Ni 8.534833156887462 6.649071548362732 9.386731682543331 -0.5585546782878639 1.2017163911938467 1.9085630438533001
P 7.324796095771893 5.8309929591893255 5.708822825448675 0.5340492369473318 0.4368587092372476 0.4211585248931714
P 8.949279762454635 3.3049059885468837 8.253041604200352 -0.3253484224703816 0.5652434031619491 -0.011237006366400003
P 6.749146051837327 6.0701060054666165 10.924116545029978 0.3957801940293829 -0.6058550060357243 0.7131016324302301
P 0.9903921814426015 5.814009107962878 10.920777957635547 0.8656133013101222 0.6913125615795965 -0.48648999911112983
P 2.608411086918976 5.951976347479948 4.98656123272681 0.1909378340665744 0.7759203675286637 1.176583600681961
P 8.005489273936803 2.9811230412124616 13.174776058624325 -0.27262383838315635 -0.32265442057798627 -0.11107474189134418
P 1.0349620922739409 8.718533964253016 1.0111477590643072 -0.6537248331338097 -0.46150196170722463 -2.9088047060049904
P 5.777464736400589 2.87161922174972 5.330335992323273 -0.3327585988915237 -0.20156394632185287 0.8501087779166198
Ni 0.946293274642012 2.9824991118121025 12.940312099191726 -1.4347575821883742 -2.814311779731727 0.5483088321901395
Ni 5.822579534247893 7.409290524739137 9.361981806033405 0.8816693263317202 0.2819695412641144 1.3682295165591531
Ni 7.959524821759518 3.548488955429722 6.065791239130022 0.054437967233906245 0.5989459376207169 0.5053924924425877
Ni 1.0046238914697656 8.380316128682086 8.800976293305897 -1.155951783364222 2.9931847122139676 -2.219809222594345
Ni 2.670223439425017 2.1927638828420477 11.394992204092919 0.23406140472892592 0.39183920710376385 -1.8554733631171723
Ni -0.08668413594157351 6.962861821946739 1.936810133622165 -0.43259427753393886 0.2182709746638886 0.2920228117350584
Ni 8.238691681396842 7.39315632784267 12.681381789204968 -0.8711195758403321 -1.1674363869650541 2.219977886961725
Ni 4.61379848388099 5.516944095157063 11.538243924127539 0.06678389039376886 0.6078075017764049 -0.01267348170261043
Ni 4.412291877078464 0.44166694439524906 13.248672896899699 0.41604254382284483 0.4936047557790403 0.2440671097913861
Ni 1.5142779588604534 6.341182678222826 8.816669962903015 1.8106559496921655 -3.065495445963237 0.9821405816756054
Ni 5.357975617092445 9.272499352026788 4.744257365025518 0.5524171979315582 0.06489592934243661 0.7852892103380733
Ni 0.5008860041202209 5.006440373436395 0.625446252432596 -0.966144463357665 -0.9504082835693309 1.5320872065794842
Ni 2.1862621801430704 4.619284295533252 12.45563602202782 2.280017259542809 1.870859101544623 -1.4261479861424924
Ni 6.921321113509241 7.41025100354694 3.594035968740538 -0.08356110985210768 0.9454450260267846 0.045249101645786584
Ni 3.3641047304509217 2.3153911675537184 5.937745560990098 1.7747530651479693 0.8477814153350238 -0.18131573759577804
Ni 1.0542732575346807 2.1351813312396026 6.458037854714524 -1.020063581973624 0.4904775230039682 -2.226434441220346
Ni 1.0794027078811528 4.6615361277034495 6.9814664811613545 0.31090370779996135 -0.3692857472832801 1.659090960996259
Ni 2.0023027823292603 0.27166404248867476 12.693181825481224 -0.27620307109398234 -0.06808384015211501 0.1461615582921483
Ni 5.902290039922424 6.898639037048038 0.10379543531751745 -0.49734416821681443 1.0446356148860332 0.7542493103131332
Ni 1.8895665822633345 3.941666496627941 4.910393416193369 -0.42901195949931925 -2.624949517682389 0.2270512919596799
Ni 0.564743068242105 3.6231569473632854 10.368518343282942 0.7447758236050592 0.19169528105788922 -0.9168533304320209
Ni 9.052540469666654 1.3703539036603725 10.40605459392175 -0.7684425710943799 -0.3700365094063756 0.4989174262412053
Ni 7.377086778558266 1.2352126883278012 5.3778621461005525 0.13710690428904773 0.12692276466719432 0.7831487669563029
Ni 4.307590451654739 7.265865179689261 4.859799271455009 -0.6915832987424799 0.34483378488850286 0.4759399915094255
P 1.2466091387973148 9.228889920003253 6.514849252658781 -0.5108298614080751 -1.374391422395491 0.7685328168153409
P 7.696547571257574 8.430889032062197 8.35698665256293 0.18134453395118447 0.6121452099198103 0.1834188999817099
P 3.6375548941071845 6.9794393167545 12.971495336639306 -0.17176460357223322 -0.5788980178309062 0.21366252935759977
P 7.16608620815553 5.933440953563972 1.7154437803936726 1.2423099963454927 3.6393193917053455 -2.031810416551436
P 3.0803940672228354 2.3804543714092476 13.522579287989668 -0.06928017445306132 0.06988386947533126 0.1762403799553997
P 4.953198447215369 2.347714973585564 10.21860237798187 -0.10418084298498832 0.09496318104146226 -0.5769969441534515
P 3.2490689224701583 3.452478016141988 7.846480160230318 -0.4742111817437768 -0.38353017301743625 0.3062939769420918
P 3.7705719736148056 6.786383076386013 8.999985655208134 -0.5966831097284692 -0.663821041027547 0.6124066911113131
Ni 7.4921133511658775 8.46555862287464 10.931104951894065 -1.9783409838783863 1.1160572611621296 -1.8433395559681154
Ni 8.739923088472947 4.83539202728902 12.11145490601267 -1.241222676818585 1.0562968532740453 -0.5193772367574538
Ni -0.13751101208336294 2.5198623291380224 4.107056329645113 0.20534038264514962 0.27779561239208284 0.0035990302051679955
Ni 4.039856983979536 4.970773362323542 0.5569447191525934 1.3050474845840299 -0.6752025433916113 -0.8822033444583194
Ni 5.08412833239065 8.077044945118159 11.58452607314125 0.44724802289137167 -0.5145052533771333 -0.09854986995145609
Ni 7.368941179438241 3.3945168142403124 10.694991554816529 1.1033693812818157 2.4169634698842763 -1.7268140753748453
Ni 2.9642407790906855 4.354284498311028 9.87121751102031 0.2636486314677395 0.027700037018429716 -0.0871943357293208
Ni 1.3097329142909335 1.7898430229685143 8.588706782632082 0.4190697606849428 0.360467891881334 1.8030832795512302
Ni 1.246341312975908 6.963702240903567 13.072047308905857 1.2666192625148187 0.19291346973570647 -0.21506275213923606
Ni 0.43994824145167005 0.5135052179950534 2.649150164966884 -0.1780571214491643 1.7446346484960342 2.2151560400930492
Ni 0.3047377608204593 7.872629195772765 4.579242488158316 -0.2609415169492216 1.1268839194639884 0.03511638408715888
Ni 5.457495998177923 3.6345903393254066 7.309764602429769 0.03452348769816635 1.098696658396495 -1.0330857052649045
Ni 5.0397893058881085 4.998636483122993 4.955269017876038 1.475634522908394 -0.5320334920688837 0.04854242768507769
Ni 2.772643727680208 7.382258587523362 7.050741015174176 -0.8987051987680844 2.12465757969116 -1.1900209571337892
Ni 5.604403078906086 0.3867072387679593 2.219678530818793 0.40213287572028805 0.4034551940761374 -0.3423938079884426
Ni 5.908468504561084 6.450723439178176 7.4168053478728835 -0.9797983066956737 -0.4300265168067626 -2.090154403707968
Ni 5.2668501902020965 1.4508955929185798 7.756012291908387 2.5337910550989973 -0.10526122053336065 -0.5391618755835489
Ni 7.670429935983842 5.228929748040167 8.009778181228572 0.44425243059815744 -2.7330093840068095 -1.1217453126858423
Ni 7.729129967737674 0.13568148466196048 1.4044601367105454 0.08974024207962611 -1.4629517852344032 -1.7474446071410035
Ni 7.007653381733726 8.120839084604732 6.1986891823239825 0.46685859803344754 0.1428857157543539 -0.10630457419621045
Ni 8.771323357189596 0.703048322416536 12.853479273742405 -0.2570892330826669 0.5423708694391499 -0.3542946731910866
Ni 0.3595340003429594 5.4857192985303005 4.874600804005649 -1.9881186320904405 1.1076273852272216 -0.27146529929868085
Ni 5.55507695090149 4.4228571439643005 9.469631162567234 -0.29537347337484615 0.5226805900990741 0.5419098706423312
Ni 3.8453877315188008 5.477823054485378 7.074043708711191 -0.8092626904345354 -1.7459991329437288 0.19796568744763324
P 4.107219795749903 8.251547320824365 2.1242762026217727 -1.345139210398593 1.8345170725804794 -0.21636810121422093
P 6.497888489865214 9.170882541235818 12.88270276500714 1.096881459564627 -0.8371920698549518 0.9227982351615462
P 1.9512588749183999 0.42494076007974163 10.219102011669392 1.0926447957754601 0.9975368616260176 0.7873093260918957
P 2.0446654389772823 1.9491347390934501 3.7788256266007085 -2.2150742790125206 0.6157640376193202 0.2616498558701558
P 0.6073412269055016 4.922241476410014 2.8450379707437605 0.3673134540482577 -0.7493619003138449 -0.9126801728909378
P 4.697932733295308 8.62052818436446 7.00644539492545 1.071907820338425 -0.4576905583809343 -1.5821370720480237
P 4.231112326583392 3.0965559702387586 2.1120698099268327 0.40387402678111084 -0.5606408713929312 -1.0242822480406617
P 7.656493757897541 0.32980902831607406 3.483927232336343 -0.339343451197893 -0.23542408940440743 0.994806350068732
