# total energy = -381179.5223793783 ev
CRYSTAL
PRIMVEC
9.09291396737090 0.00000000000000 0.00000000000000
0.00000000000000 9.09291396737090 0.00000000000000
0.00000000000000 0.00000000000000 13.30839871708848
PRIMCOORD
 96 1
Ni 5.796023354323058 2.5704758261145444 5.763654399475689 -0.01274855791491998 0.10248057246442994 -0.8497264548765365
Ni 6.54017833374712 6.898439140811088 5.520749935120765 -0.4203841086209922 1.8660871340772764 0.34474045384374824
Ni 2.158139460177241 7.7408612405889645 6.238285409146863 0.2506167379844458 -0.4024974581485585 0.20610862826974183
Ni 5.015533091015046 6.392027487820895 3.39605057504653 -0.19963407628899169 0.34292242679840296 0.5609535175373436
Ni 7.781843003468083 1.29536741912502 6.514448115327096 0.36883271890626157 -0.27185867808235764 0.9516341855566319
Ni 7.148139649003565 7.613160357989818 3.4134316799374633 1.2943496385505515 0.2812971977874381 -0.9146583796632313
Ni 5.318590817883953 5.944346965613094 12.979281655332777 0.5576470788719299 0.444785420283492 -0.4749259484226143
Ni 4.606033714209822 4.118244348855849 4.166327677479053 0.6293335487736388 0.2912437674771887 -0.9864412659334882
Ni 5.779974361316258 2.0929068959671673 3.235937091613368 0.7255560561434988 1.4298748001747763 1.179803650281155
Ni 5.576029395792458 4.672621122588741 1.7778028767835803 0.3934446039176708 -0.4449949651911369 0.43807689791506493
Ni 4.348867923717864 8.256065741305827 5.6374638498728205 0.7608143651251608 1.155885706012977 -1.5887064977354253
Ni 2.94916841067782 4.035980756939409 9.743650994917328 0.5217480509824757 0.07250819447205577 0.4938770356038204
Ni 0.5514852271175037 4.204645216589905 4.032165370273317 -1.0047297798300308 -0.4619184804193528 0.18254858156161466
Ni 2.8990391764305192 7.024375998116568 12.386033584033441 0.4316344847238308 -0.0355850961934613 -0.499662531937346
Ni 3.1852386409568743 2.3089909015272725 11.341164121648603 -0.13241901189507518 0.06649541261907257 0.4967142479422994
Ni 1.2766178306944131 5.850662673857254 10.078982201037814 -0.11030186828106166 0.45539559169917054 0.9766993560553758
Ni 3.7062080490767464 3.89888689429719 6.314915031620236 -0.36705505818054845 0.03884139834722988 -0.4327410875244483
Ni 1.2380820616503245 4.265331323857543 1.780504381498776 -0.3883178242140667 -0.0785492584598131 -1.8642835052096345
Ni 5.449646985706617 3.1137228732523536 10.034279617797004 -0.21310768529539428 1.08389096084223 1.972125599096294
Ni 7.789026405437133 0.7630282314835033 1.659091248851019 0.5954253260619681 0.3363324322857111 0.8285295090839472
Ni 0.717377257324502 3.3210231239996717 10.558404267034927 0.18012660238368336 -0.247567923855793 -0.45605405121877585
Ni 7.5800894301905375 2.138498766185917 10.456555447901861 0.2804968133733298 0.9760786917522416 -0.2360424397146967
Ni 8.783036472589716 6.031093364074776 2.383280917258067 0.606620166336523 0.9785137835562955 -0.2505568312807878
Ni 8.715157870439144 0.42478547433708186 9.340579398937322 0.9559222714090245 -0.3240212190185258 -0.3890179356048849
P 8.057621988682374 3.5392530572366065 2.4517396473144935 -0.021722479278756136 -0.061480990123616686 -0.5375099418024227
Ni 0.09855445643257667 4.740081450700609 8.162346896477226 0.5118133083672669 1.224175748638627 -0.18442137310429527
P 6.320002516938822 6.983794323448383 1.531544036496527 0.13259976044731356 -0.6355592179683763 -0.6975605993718373
Ni 4.324708051525759 2.491531147766083 8.26639165431349 -1.0979024446299737 -0.870415864905088 -1.4056503804097726
P 8.036162711914077 3.438076204439633 6.34423331385923 0.28701301722529277 1.6019970441967442 -2.0753705605305743
P 4.723395953721869 5.287556702794884 10.792245824120798 0.5252100413891472 -0.3237291416994037 -0.007183148012000533
P 1.8887800721656696 7.100792846405035 1.8986295164857632 -0.23972168833849683 0.02711613949050169 0.35545244094461365
Ni 0.8870019286812404 6.283794533849261 13.330756420764464 0.5679407474884541 -0.536398968126431 0.49591977706546203
Ni 7.012737068343932 8.350304700808644 7.80601469644824 1.0152504768556967 0.6911719222366742 -0.7564010665488134
Ni 0.20398406505350528 3.000543374127348 13.25350120581581 -2.131230090702356 0.7875096150281599 -0.557759178969762
Ni 2.8770797893985525 9.025671786693646 11.161301738548886 0.07285889294325516 0.37136396996854754 -0.06539060959066803
Ni 5.364055387308315 0.6158594202568455 6.9376150509926715 0.9279365848293762 0.9430248466210662 1.2192633989386743
Ni 7.481394942884133 6.601128135517419 11.697044403857511 -0.08497804480429236 -0.9404342030757546 -0.08696447910670184
Ni 3.71485541018126 7.09867419746986 9.81163052841202 0.2878666234748397 0.8053422723342066 1.7758239296146447
Ni 4.492954237137551 3.748908372680107 13.191630291868973 -0.29462733923744094 -0.658572391034098 -1.5322784966546836
Ni 1.0331186897714184 6.781631569046018 4.325429119596829 -1.6185654900783866 1.2274690746779182 0.2794362333192994
Ni 8.057676546165684 1.961996214766661 4.132550230270918 0.6577540088978608 0.9427104007044409 -0.3416016511044504
Ni 7.151785907471399 5.138542030049598 3.7948103112623306 -1.4493475641874072 -1.4204856456503925 -1.1288968361289589
Ni 6.876934399473364 2.6619505397963596 0.5246565847001881 0.40358991988178883 0.7128167541999595 1.8577786142115809
Ni 2.822322261983852 0.5905047391802676 2.229835267576682 -0.13834154802709722 0.284965904888277 0.03715449756311021
Ni 0.9572201375743896 0.23504091242728656 0.5601653227120027 1.5252079629611475 0.5645188662910987 1.0850099049380217
Ni 0.4006174185224798 8.660072998124587 2.866176476359202 0.04212623974608874 -0.7539978564239596 -0.7387830963567341
Ni 8.33206431555559 7.187375572416788 9.50823818231215 0.5121933174145049 -0.552428510785468 0.7477822145315509
Ni 6.903840331658701 4.024732822463823 11.99990390520373 -1.1047148395661168 -0.08593166696681329 -2.0490900295674903
Ni 6.594390286328728 0.304880856102825 4.853692863235146 -0.9128313537568215 -0.858952858570811 -0.49741358800216917
Ni 4.944499247746423 4.932614809298895 8.431376211714776 -0.026147090709013034 0.11590481629013587 1.063775678149594
Ni 4.952382804084607 0.5987438284513503 9.870493506445742 0.0745131407172265 0.07721254192626056 -0.037731196002186634
Ni 1.615437987872524 5.300523197994712 6.056518969879654 0.9840619670680344 -0.13372770340416967 0.03715501178374246
Ni 8.526070726203224 7.925192790863095 0.10778285473433354 -3.4175393754469336 0.04738208882838937 0.4986721429996186
Ni 0.9095641759037739 0.5229134731084579 7.106658685152166 0.2571902774369055 -0.922953786902804 0.5587575383272894
Ni 0.8481051709559223 2.081195222883452 2.5329611912997265 -0.9317978675569953 -0.9213355345730907 -0.015058951215651485
Ni 3.426373624269802 9.070454387576644 8.059792467226695 -0.18362793066872246 -2.1226590612038927 1.4107823023196993
P 3.956054043891382 1.0160421974956284 4.333041707101244 0.5642740972701443 -0.5732773292100192 -0.2277727435067368
Ni 4.09751250519834 7.632428242511862 1.4184227320203848 -1.1126119829260064 -0.37702271091622164 -1.688092233324615
P 3.8730084613808433 6.216297834081853 5.39658255885728 -0.5451710578921062 -1.7415223281192977 0.008647391262352849
Ni 5.208175564579949 9.018079203599779 2.793605930644037 0.4097220009214556 -0.09527222764144883 1.202009496954233
P 8.572553701982692 8.426848849891499 5.423638524121717 0.2402207394621024 -0.21613001706148582 -0.04399337486181456
P 6.6243332517516125 1.343205239073333 8.652562251255683 0.22134755670668332 -0.76117303401616 0.16401452731316915
P 1.6884631792819331 7.973821694319392 8.830069569659218 -1.0075345962686777 -0.1624888346972621 0.30703676864538737
Ni 4.889014287220932 7.154386480842472 7.520789082998954 0.22470773142816783 -0.49711534003546 -0.2007969862488413
Ni 2.1647863802270826 2.301498340486137 0.48809579655189356 3.1274600605914915 -0.46084684462172887 -0.13624352784748792
Ni 3.2143450583023503 5.4476465446519455 0.8248718666886851 -0.056588437918005774 0.05435723459464187 1.8883297475255607
Ni 6.745760023770197 3.409188017027393 7.941693701689974 -0.5038557440830871 -0.4732385334178624 0.7818310765861439
Ni 2.1193127178888362 4.494436382100785 12.432426539965448 -0.29189245680478115 -1.0931988685067173 -1.607426956963064
Ni 4.787446439126909 1.8857157601864678 1.2275133678419374 -1.3885844260664213 -0.28788127876285907 -0.18605299517044732
Ni 5.129039935039906 8.003182713253645 11.783482552538496 -1.651811139505394 -0.23775890818517115 0.016048825932746556
Ni 0.7238368633483152 1.125348115305678 11.78581124778441 0.3526463389543862 1.7302614104934975 -1.081581338872447
Ni 2.1085558007630327 1.456393831112223 9.21240659410755 -0.595097253298588 0.8610092268792074 0.6251300522152524
Ni 7.203751910323444 6.00620605877188 7.704471399221705 -1.0115550302819805 -0.3403626364910267 -0.061714189180345325
Ni 2.47750987455561 5.324628512703509 3.3701521377196366 2.3861043184115744 0.31978095568493314 0.38980212206907705
Ni 5.78227486852913 4.8970160514396195 6.225243442761791 0.3035981752774836 0.27683864779545225 -0.9939051784107011
Ni 6.025564872432772 7.353048463399161 9.575419357967752 -0.6273201178880357 -1.2587617141436127 0.970898947323515
Ni 0.6759335744200311 8.09314800323057 11.338729039310234 -0.05748909535540422 -1.8687484829595236 -0.6889003525936781
Ni 9.11209993316936 2.525038535431838 8.114995547421753 0.3748413869941867 -1.017874801852421 1.6997812396267695
Ni 3.1574506961247044 1.3356035630655796 6.402377951696045 -0.6593990007004514 1.3043574004955407 -2.1711017300863125
Ni 1.2894843038415074 0.6616513345810622 4.691463458740975 0.1230781941101235 -0.257103374150054 0.3495059935531917
Ni 2.8396442629345335 5.986092533258542 8.168255471919617 -1.6864770663186957 -0.5258605304889524 -2.12071864964807
Ni 8.441679392437726 5.600143803415138 5.486879740191004 0.11139741533808557 -0.6364099960044458 2.224032773757389
Ni 0.08393214161431357 7.082197837510471 7.376286314123341 1.406046844517243 1.2180143570229218 -1.1471228722186824
Ni 2.6565402560348605 2.7297200269803126 4.057091775105917 -0.18871434405269438 -0.1589625667115585 0.1745686486799316
Ni 7.159605813412389 4.947899997539365 9.707784905389838 0.15527046257195193 0.03714806980520699 1.6222064292650835
Ni 7.840201324781194 5.12234755042064 0.3894958755498925 -0.1368150840802418 0.4928971881890544 1.638496424674359
Ni 5.976917783148706 9.006640317932609 0.5022907444175676 0.766133463345229 -0.8828808301413181 -0.41133742503769155
Ni 0.9502367797108077 2.7718565899228107 5.945234434008257 0.9165232007861118 0.22097397541734845 -0.14849174908722168
P 8.971805364839664 4.895397512768113 11.715982215605536 -0.05125571285118269 0.5000759653256807 0.168848972587335
Ni 5.476398338355912 1.6740600036882956 12.107847704513825 0.6772380857644014 0.3688162638460294 -0.9338601494026626
P 7.76395724185654 1.2960493876663852 12.433224897804541 0.1713941076066919 -0.33514175441171956 1.3808415488962091
Ni 3.0511454398966626 7.845038754967946 3.769603844682076 -0.5224499621455067 0.13206497098976613 -0.7949845832489663
P 2.1845998395822193 3.850421663290821 7.721506064093625 -1.392584291254434 -0.7731541176374362 0.874684667483771
P 3.9350948773867516 0.5206284238491896 13.049057948611122 -1.4396802163009723 -0.9207146131596401 -0.15105565315965597
P 3.4341844372969073 3.3824275714642145 2.08134070950561 -0.05841494960378327 1.1786890770607377 0.02352687947734658
Ni 7.067976520194532 8.824663832354661 11.113563940653307 1.61739640947095 0.9763581706658733 -0.11178333792259458
