# total energy = -381169.9706696185 ev
CRYSTAL
PRIMVEC
9.24049799506840 0.00000000000000 0.00000000000000

0.00000000000000 9.24049799506840 0.00000000000000

0.00000000000000 0.00000000000000 13.52440285963250

PRIMCOORD
 96 1
Ni 2.890621732276004 1.535438060494372 9.152261115515499 -0.12498852375895894 1.3667282494232784 -0.32521189689251734
Ni 8.338495761159303 3.4252307269433317 10.626393093992405 -1.3196192117506178 1.5707062045032625 -0.18563236269326094
Ni 5.574247075483772 1.1243283176415602 13.081477827734965 1.0067254701038209 0.18869377522740405 -0.51039585919445
Ni 6.873387128690391 9.211805958670572 0.9788856559292562 -0.5898264918179519 0.3458938507219011 1.732258129208552
Ni 1.3730917563320648 2.79250612765449 5.06624147370638 0.9378394457653848 0.6165669931365897 1.8463012096996008
Ni 2.8468217731588465 5.714092767736737 2.0592523057438386 0.23241127072001264 0.8717263561863955 -0.5394166719068323
Ni 8.532065707063566 4.017953211671378 5.569782066993179 -1.4945647841539937 -0.36262453321302063 0.0010114719836498709
Ni 5.082948293555287 6.542651234867334 2.220815015700843 -0.9892571381157285 -1.1911062197781679 -0.9654538650485438
Ni 6.808740606752916 4.835293714589267 0.15327583161601996 0.6316349432133057 0.15088827434385627 -0.15509717021888128
Ni 1.446424346111339 3.2157209224995964 7.392938732348983 0.3422228296282171 1.2647840090782927 0.2700481072361801
Ni 7.425821043428815 1.3777582076726058 9.88878607361338 -0.7450154504196911 -0.5229639256674476 -0.09182823495690637
Ni 8.663271533963252 2.76724260693164 0.5029769229268527 -1.5769025631219615 0.6704627147137807 0.5369491842029461
Ni 1.2275169555025929 3.6291407897784183 9.73118661312164 1.1573923724654906 0.6891757177422517 1.2898466084738753
Ni 2.425963305228271 7.455538484045014 3.710487663216408 -0.204743372491099 -0.6026588676959298 -0.3232732851089078
Ni 4.139040693585139 8.740161715358584 12.364103801128708 -0.8224267386203191 0.44555315168745196 1.3960503954261634
Ni 8.806490007878194 8.528471153456694 8.600816858081176 -0.8503617744676903 0.31902890801025696 0.7015386101829789
Ni 4.183404323062243 8.622345369632052 1.899299290486878 -0.22552739911598582 0.036567771821704766 -0.3426617169378485
Ni 2.9387647253140607 5.854492889851946 10.143680582530518 -0.04899828427557368 -0.34899820067883763 0.402048800646914
Ni 7.150250920898886 6.970366152094308 2.4906135233648277 2.41743809552785 1.2596474591826758 -0.017171369572963977
Ni 0.7456619622276386 6.924413157012109 1.8560888751232387 -0.15960071451618965 -1.054022455417572 -1.0729470602362166
Ni 7.302737614010981 5.559536203138937 11.470924685454207 -0.04066328204731706 -0.1461898404269224 0.3644075932553724
Ni 6.846552723357854 2.4696616188706835 6.285547322949161 -0.2080097019471966 -1.6185716607259737 0.4538662995388377
Ni 0.13819164316394245 5.110198521284506 3.607025506623336 -0.6417815447290044 0.8558019716466552 -0.6196356047595845
Ni 0.3995914624647238 6.1688269002503295 10.68975518674902 -0.20708050526470786 -1.132397907303682 -0.686124589620754
P 3.288083260019946 4.065587977335713 5.9731196272271205 -1.3512262971329374 2.486098891229357 -0.7892235123954731
Ni 0.9662603639162242 0.9803336419194797 7.333377256298042 -0.42725898136395446 -0.6085654629883519 -0.5412328991799646
P 3.6043023319499543 8.165753897079949 9.74366960147003 2.909607147301628 -0.6124689118078162 0.17428814132503534
Ni 1.9101679638863718 3.8248360501546115 1.1666950755648207 -0.14703290515350806 1.5812477274645347 -0.5352784813687427
P 8.28231353511873 6.520215306441921 5.365008941672535 1.2503081840596209 -0.31293565062832557 -1.269021187088092
P 1.2306217627311509 5.4397885933922625 8.700762081248092 0.048210498266955684 0.526567583858306 -1.2695639469654394
P 4.528925013211768 4.91312642675041 3.589227383995581 -0.39725806412649 -0.13298439748024193 -1.934198742143533
Ni 5.550730008826986 8.106189648879695 4.219951415531497 -0.9240454773050859 -1.476600486366089 -1.410083733590778
Ni 5.164052141903659 1.2292356880755448 3.1016996491801154 0.6114049893196761 -1.0929610414642983 -1.29742596348303
Ni 8.23395801063348 8.737093870120841 6.137833346901203 -0.2075844414843199 -0.5358019579723805 0.7537679998013406
Ni 3.5736978035541687 1.4877755733369253 0.9848115871068582 0.4491249281991104 -0.5302781999406739 1.234886450187912
Ni 8.931403055841429 0.15438007109165297 13.445649538450326 0.22315298534653824 -0.5991732231401746 0.6527069333922566
Ni 3.640635968922246 4.7034318123525924 8.370307098555235 -0.44997544912486376 -1.036950844647266 -2.341275335022342
Ni 5.384493455131277 5.447042384089935 9.70601734547537 0.7237521701655406 -0.25773123754204 -1.5630839120713145
Ni 3.617922825565712 3.409216944422228 10.481222102912602 -1.0882564368997774 0.3616197460975901 -0.3305019416468631
Ni 5.9179011850970795 3.2972775552354676 4.105291623820667 0.8133314611872702 -0.2671633294892173 -0.39199167352122816
Ni 8.991549455397037 6.603767886681865 7.4147804967720266 -0.9045865972495258 -0.49480571806567686 0.12041144591123777
Ni 4.094464532660842 2.7917853688335743 12.762329518032775 -0.8848294692272568 0.5975811960627063 -1.0539396658957785
Ni 9.071036216647201 8.42105036764721 11.076485724509258 -0.6813253684598976 1.1092188980840574 -0.22753260247147267
Ni 5.853300865648125 3.3258399336386604 10.569009603250308 1.024178632583262 -0.8805524391184577 -0.3658620663137118
Ni 0.30599723336979745 4.427880170818072 12.577748728295003 -0.09382058279658681 -0.14467546066492504 -0.3209338383424537
Ni 3.365509390282111 0.207322578637189 7.156586206124777 -0.8035188459722226 -1.699059016748764 -0.9843306473483886
Ni 4.8126082927258444 4.969040678357565 12.0076673110414 -0.09406458048659284 -0.08509965798382119 0.9862502329686047
Ni 6.3743817716767355 2.6631761217887235 1.180459720944761 -0.41871726244153046 -0.8785624052716224 0.5001824089965579
Ni 4.416348029683428 7.056053287303886 7.8697687429724805 -0.8037206775703835 -0.15118935052404284 0.05260477067990941
Ni 3.6031195482438374 2.5078525958814875 7.05933273993905 0.8931796409641649 -1.5545576197678583 2.91399550617731
Ni 1.2156798779437157 2.491912737342016 2.860600279285343 -0.9305503683031393 -0.740388493170641 -0.9275252083235704
Ni 4.603486589185679 4.246267428942838 1.0184534670979626 -0.5951872419092329 0.7346065963815412 0.4412275277289046
Ni 3.552222886889976 2.947755729580093 2.937297334278659 0.6024048427035947 0.2824359393775716 -0.05816812370029983
Ni 0.2774570321610945 0.9328652052138178 4.656478995418817 -0.582118581650733 0.4799383140355412 -0.43853481138809
Ni 2.3065853153897575 5.6233233587899365 12.803809188176446 0.6417440066228496 0.31343110220750536 0.19437642743447814
Ni 1.2272582215668797 8.436860859218825 5.603754756802087 1.9770688020341822 -1.4052042940112897 0.6539346351517706
P 6.252434923476498 3.643463561219683 8.3860224130005 1.0854068832661241 -0.9406818003101863 2.1808271849041927
Ni 6.409661991910766 8.99473742710493 11.261445374652896 1.4892359157419126 -0.42822674459386245 0.5527139032363707
P 7.500049961485382 0.8652875974046206 7.793139143612403 -0.29214853867964524 -0.15539001886895173 -0.8529819856993568
Ni 1.9404860368533323 7.182592662863032 7.545155602928119 1.3175813553849824 -0.019108952915309025 0.08344952397490789
P 3.647067355324259 8.413639488488569 5.217755142410239 -0.23511915656947896 0.5837825996167172 0.5065003807947858
P 4.169562057501588 6.623736602220299 13.28422266380957 0.6074323778251732 0.6881932992243244 1.1892779083201774
P 8.02491947157265 2.379123222366484 4.196986930637414 -0.10020694593890483 1.2801990580817824 -0.18292396262316238
Ni 6.1727263902814355 8.312807177542066 8.762041365822213 1.1566092144425628 -0.6638902037025857 0.3448993480191157
Ni 1.1197727522734677 5.175039093673765 6.0826814363546315 1.3484291940037745 1.1354960866130315 0.0679722542749152
Ni 8.376363320750464 1.1736263728926224 2.318907519078097 0.28389169798749175 -0.0461520730760302 -0.02128102086596335
Ni 4.576033070506972 1.8314943664341614 5.215753650607543 -0.3018760503800543 -1.2064515918859866 -0.2499204832483696
Ni 4.626061125076653 1.1449993110055012 10.647977972579277 -0.07398683590011129 -0.29804202134594476 0.3604815187280888
Ni 7.234357931001073 4.62424998752666 2.502433968027838 -0.26110401066901484 -0.7294116824441631 -0.06931796966953223
Ni 9.108478713343978 1.784349347148141 11.771328645563749 -0.34766868323413674 -0.8603340551890538 2.281597459545735
Ni 6.371896077794348 5.581657954642413 4.581161546732714 0.6100183933847946 0.7838172537782372 -0.3518559818426069
Ni 2.1491641965037043 8.218932961366708 0.3038423493052149 0.7125814982607018 -0.6402257702061103 -0.11698467961787595
Ni 4.016936756923933 6.0824559682106525 5.328316773389326 -0.10244869078523001 0.6961812025258074 0.964770465828274
Ni 5.707190115951818 4.495354285052985 6.70376208448661 -1.7308946732021222 1.3844212958276674 -1.8483377805136556
Ni 9.175001056315374 8.192800833859678 3.4937998401561727 -0.6566862297549787 -0.12466970696695948 0.7309255479855282
Ni 2.1985361757363986 7.584323300546242 11.326700845389068 -0.2395463391028971 0.046606387004629414 0.9420491129713582
Ni 0.09684041593835618 7.03793267130626 12.96859036348377 -0.37088368789801934 -0.9697175254209041 0.5294078815205785
Ni 1.8153142549543844 8.853662748657326 9.22151956985706 -1.6913346515213132 -0.4862902243954979 0.0073736667562518165
Ni 7.870972779823316 5.107112195051355 9.050124046293185 -0.2035521803964752 0.5041133686198479 -0.3240016786345001
Ni 2.613804142556029 0.6800433399316983 3.8050225749776057 0.3898491732569286 0.0021275878659640776 -0.32506200157821435
Ni 1.8322243657527808 0.4310045344096133 11.9691233470183 0.14634513505786406 1.4810616074612364 -0.9939982523451397
Ni 5.066952992029591 7.131945494947179 11.144729572202916 0.0424100895350947 -0.007875546093334825 -0.65596092155318
Ni 0.5576871376831719 1.4790155815134938 9.723423671000473 0.262004153885781 -1.417516021499107 -0.7680923868438126
Ni 5.733239078979511 8.98538604342844 6.322455718878644 -0.3230727390623275 0.9898523484975661 0.7201567395047984
Ni 6.5293264371781055 7.397692968417712 13.310621841700247 -0.7300130634735879 -1.1736062632211919 -0.7407829003955823
Ni 7.152376235370816 0.4137017024587954 4.295959129396092 -0.2091808394371623 0.6432357606770278 -0.3759611024209267
Ni 2.3162601164858887 4.630320994518216 4.064637130121966 1.2471246441253168 0.7157534682307801 -0.17304527005686973
Ni 6.5731356367929665 6.804720990251658 6.599921991537442 -0.42646656736964617 -0.025687634574091244 0.8400490796877726
P 1.19577584588921 0.12648670472223292 1.78651901600905 -0.5041645335727575 0.3443858987178069 1.2564634050277395
Ni 8.61913891692875 2.895731727506339 8.25629598978323 -1.714086857616164 -0.14241314699330956 -0.9635083112863987
P 1.9807838473406578 2.8168271176115276 11.8249669625864 -0.19137080783893493 0.1555715387521385 0.05837818282857688
Ni 1.4229719629384812 1.8743517947855064 0.25098300623901526 0.5230528858368283 -1.323216699293889 -0.14069899251568027
P 6.933274794310285 2.969175203258062 12.394722190271048 0.49842043200012864 -0.3239183748920744 1.1335767581031315
P 7.363808063336992 7.0824903512351485 10.050051239544315 0.7054492580912948 0.9284870580162075 0.002918459198375619
P 8.96915048896244 4.952694237919117 1.2022950170194113 0.7334452290835884 0.5868375843929571 0.1854690976425193
Ni 5.169753528987054 0.9959038805507897 8.290715919681015 0.687836430105538 2.3849743185721892 0.4270556071038968
