# total energy = -340888.9724861852 ev
CRYSTAL
PRIMVEC
9.07600537685542 0.00000000000000 0.00000000000000

0.00000000000000 9.07600537685542 0.00000000000000

0.00000000000000 0.00000000000000 13.28365128571187

PRIMCOORD
 96 1
Ni 5.136610458183258 3.0951355582890643 9.551317287064178 1.3992264791612998 -1.5106814872101983 -0.3821132380652516
Ni 4.804955080347684 0.7522510675068372 6.328012200158223 -0.6917193100997119 -1.5784056300300493 -0.2013232910659565
Ni 2.8333291155917575 2.0277338281946955 4.83601952295394 -0.7323743646169129 -1.3467983432685708 0.554531930281716
Ni 3.4415848244140586 3.0681435191646873 2.7633050135553385 1.5790630611083902 -0.1045896483876328 0.1027147999624231
Ni 5.609052826905633 3.3578405254898387 0.32897069553127367 -0.00222374712419617 0.342540617978952 0.4078409818486589
Ni 5.354579796317437 4.919240136384724 2.8501133717964353 -1.8615879606553425 -0.6820203376443932 -0.18021864787685735
Ni 4.912877856819765 4.761018139728615 11.384978898514905 0.03501174018849454 0.4381378330599874 1.1022092995354436
Ni 5.5613674961862385 8.398581141954605 12.947468537620564 1.6513686526513365 -1.5998676565585672 -1.2835589756929506
Ni 2.4375426858218012 5.585863633912093 11.749946845416423 -0.2822932431521203 -0.7428744928172883 -0.96124754027668
Ni 8.086203198920703 7.368091524543101 9.421296253409839 0.6631456122270772 -0.286973422236609 -0.42027303696442453
Ni 7.925684972977953 9.00556621006493 7.198251333776999 -0.19291064152222906 0.09855115550303672 0.16513449985022527
Ni 8.549052230267668 2.4955111303031057 1.5509195478226199 0.46049100394420694 0.8465146328074582 0.4364889846026548
Ni 1.39432850928038 1.4127709516141846 2.542384158567345 1.0116447617823094 0.13491503884405154 0.432132764516488
Ni 1.8823816067498726 6.950640670633976 0.3569674484186197 -0.016568445881642434 0.33105035795116533 1.6375127206048505
Ni 7.59923014605639 4.233593332198077 3.971094390312744 0.22303805703522878 -0.9916922299197825 0.44975459136330925
Ni 7.93422549376344 4.082877191747703 12.887399905562466 -0.9393975342811242 0.2958218737661744 -0.015578828274863493
Ni 4.7564892131909335 0.16254671307936683 10.722761801456564 -0.8485900272792481 2.8630154155850174 0.26858952041278256
Ni 0.26437858253854707 0.19308656259167936 0.5419318940592549 1.0430019359373521 0.39011039733811526 0.2897281021636107
Ni 1.7798409012935121 6.6663983433652305 9.432906279115253 0.4234928294533029 0.09990741242061504 -1.2884929226594584
Ni 0.36982996282583813 5.405459880826939 1.590159655809925 -0.4112916594014207 -1.717736281443293 -0.7836689011258309
Ni 6.387066134847757 2.2013578054809564 7.493972084677421 0.8333025049925584 0.4420034866629807 -0.2870315291680541
Ni 3.499199304697027 4.504067359752068 0.40308535305974236 -0.08769132997039736 -0.19316363807329956 0.5022153802661867
Ni 6.021584486058398 5.864651282124434 4.843684209248674 -0.012008851535418027 0.9056939713810919 1.3672380991801614
Ni 6.903136860016293 0.8617839272810929 0.7707189226548814 0.3956210427436993 0.8838002566317941 -0.3214894537356076
P 0.3109049074085188 5.718364232155801 12.526920950776255 0.003673849307161415 0.6429297994008346 0.4496165231235483
P 4.3042228037737 6.3878103672647715 12.833295116446074 -1.058127992945513 0.06564154925920954 -0.718514318805369
P 2.4200441480168924 8.866993764419002 1.554824952810925 -0.7404296308212216 -1.5310721350514083 -1.1763329181237354
P 6.3627424412185265 7.992965398677014 6.004887359502542 -1.8242704551518065 1.5799655183180015 0.6164968020202867
P 4.811117687800761 1.5039303466932858 12.988355032930384 -0.5765526575271812 -1.419782963156413 0.03294765857061423
P 3.9749997953010494 6.432691212412736 8.339422833206587 -0.3950733977703454 0.5335686977664875 -0.0937827875801159
P 4.69862060476557 1.3045032869488526 3.761837109460169 -0.22059293792884588 -0.13729433770950547 0.8591860576275396
P 0.0878103492025391 5.798278456933926 3.949601502669691 0.5526560534152418 1.2541558399404853 -0.7809810698810227
Ni 0.8611449765230712 -0.1583209251115423 4.6614988363652285 -0.2653689565929559 1.0508288881809387 0.005979357511886476
Ni 1.928778144747121 6.632354248289392 4.953898677004853 0.3779922739183426 -0.1485925363311441 -0.6619449070507568
Ni 7.140547001043684 0.7961081392811534 9.801713376167951 -0.15232166435627315 0.47520414178466547 -1.7965151394154093
Ni 8.73151623650724 2.5219223051020085 10.38389644518104 0.01710837754551247 0.17096267649622812 -0.16578961693572095
Ni 3.4435180134972776 4.51788103949225 5.101333841616806 -0.6209851768089435 0.6791157624030885 -0.6315488112574026
Ni 1.3248879943709613 1.1153139609409013 7.169160014676338 -0.0875756303281395 1.3967055125116592 -0.34741954333780817
Ni 1.2443112212215928 1.044602805319508 11.513325409230966 -0.140964330361925 1.3694510476710802 1.5287072343636576
Ni 4.068564331727816 6.923639555504512 1.8452852511637703 0.5752689057187511 1.2376622131608361 -0.4673201110508983
Ni 5.6346108572264955 8.317677632622155 8.744375120512423 -0.2019853501299876 -1.0770515693228935 -2.3320728425874675
Ni 6.940421088907665 1.1904905110643775 5.089777364341395 -0.49039679036470385 -1.1015330994040256 -0.630305939989237
Ni 0.960059817947761 7.842412626318181 6.908229406469785 -0.8200494966373942 -1.712137190088961 1.032792856614834
Ni 4.985640189590489 4.761054443748957 7.027436380064711 -0.15327425807752956 1.366157464521473 1.127493270913213
Ni 0.7341907249871336 0.09053859633125055 9.42898816771983 -0.43002754524802717 -0.15777137461693475 -1.2158608010150285
Ni 6.278371897943405 2.1995063004435074 11.508118505113393 0.7308273318447671 -0.5889422894407856 1.1125088816892388
Ni 8.088944152456534 7.455656821608331 5.035314073024124 1.6452756523797214 -0.2586262385524837 -1.1282247497625988
Ni 7.357844714801534 6.513485809684156 7.123450530264065 -0.18042253635754735 -1.1039249966749698 1.0158408021415277
Ni 2.5380503661390024 5.369818408856048 2.5368850070860196 -0.23419587342426118 0.005380033364990734 1.1355997020704314
Ni 3.5704277926082963 4.477284068744659 9.138274648825096 -2.4588261715563333 1.505942172753 0.8646776768697302
Ni 1.0037063264040929 3.842226916904776 3.8264482820635752 0.5333426977986104 -1.2519464909939924 0.23749768410398453
Ni 0.988304345773942 7.606500026129901 11.45514277102964 -1.9154502578914365 -0.16523888663857347 0.8595015319854294
Ni 2.228059412442597 5.425245571913402 7.12451333045958 1.1688810898313804 0.21166735330444192 0.46492230024268316
Ni 5.091602548964096 2.9002918811128255 5.28907191441158 0.8844247775896704 -0.06752951031054176 -0.9422172631181063
Ni 4.214660785589653 7.190492257029376 6.2675714518916195 0.49035539560380714 0.08036908527737126 -0.373786206256795
Ni 0.38481989282510565 7.665121942977364 2.5187529641261404 2.350271882093997 0.04252553206703644 0.17702765174338542
P 9.35627212257504 5.762863885090173 8.081919324520332 0.11623803125983853 1.951354942207846 1.0859576135632716
P 8.474783280652744 1.721808924776609 8.23417657063423 0.2129405635899107 0.5597479272650167 0.4786908147816853
P 1.9488361159861507 3.6720427455459324 10.602133525465241 0.7389674444533983 -0.8638078726702672 -1.5022711516593161
P 4.003253399132316 6.467679212017469 4.065129063802941 -0.9266003825164557 -0.977669176167813 -0.4891541762068544
P 6.8200097294378885 4.042035168862801 10.626017032847825 1.3530073002927603 1.5809517934906707 -0.9759799613908481
P 6.457151046118249 8.010010136227647 10.721778870105801 0.30769239995151526 -1.8729537792901227 0.35384035926248736
P 2.6588610698325423 8.744631063855836 5.925770007970927 -0.3876557651500356 0.7329425784155571 -0.6744335264360708
P 6.994250875069965 4.062964436590042 1.856881662861557 0.8391211685568645 0.8618867443881544 -1.3484055398546906
Ni 2.5379868341034038 1.6507710329721363 0.30997552448776006 0.7078216149782133 -0.10100913012522604 0.7673349398524978
Ni 0.8442826666746581 3.549189940708147 8.202534894104533 1.1482922099364352 -1.167488837469544 0.44854668709813716
Ni 7.952123375792113 -0.04227421648739914 11.870363650489251 0.5232765718118602 -0.11000336320403635 0.5100022233004572
Ni 2.570016056050252 1.9424738364211915 9.344224633424503 0.36742452570482526 -0.6392500365564023 0.548915612536203
Ni 6.335015245682221 2.231862258573435 2.7964342473185546 0.10944903336246312 -0.22446296240721345 -0.012770155181474781
Ni 3.9522916305770437 7.025907980808308 10.541759032035763 0.49069452411078074 -0.14420494878640971 0.18744010532596106
Ni 7.383656873264792 6.087567043030228 11.49965694557215 -0.26433177357769316 0.1645734851404327 0.3433708271897312
Ni 7.76970474957797 4.384944793004438 8.294590998486084 -2.3869980338704377 -0.9122515699939516 0.21447551217719837
Ni 3.37316082207422 8.566995492321768 12.634717570777648 -1.5075511691113326 -0.03428900308985707 0.811041636711829
Ni 0.2457482668994719 4.831438863187271 10.304885282908925 -0.9269027442482229 1.6678993033165084 0.4319342753524367
Ni 8.685410130672727 2.5222308892749172 5.909231711504067 -0.2149732777492233 0.7478709175906152 0.49234620078159086
Ni 3.5958133788325344 2.7772121761479025 11.653255625237689 0.15355193721894847 -0.32540113008518795 0.1220150429529318
Ni 1.246407778396351 3.4950334183627674 12.668524782120752 -0.5144016379197335 0.28437583671276184 0.10364579641712472
Ni 3.0666459783255737 8.737016295589072 8.043251004853415 0.6294507910777933 -0.7064309052782737 1.3345812323770887
Ni 5.503616875826987 8.084660278056162 3.9706823396818605 0.03883188526553312 1.025386279738118 -0.5271764210868984
Ni 3.096660327143434 8.749731778713905 3.636531968048273 0.2816682079736117 -0.256169549481875 0.3283116188637636
Ni 3.6683215834608633 2.935261728707387 7.319796286281958 -1.1107882994537064 -1.331452714050436 -0.34441186685973585
Ni 5.818708544381463 5.858815410854436 9.38616122252272 0.961001228593829 -0.24873520469101681 -0.17454370897926713
Ni 7.68697696322333 -0.10475252789570498 3.039697504025607 -0.1892848718441837 1.0163352252794433 -0.15199179182068018
Ni 4.6549105642736395 0.38832504598913886 1.6669916692610025 -0.767081429080795 0.48346098247681896 0.5512388613527409
Ni 6.082112363973823 5.886515378375485 13.970016650582226 -0.5086359390805498 -0.9366726791507933 -1.395427931350816
Ni 7.964938694972886 7.312528221409464 0.5570951757556561 1.7143185140109958 0.6308620696030233 -2.5717564785991773
Ni 0.15699673596956296 5.016416922835535 6.046665118511762 -1.0896859702574524 -0.19148316504708313 -0.8532486090971821
Ni 7.4996845222782555 6.383571872889827 2.530097062882549 -0.8526922223730798 -1.7217687996414541 3.1270227159437565
P 8.918055369030215 1.6608544746221645 3.8807917701137176 -2.0888094596442994 0.21693400102001992 0.6908927004333585
P 1.7583035412255403 3.4386169707510894 1.5849790721071024 -0.45053003607675307 0.5146610622287072 -0.3242788435552867
P 4.649129149034155 1.1868238050098219 8.54891972059342 -0.02808878781641614 0.7652960550455982 0.01958949209615336
P 8.521234274680507 2.0256009669995954 12.606848789562006 -0.16253151500973945 -1.797690647780749 0.3150426696689994
P 6.258531750826428 7.870421178012139 1.6719471680377038 -0.6620680628921823 1.3869692590605016 0.9338650344986691
P 1.6717184527095483 3.2927201890011344 6.208911415822798 1.3033076190747876 0.47318351181021084 -0.7325939368268867
P 6.675374512394822 4.180752830590099 6.037725253502511 2.474082069274139 -0.7245242724448748 0.5696106789917093
P 2.5509110653452036 8.754832493571975 10.672430815254735 0.565535223370755 -0.04102143671768419 -2.3405430848420075
