# total energy = -381175.34686966846 ev
CRYSTAL
PRIMVEC
9.20992167349964 0.00000000000000 0.00000000000000

0.00000000000000 9.20992167349964 0.00000000000000

0.00000000000000 0.00000000000000 13.47965132231356

PRIMCOORD
 96 1
Ni 8.970178369397244 6.802945610454493 5.064075526441883 0.6046003076930168 -0.42067772860201097 1.4591385821358998
Ni 4.939649482316704 2.5272301840178817 2.6731365288620212 2.04834492387135 -1.0059127443945386 1.2799234358228924
Ni 8.618433034295183 3.248164446196326 4.897346469298512 -0.17183608024011696 0.38291336536904375 -1.2552261901865285
Ni 6.501624597453494 9.09020207088054 10.775498960513303 0.4401844311763709 -0.16729525494696995 -1.087256277770037
Ni 5.795739347569686 5.309298905485335 8.054846602868851 -0.7898045817099236 -0.9842177759196082 0.9371123377913732
Ni 8.590471711573937 2.2595622254383043 7.301091863203767 -0.5972518377477456 -0.41268956819021185 0.2219193700497533
Ni 4.814541903974999 9.569385094551077 1.4009267377873797 1.0659680578152222 -0.36141457206531946 -0.4045155170198517
Ni 3.3464251023600227 6.475468419413856 8.787209457064685 1.1248167525223143 0.26971309249426456 -0.25255072178236504
Ni 1.8501811994305901 0.15215619780811807 13.432877313098627 -2.2272466527089967 -0.49538447338728225 -0.5173000425134511
Ni 4.550650013351849 3.983770113873765 6.424361642104083 2.0594580030653757 0.2686136887824987 -0.267266687836301
Ni -0.16443762858834948 1.7066537773989991 12.2897897052979 0.7200546667092953 -0.06940590139764821 0.7971401961393885
Ni 7.073772572226885 6.843920552742643 9.15996262389506 -0.4375768183501948 1.6445318322351614 1.9960965080895947
Ni 2.5228923108289134 8.067311311093796 5.121741610089624 0.821597043630172 1.5185462346702556 -1.046488608934372
Ni 2.4952533353722393 5.580107447414037 12.871463502235516 1.523575569564047 -1.814729605540907 0.19338295317295728
Ni 2.7698932047884384 2.5805740513437914 10.16201317253107 -0.5933579020099781 -0.38821189476382173 1.1242886479329866
Ni 9.184824807915485 8.962405195360112 6.544357713821845 -0.4030553875345575 0.68828457338655 -0.4776808854599322
Ni 0.5735036752689667 4.384908259830255 6.521536448482261 -0.4990284978977728 0.11376874378373954 0.9137235265537876
Ni 7.255346181399936 1.2721849242856602 5.351624022315955 -0.04894377688855442 0.24947516818083487 0.7930750249310793
Ni 1.089589013787821 1.8152387559508765 5.533950082103737 0.5932103206885203 -0.21920968442807406 1.5794057891597897
Ni 3.9458989152473594 3.9131115934793623 8.678752496426453 0.13649832417077137 0.7770115437103134 -0.3491038730187665
Ni 4.542839999627337 3.4082052580959 12.062509095992766 -0.20344419406370123 0.9293967143146702 0.7906018808002383
Ni 2.2118548302815 8.714096492498605 8.984713468052933 -0.3071588960455484 -0.4117099778857619 0.7679139522844195
Ni 2.3333889589473675 2.806603953262381 12.960442399163878 -0.6441173919510326 0.16921921144256016 0.6320843720458985
Ni 1.6261682703960427 7.32157472938692 6.883101402255401 -0.5092566033836842 -1.367529148058019 2.644367517197684
P 2.066061767476053 0.3854711479060579 6.9202376491185795 0.9179169958098449 -0.0344538108024955 -0.3821345782214902
Ni 9.289863966557059 0.3761083413584889 1.435529335151015 -0.09353441901473568 0.3214007506765433 -0.05924901546930442
P 2.5606437804713345 5.221675709052547 7.2355531383629685 -0.055289516600924134 -0.287755294707956 -0.26346916846708174
Ni 3.5939509618647096 4.945175435423669 10.656001145567352 0.0688590277552427 0.5630510234963206 0.6217117705623227
P 4.959607382954695 7.785773210215735 9.736621618388105 0.10272482726475211 0.03561337832823544 -0.42265773514651717
P 7.308395331226807 3.958921744736109 6.533667757536421 0.5303080247373447 0.15423867887332793 -0.12712819580978105
P 5.0506106207045764 5.453378922827622 2.6869394387310375 0.0022561430240283726 0.8375350550166674 1.2603054044816488
Ni 1.1398015076864503 4.6144563518936135 8.93165787128077 1.4116785888817236 -0.16011827758255648 0.12033225593387017
Ni 1.4111350151603144 5.07912453873652 1.2917200895109686 -0.9006170710788167 1.1209482707058438 1.4384507147692451
Ni 5.992233030131544 0.184131204469391 3.5703689569807326 -0.32211320336253557 -0.3335826374547158 -0.09725943327480668
Ni 6.287392605418276 7.059460353679844 1.0705023717563615 -2.617245978390544 -0.25531722878390867 -0.46471378377630285
Ni 6.034423682103228 2.5141705148417524 7.6651094191642155 1.1206178839496186 0.42292744386813613 -0.46677863672513153
Ni 1.6856183159051492 3.6663593674096506 3.6203779116065884 -1.3688650932606232 -0.09487036421733984 -0.3616117756777902
Ni -0.32020135278313167 2.7419595118327265 10.255156796117713 0.5821139536650426 -0.2952947976181108 -1.4616685476466051
Ni 3.71897565090981 0.8256621254616598 12.709653464349529 1.2921325762945748 1.4402422594520294 -0.9632121202022186
Ni 3.1888157098275136 7.56703756639834 12.357753402560473 -0.3624630679344919 2.031671319870411 -0.4278693612544437
Ni 5.188483150723373 7.71803423504618 7.530245770612162 0.02489547769009906 -0.20810637542606095 0.3267116213664954
Ni 8.412729429888381 6.7995747790592445 7.433933933910856 1.0465539149546685 -0.3580500264684608 -0.7804277684807139
Ni 3.0748521369181896 1.7366504928479785 4.2295645080716024 0.9832500126897002 0.3903255986727149 0.6338445492701148
Ni 0.8373845139859033 1.2921704546891866 3.4140590844205456 0.4980951874502261 0.20983312830918058 -0.5986895986355367
Ni 2.641820031612662 3.056275724556939 7.026754079224083 -1.9835397544705062 -1.0456324315816636 -0.7450185357434846
Ni 3.360838630047358 8.964026141604823 3.1704677035280184 -0.7734541653763582 0.17667823882376668 -1.3210808838978088
Ni 3.835379853108044 4.133449763697778 4.319648595621358 0.91062920389918 0.2530446306996481 -1.0179959008113177
Ni 8.081338022063646 4.32689496212896 8.60972321120642 -1.314358991792943 0.10057692768381388 -0.7139444400464995
Ni 9.074545203744139 8.506394335051452 11.263866118247616 0.9912173471658929 -0.40276356732575147 0.38282929029566976
Ni 4.93056849937759 0.5203228235597127 5.922891528560969 -0.6953527930872412 -1.4156771685181553 0.1726637183477349
Ni 9.153299245440245 4.152035385980873 13.053047242322595 0.21437601048485663 -1.4575475834996963 0.25470324934899363
Ni 3.4099551432464392 3.9024741337484534 1.8424126303543806 -0.6453656625358369 1.5136534253543288 -0.9756652583639068
Ni 7.133729163437464 6.500860173940364 3.570557760378554 -0.9462029872387318 0.2973012865251783 -0.37119581982179944
Ni 1.8837053149461824 6.587939984984299 10.60293173391242 -1.3430177931802163 0.3221435423798387 -0.3101187500048207
Ni 5.372175041920761 2.7414713859749447 10.01629747306912 1.1903744838184658 -0.8633700138019001 0.08137232973090502
Ni 1.4088693743864584 4.254541816115087 11.330159135687515 0.2426838562906143 -0.35641943284357325 -0.9851189475776388
P 4.593807707117251 2.4395425181321797 0.5136216844253322 0.13111032038598064 0.056702337788050734 -0.17339519719712074
Ni 0.4374814185488197 6.364258613136171 12.530063672341878 -1.1121579261077232 1.6065710367206718 1.3053323628143003
P 7.615712003348865 5.465867576849365 -0.015819882753058512 -0.8780834087526748 0.7917182537928688 0.28082591457797446
Ni 3.811811663106835 7.083756127506804 1.325304069518553 0.22374922416964046 0.7404358014688087 -1.404423192870891
P 0.21455618128416004 7.333427898801362 9.310327491904337 0.13248071837094602 -0.8334007211333195 0.031487786195636094
P 7.18522183647254 9.259931720560996 1.6686057482731707 -0.8887673708290823 -0.055690094473452474 0.5981267841535313
P 0.3325638308755986 5.430179129700211 3.567982666230708 -0.3632277140146583 -0.7573603451382892 -0.9246756546899172
Ni 5.788242471187903 4.510384235045758 0.9674857119519364 -0.5388435730121817 -0.65968002227598 -1.345829037376766
Ni 7.631856996343048 1.915765052888429 3.1046195253132294 0.3303854706736568 0.3555869096399489 -1.0617414213283844
Ni 7.31207009004294 2.5541784153361844 0.7684344340937378 0.07307280872627415 -0.6974569839144374 -0.5068762760769657
Ni 4.6581666409697124 7.4114359368280285 4.061000834496718 1.688015100229777 -0.49162372079326944 -0.5961550051391411
Ni 1.9954492966908752 5.650775177730284 5.162356444433639 -0.3656751471138863 -0.10076847486932967 -0.3994252469811379
Ni 4.120694021942532 0.5978390517598595 10.355432583181084 0.01974787205088857 -0.970994592361115 0.27095544954179784
Ni 7.868616457210997 4.626723967791078 2.089373000657788 1.37462127901811 0.05777757313010049 0.34639161629392606
Ni 6.520366788407953 4.227464645890955 4.225520431389488 -1.1381314673533496 -0.8942957568464791 -0.0985239018095271
Ni 6.960637892283606 0.03345872507049326 7.4690071582807676 -0.0348081088181207 0.09324414146782652 -0.12088375756196602
Ni 7.282450981389603 3.62288853630152 11.637468439872096 -0.8704490321358687 0.04899699872399304 1.0048812178062307
Ni 1.349364069346282 1.6943216920486204 8.536286057391399 0.16773439936691759 0.74079832701455 -0.09285307667699491
Ni 2.9344100387046543 6.030822602661855 3.0666746473120647 -0.9958098516325818 -0.03314151974897518 0.60065186456823
Ni 7.086942760465154 6.841452293688199 11.87124572804665 0.40970554586122343 0.40573164881513996 0.3194212583526692
Ni 1.024714324312043 7.826002148834447 3.2049754386966507 2.553490590410454 -1.3928516859832076 -1.1537964275841162
Ni 8.664758941175245 5.362136227109772 10.612772535403742 -0.2552516656532959 0.9071327607101474 -0.45203284587452475
Ni 6.042012657703461 5.198383816706686 10.411750334270726 -0.8705714166463459 -0.4378838080676523 0.5232580598690989
Ni 2.760268836460473 1.628654949294177 1.6821526223148973 -0.8402025745465014 -0.2778876578852569 0.24755892499472848
Ni 5.3069043258056485 8.43633445957697 12.76529704916012 0.48057209096479825 -0.815734157091492 -0.018310368273413626
Ni 0.520496891082582 2.9106760701102368 1.4842442957576563 0.13210430886813376 -1.2596263761367532 0.36425538394822427
Ni 8.36411025246893 7.267383549251276 1.4543065238084847 3.3526498738624 -0.25677041629066744 0.5345590867042149
Ni 8.774651728629106 0.2305630254506709 9.154718494396551 0.5116428442276737 -0.3619161942920864 -0.686180896779986
Ni 6.472116007862297 5.8897910694502436 6.087464543000439 1.3814982086436012 1.3255368627866333 -2.000396163906213
Ni 7.60349964698247 -0.05283363765569975 12.998563186672282 -0.21018639788354124 -0.3635254477607352 0.7295741761639564
Ni 4.223753047387444 6.293111966883986 5.876480890399932 -1.593650729114578 -0.46503748566430875 1.3574643076228492
Ni 6.059520719130698 1.6548940166304198 12.275528141321006 0.04543422107339917 -0.3135167199427762 0.2866160388971903
P 7.173506815885773 1.5333690978863974 9.249211371533482 -0.8782736703866101 1.0708282141210008 0.398713565626094
Ni 8.53579240558051 8.759805334615058 3.992052596588922 -2.746268820119877 2.1374938122238802 0.11725438833949482
P 1.741679110175317 0.6825749376942571 11.10730020986014 0.31989331289308137 0.42282408552105244 0.06455165862914045
Ni 4.861788803039556 6.038337898887329 12.537788033793232 0.785964382028227 -0.7724167252507794 0.034436327300998756
P 5.2313369170678925 2.337892610729544 4.998618769905504 -0.024258615437048547 0.9602319545279719 -1.0186731293840006
P 1.515695257865952 7.575722522698121 1.0863867239623346 0.013305458859654503 -0.7429230866670367 -0.5162590028434465
P 6.904586307935283 7.9746042378026 5.306507378174132 -0.5125884959703947 0.722805232871239 0.48430764674783044
Ni 4.09257613054992 1.4556741972024587 8.063163162294835 -1.4254645869222224 -1.0052252314092107 0.2211056158992063
