# total energy = -340897.6041473553 ev
CRYSTAL
PRIMVEC
9.04686184485047 0.00000000000000 0.00000000000000
0.00000000000000 9.04686184485047 0.00000000000000
0.00000000000000 0.00000000000000 13.24099678075610
PRIMCOORD
 96 1
Ni 6.323457788251132 2.0318256243936172 11.43088618329932 0.5672362652222618 0.08437434978202243 -0.3511887805722533
Ni 4.663729585954365 0.3042984310762274 6.013782807261164 -0.06614240015502802 -0.4662962977720743 -0.03379432284162567
Ni 2.7171796800310832 1.5950431410764296 4.699520780248058 -0.40452065922617425 0.09725789061290993 1.0087054766483274
Ni 3.4236219703125506 4.1858743504776905 4.731842503076295 -0.6200490381479192 0.8412153320817319 0.24944071539847365
Ni 4.975457299866137 4.69558358603224 2.516609851253321 0.6103063569388586 0.9386647698801576 0.7289967063939317
Ni 7.196669927278851 6.1399241047578474 2.597565693257543 0.5924294766584377 -0.0613650333710427 -0.2320808839637874
Ni 4.938093761007396 4.461568414201965 11.514238538970295 0.9003283361938043 0.2953300217314204 0.03997679750325373
Ni 5.80611300141407 7.907282820808231 12.547936576601098 -1.111557573519563 0.10497839918561919 -0.3496463757857978
Ni 1.748342212737775 6.5112254030242935 0.4036474476212984 0.23046237452375795 0.719907856718786 -0.2499325674332276
Ni 2.6702174208989478 1.4622352111862824 0.4010455701937503 0.26324573960236597 1.2078608135286875 -0.26061730084058343
Ni 0.45501462371961365 0.26552086773234873 4.632455489712045 0.31481846947333525 -0.911630648580501 0.9814924065686452
Ni 8.677044096191956 2.3154175983899696 1.350661170413653 0.11552275036036878 0.42626165044769165 0.3171928832427827
Ni 6.976288376044248 0.8512418353670769 4.8780624054502395 -0.537518683553171 -0.604978516968042 0.08451910289000283
Ni 1.003324104128543 7.605171920893273 2.6553896145576705 -0.13885962531409635 -0.48921691112398974 -0.04029381452304028
Ni 7.788117558375463 3.923081111550647 3.698210507535968 -0.5824813643067904 0.2481109408434566 0.013554855866299237
Ni 7.5499860644675305 3.8744180424171932 12.696725787700435 0.3185188011430579 -0.5880120643170325 -0.6530481187817592
Ni 7.965635078832172 8.561162844559606 7.259177408885799 0.05723918412812723 0.9099674019454651 -0.42873582301979707
Ni 6.792591849040198 0.8489828339983052 0.4544247683361778 0.2965073298689732 -0.3726451506738163 -0.11244256877314827
Ni 1.8861349634296574 6.368284988019912 9.209576754466319 0.6301087363767665 0.45684852209561316 -0.3402387093186528
Ni 0.019084354775426825 4.887820350489716 1.2470583194929454 -0.08703621288490171 -0.601489529978177 1.3141738723653302
Ni 6.171832386005978 2.0983019642323644 6.981395329479056 1.6223779218459413 -0.5840512798970715 -0.13527653594852831
Ni 3.5430767323200096 4.373117247271722 0.4333302008889805 -0.5142021203144177 0.4033976013653246 -0.17334994578148208
Ni 6.09382129748808 5.788173074644849 4.71228499743348 -0.3881082793064219 -0.373386399715215 0.4553781081976738
Ni 5.404251404294155 2.89376537373175 9.15037590081406 -0.3680379909191081 -0.21672214211952998 0.8327034379559788
P 0.14074836041225786 5.592462315291065 12.476673542232044 0.4097004036549009 -0.6119904295095009 -0.8809393901442313
P 4.1005443508371 6.260292599797929 12.593869302870733 -0.12595011634127987 -0.7686078930276505 -0.7093377945124235
P 2.4702727302652865 8.547637786304444 1.2773508312398234 -0.45582136638267945 0.15084919357580473 0.7703690986931314
P 6.506132019882049 7.844588069163904 5.763024608465787 -0.585567716541598 -0.1601380750768984 0.20448060574801558
P 4.782053490248183 1.0192827681834626 12.58542134340674 -0.12725829362974211 0.2957252002873101 0.7067150121775958
P 3.977534172177949 6.176446285477638 8.046037252899795 -0.06311106952787196 -0.8595681235573066 1.045736818370012
P 4.693095699062228 1.2581289641664177 3.9601705304996004 0.7356363231976363 -1.3805253032073708 -1.1432006543461408
P 0.2453472708071417 5.621629397441326 3.399665880506753 0.38738811331094575 -0.08353282771733356 0.3463044558967584
Ni 1.5294533936851784 1.1046127678240532 2.6239282482779718 -0.3539308620937647 0.6279289551166283 -0.6973178872334119
Ni 1.9370687948521048 6.349557984281996 4.7025668585855245 -0.07081049505465868 0.6733215243188145 0.12463679684649501
Ni 5.901792610849914 5.589024507841591 9.34141757483976 -0.10618501789921068 0.05468736424055098 -0.7137932591806159
Ni 8.46159308458883 2.4657040651021718 9.976521741799989 0.4498186118320253 -0.5905448580412153 0.5188092800691259
Ni 2.3728199359344506 5.016312927344605 7.012339215268991 0.07380223069313095 0.6943932573874493 -0.0043621336234376485
Ni 0.4184264009093464 0.040335432930192226 9.279727024845148 0.3436626473985372 0.10412659270828518 -0.39722772510918686
Ni 1.2768288273192063 1.0103716093999615 11.459844282944102 0.4820157653898602 0.22104108120985802 -0.38391712404320977
Ni 3.958924777642252 6.938020151014593 1.3435241012113142 1.3160993715228173 0.7076665774575877 1.2655324572085431
Ni 5.6425366948511435 7.68812259590436 8.175931188633427 -0.6577378109479446 1.0019668723729132 -0.7241995421156043
Ni 5.370578985012743 3.025958117025676 4.891449046721251 0.5380521874591379 0.3456364832954563 -0.1688893389069672
Ni 0.7956931997867981 7.124611673765566 6.7917441580980515 0.37142053423809585 0.6347305514194939 0.15909677829657762
Ni 5.181716699972776 4.363256168008761 7.167986852230029 -0.941530778574043 1.2446278458453919 -0.23338443326655936
Ni 8.20823572242442 7.033735947897274 9.281620533000869 -0.2228799341908097 0.012658312193958845 -0.13429128921712355
Ni 4.51337074434849 0.25792150389667273 10.423127307560957 0.5586215269700573 0.05472927322207993 -0.42326502971321295
Ni 8.344662396998222 7.079187381123984 4.7513330619424625 -0.045289982186051035 0.7846778020063195 -0.13663382130737112
Ni 7.254569842217335 6.114701454312771 7.044104556102117 0.03387942635626423 0.10498894070858047 -0.395536453449693
Ni 2.431416459224538 5.29514625208195 2.497715480573786 -0.506954694723385 -0.05518590114352432 0.09988427249216346
Ni 2.416217731553186 5.133650723712126 11.628256137090561 -0.5324176148811798 -0.015024241322974124 -0.8047064385224206
Ni 1.1503356069020372 3.478717358121201 3.6956149629116166 0.1319037628215535 -0.3124198873341716 0.012464708125914017
Ni 3.7098465810662615 2.8528916525298644 2.631992620805497 -1.0258624480435883 -1.2280686559351301 0.021979589594884726
Ni 1.1050017828775462 3.2992366686736103 8.19869309269362 -0.6247281887911434 -0.07121287269939994 0.25833493256430995
Ni 3.5227393871978676 2.5743840148140475 7.296080462483544 0.4556845836944991 -0.17429662596546758 -0.24316105303734897
Ni 4.058594053091826 6.749827333741102 5.919903523305438 0.41197814394548404 0.9392972612578339 0.5195186474313247
Ni 0.8680481903641428 7.274409609945475 11.265068969091041 -0.4381082653736326 0.42055123032647573 0.3763207997531906
P 0.21704506863627407 5.450589429968361 8.0596355907348 -0.000589296844566727 0.0845404430462415 -0.13561129358012775
P 8.516742753567737 1.6333023192443747 7.800271112395519 -0.5747464575563779 -0.5697901419923671 1.1954809518070961
P 1.7850181901066209 3.1653793028252033 10.45040359561401 -0.9962130006082714 0.46371208198466596 -0.22696490289346075
P 4.030177860463423 6.2183875363612025 3.8234036939255343 0.03164745170195194 0.06103747482829487 -1.0362054818408089
P 6.884236558153766 4.016173318537678 10.376650864902604 0.38465194532670527 -0.323449662785772 0.9166617832465052
P 6.280638991781782 7.683056353347243 10.360947322347881 0.11888601040564688 0.12015510692605758 -0.8633700138019001
P 2.3299378114331364 8.514327241491397 5.644755890028395 0.017385285355982962 -0.5727672223428201 0.12809750170158585
P 6.8240839746497075 3.9978624704383825 1.600121144553769 1.3076998346052122 -0.33042969364803093 0.5606305869802861
Ni 5.258216962585248 2.875418338185618 0.5874091120296534 0.007899200242418655 -0.6807160170106729 -0.8672464660381709
Ni 1.5155212266531057 0.930542101678527 7.095042006269248 -0.8753906924118601 0.9125655016899444 -0.7840823345141658
Ni 6.88883236390201 0.5179418797098655 9.30775872585091 -0.42516481783908716 0.7161882417753538 -0.6918301246459634
Ni 2.5425028741510447 1.4743760995999458 9.305441824567202 0.6490603377786048 -0.5760662048090659 -0.20916027061187203
Ni 6.355492725563191 2.115409579724344 2.7044335565690787 0.4978607028419168 -0.21931252855452552 -0.10722708601047985
Ni 4.108550823449687 6.754531701829853 10.432607513945964 -0.33453343140375935 0.6807715528389565 -0.062085456476835006
Ni 8.080982565623682 7.1644992870411555 0.255609126043817 0.22864229059588365 0.4111466491831242 0.35183592723794893
Ni 7.504462256347147 3.968007826798227 8.127959299734552 1.175058422286686 -0.7958908971133196 0.23279950729736681
Ni 3.2313761589933656 8.456382092244368 12.384158525022057 -0.15793643943988928 -1.031978588243655 0.08759594204311365
Ni 0.17133941859553745 4.872865888084511 10.333936107342907 -0.0702970457533499 -0.705735678983462 0.07332066307102211
Ni 8.693310353544986 2.489008780864911 5.771564845919213 0.2802381603953044 0.10466035372456814 0.24468417455009472
Ni 3.5544757780735243 2.5442941527694543 11.443676636383701 0.4930712518730734 -0.24848452213279143 0.4475498704025066
Ni 0.9702216371348067 3.2922615382958655 12.636028583121487 0.44977336041638666 0.39562541361907355 -0.3841564937475255
Ni 3.0395736438979286 8.30868302798098 7.813048899873507 0.645873712520507 -0.3326850653411109 0.7502324758442563
Ni 5.6647105529002415 8.021942746109847 3.594308205492688 -0.27058649623815334 0.25041644904818167 0.0780725759337107
Ni 3.1874536453955002 8.51743936191934 3.490247583369498 0.35283274393357944 -0.8433984557759798 0.5983432710397115
Ni 3.441561897081771 4.277111950814348 9.392831794618964 -0.14483126951649894 0.334606707843856 -0.33163991190604825
Ni 7.2347662619360324 6.0855253253008 11.442127813659097 0.08007752217888144 -0.9521404357690892 0.03653203348776289
Ni 0.5020528764901063 -0.07202297075261935 0.3647151829421935 0.14532877797820778 0.39513227603273887 0.11113207749184087
Ni 4.633956364069592 0.5918511211288401 1.7321211896932902 0.03269466201954369 -0.8818359338165717 -0.18997958391836317
Ni 6.059208004588917 5.551461938025251 0.41425670234760464 -1.037197413440433 1.3862084696350772 -0.6399694312209301
Ni 7.963608581809324 8.838177750093415 11.340423899011137 0.2640936894249581 -0.011237777697348388 0.7959119801592421
Ni 0.07594116655884706 4.926106669242789 5.703731476824095 0.0638263504273417 -0.3861236447762253 0.31969919460440427
Ni 8.036354396812504 8.807355092250381 2.5395834518775064 -0.6635037668974444 0.5350527385111817 0.024650194448512387
P 8.49352850642209 1.807644391241175 3.51654409629945 0.045418023123483066 -0.4437772907339519 0.06994094796551181
P 1.8921692201896525 3.3821059219293157 1.4786489323851717 -0.5772322000927091 -1.0006298987290445 0.006984401737633133
P 4.874684307288048 0.9528426157915524 8.281091004454279 -0.8175431852757726 -0.6042773771359593 -0.23749922676588128
P 8.497364375786763 1.6533501647918247 12.44322638980719 -0.9581352198999433 -0.25267953405074545 -0.02548888829972384
P 6.359600000779139 7.7936180502946195 1.43234438009929 -0.4997144682212039 0.45957826232195037 0.6934902859572056
P 1.8545795097881839 3.167052972241394 6.006619502159868 -0.5398676434013219 -0.0916765398703905 -0.6673861326709861
P 6.952160395865975 4.112061005792833 5.945790213399966 0.7369002775117245 0.10922611871837963 -0.479476029687142
P 2.4385182456662116 8.419081881417592 10.23950134607824 -0.5815439400941855 0.20758829813906182 -0.6857762051423996
