# total energy = -340897.01370971405 ev
CRYSTAL
PRIMVEC
9.01183063064753 0.00000000000000 0.00000000000000

0.00000000000000 9.01183063064753 0.00000000000000

0.00000000000000 0.00000000000000 13.18972505775663

PRIMCOORD
 96 1
Ni 6.2930785365826996 1.8749834732624528 11.408149487974857 0.8607788560359562 0.258926800512038 0.2779449934857536
Ni 4.583750535378569 0.4480285707030098 5.992579942836777 -0.5918489215646194 -1.5658465624181164 -0.6800454733062095
Ni 2.603986506484405 1.4475883901464703 4.752772827389072 0.3740024360326591 0.29728997367126864 0.4667457266046671
Ni 3.3763454572383225 4.300842133989878 4.864568192043207 0.7423908683126504 0.490799168009445 -0.6895626687680253
Ni 5.164779308389573 4.5544350500883 2.6883696844936154 -0.16293029311005489 -0.6804815324023635 -0.23501502689144688
Ni 7.21424083597262 6.002446996278005 2.6375627853330013 0.2226899296671907 0.3061206845890212 -0.8508482271858057
Ni 5.241361845738698 4.13993589671421 11.83146040941437 0.2564605983597325 0.7812538639264351 -1.2371053122161018
Ni 5.723044197034386 7.822674586163982 12.332446102084715 -0.8483128623584616 0.43307610226636384 0.038850654318610504
Ni 2.128900815266331 6.406555508846784 0.2915056878832853 -0.9611878906833383 0.6484692411618251 0.6018322580295763
Ni 2.786403983657975 1.691502600065443 0.409518314542264 -0.2182324081164693 -0.5614268576293363 0.7119675188257868
Ni 0.6115365235038247 -0.08772025892005783 4.735560230738469 -0.2701653495403347 -0.04174468803695391 -0.27582229071579595
Ni 8.611308903174963 2.4334105748599937 1.2879609316481422 0.517593919604786 -0.15628861942382113 1.0722423208597083
Ni 6.8911847287837 0.6514048625521338 4.819288248655271 -0.580627084706871 -0.11797481144528714 -0.6122812212770423
Ni 0.7668157736859663 7.485109431536595 2.3898591006016843 0.9739534178791227 -0.7791733272483226 -0.300601811653321
Ni 7.76675617662629 3.8386974316672324 3.7330616533014154 -0.30433813876730165 0.14277824364221217 -0.023450003492824133
Ni 7.70788188661666 4.14976780401568 12.583577887217022 -0.16112589291146445 -1.4715616383906014 0.05432149626069999
Ni 7.978317914306692 8.919098969146019 6.9142252763526 -0.07921003197226358 -0.42095540774342993 0.21527641081193893
Ni 6.859048540482102 0.7512135911827256 0.5344961851547776 -0.263233912527824 -0.5538513592749236 -0.6017921488202604
Ni 1.8906820823542598 6.58159229667122 8.950903522077594 0.29173330551909754 -0.6184066174484899 0.4297586078573566
Ni 0.1578719538765807 5.049031354787293 1.4108913143239976 0.14444997491768025 -0.6708126418540318 -0.6953594779554605
Ni 6.291627631838853 1.8434060184646965 6.861835899719814 1.2798840979445247 1.4059514565899593 0.9029737442364514
Ni 3.5114868705223286 4.482151155986472 0.5477471810265302 0.2901621043772358 -0.9000174898216048 -0.11455370157888013
Ni 6.075596026127717 5.727018414376226 4.749752061736045 -0.5381108086112152 -0.6918087844897246 0.9052967359426731
Ni 5.2287633064101415 2.846936450517715 9.322365776726752 0.07244751643744941 -0.006479437076756583 -0.13246529175197833
P 0.22871395506526918 5.688609991902471 12.322329420932899 0.8681746342793951 -0.9415935134911784 1.1618354958385086
P 4.271139139979203 6.0556888920956835 12.331733266275782 -1.1566318401503823 -0.2678343874143129 0.7446917485316853
P 2.406438165553577 8.409795356733001 1.1274773492326375 0.06730993810056794 0.49693150615942805 1.4377387763038851
P 6.3817639625714895 7.76675617662629 5.927963314300569 -1.12871480202514 -0.42027972183264395 0.18720973448270983
P 4.67963641410235 0.9794868677264164 12.579409915514976 0.3830262367978242 0.2782825793308304 0.2633254438003658
P 4.0063264946504145 5.9358315436909574 8.215141615825301 -0.5609105801145501 0.8904301032434858 0.11532631807884655
P 4.684592920991268 1.1242799516977506 3.856266896813838 0.5667541833795207 -0.8279175865315612 -0.6914717128652801
P 0.2266889967053788 5.656969454289765 3.513175687596843 0.19635052044171344 -0.6613486682276546 0.47930248022375516
Ni 1.5137352275367482 0.9612379105444937 2.4560852421021844 -0.17614704891064503 0.7645964578754122 0.2596199699243206
Ni 1.8077101570337848 6.5004137256614625 4.729043775954149 0.769816568623771 -0.11962777366767784 -0.2418377062402351
Ni 5.973564078861678 5.578043840956787 9.24053655153994 -0.7987450787326631 -0.3069092419285876 -0.4887314868471389
Ni 8.66210859287101 2.296647032048706 10.193098772662687 -0.8427878187751743 0.46687196776988626 -0.2625227453934124
Ni 2.348906638319308 5.108157976056723 6.902961389151768 -0.673644197765556 0.19180712404540515 0.8110681190743904
Ni 0.32105638195501 8.985173711890639 9.099762744063982 0.8383457238434207 0.45222310750845984 -0.0048645271811529125
Ni 1.3447273544553764 1.1358691659871096 11.432550821980533 0.43105547229190927 -0.701412883238392 -0.42499178259633263
Ni 4.096237529615373 6.908045864036726 1.7045346084510125 0.4248436870542425 0.09367402991639351 -1.2780529582730569
Ni 5.459213841252672 7.935881203506854 8.068893121194765 0.39703849191651625 -0.7426394939883468 -0.6378968649626175
Ni 5.369320829949127 2.8948523543874844 4.841368135070792 -0.18050172633491496 0.6198459209981777 -0.1303922112730335
Ni 0.6472972701158275 7.281667353323309 6.779109997377644 0.36951586101621525 0.13125070261858685 0.22498078258389642
Ni 5.117485220838595 4.668632968808954 6.876846004945598 -0.01064873796309779 -0.8445575090810874 0.13681816940403532
Ni 8.106258874855708 6.982753940598769 9.053638392138788 -0.5515751616462372 0.8915228220870324 0.01097321118205207
Ni 4.5252277067665165 0.3029444045998356 10.37692389779271 0.3260444200961417 0.112869886118554 -0.06403255290087681
Ni 8.038562002583806 7.114732201304576 4.715195295706513 0.8801778293878584 0.39229712057678884 0.08382696191898466
Ni 7.299411647985633 5.946789929830818 7.028395258398062 -0.5442580591595336 0.44413030319799646 -0.8046938401169302
Ni 2.455129086864159 5.178297054450256 2.636217319008428 -0.6339803035170308 0.1653795259814958 0.24920520234889984
Ni 2.3123186056483913 5.328983875704048 11.429476886526333 -0.02233465894145831 -0.9267469353966491 -0.7438826223668284
Ni 1.1170434516399312 3.2586869955261335 3.8878957190466252 0.13286946916893244 0.11686409487961164 -0.7990469262437981
Ni 3.604443904266295 2.6906082232412647 2.7396244716403735 0.35176907855575545 0.08557016986233651 -0.12677801155921392
Ni 1.024627127738392 3.2575875521798645 8.153769246343657 0.2771530937120775 0.5392624057171551 -0.23538989373236235
Ni 3.614807509579485 2.7915046798382055 7.1885850551325134 -0.011624214502489658 0.07416604179045291 -0.4708417510509117
Ni 4.001126668332405 6.713795853144705 6.043241751523007 0.5762101865860979 0.8614589128221164 -0.3386045161493394
Ni 0.5070200145118324 7.233318881579598 10.97515715680668 1.1817414907338162 1.0534375294483793 0.17318256696568238
P 0.21632178665990529 5.50300232665858 7.963362781248223 0.6716449079473401 -1.120057383460458 -0.43235593627088764
P 8.480484156799669 1.7238280368118906 7.951267102073124 -0.5005220517241638 -0.414135556608119 0.13357729386923445
P 1.706633463822701 3.1191838561798804 10.420028385247946 -0.3763521672117583 0.8675377720263445 -0.09553679415674515
P 4.182660986096677 6.217775679193986 3.687860112840631 -0.9447613696961987 -0.2862661117569393 1.605605330373293
P 6.933288001847376 3.8422480929658387 10.403778252116863 -0.24051615921533417 0.501742040174194 0.21949199155518329
P 6.223660404645736 7.7339350891909495 10.116518938862773 0.4567577621540198 -0.24032615469171512 0.257883189738872
P 2.439691820862858 8.336060557887327 5.775595786619898 0.0653129622751972 0.6596602247816382 0.388482374816389
P 6.9774279486508615 3.892597191126531 1.5082190859609186 -0.3295933137896646 0.7939563990947681 0.5452299361544998
Ni 5.294955202953954 2.7673800090352394 0.5791308814640836 -0.43265932644391936 -0.231746126332188 0.3577011277694743
Ni 1.4725872085280276 0.9875524562092909 7.015456973051846 -0.6297441539484961 0.8837071826973555 -0.38015894255235816
Ni 6.754961895814839 0.7749588639129221 9.18173705972518 0.12642037110947904 0.03047914242546364 -0.47590373895485133
Ni 2.8319677997131847 1.6112252121263972 9.252499756803646 -0.79623156828219 -0.1928939293516807 -0.0007222228780052078
Ni 6.494510976548297 2.0536970880153955 2.69318380445736 -0.2661623990285287 -0.7984781982245216 -0.04612070561746251
Ni 4.046086691730238 6.895185981617662 10.370500264864674 0.04259366630081052 -0.031973467582803 -0.8832909210955432
Ni 8.018456608276216 7.254163246005173 0.16627458482790156 0.11195174517965881 -0.5801365182236976 -0.1126091762579996
Ni 7.49909579279405 3.7882582151994684 8.2772908051139 0.36690644841782616 -0.3815319116404849 -0.5860598256866681
Ni 2.995334266771898 8.541665475470323 12.243995884877378 0.4193806070571422 -0.7374900885769234 -0.3837525734408875
Ni 0.18302217101401766 4.812813248292203 10.110649533523226 -0.05350028591098528 -0.5261173836947648 0.10298836533878392
Ni 8.49745343402118 2.195047652656609 5.609933105097011 0.9097874247241751 0.913908131760768 0.9051797507488345
Ni 3.4255230174070888 2.6985206106021176 11.58614485982044 0.6160152343981778 0.012852687592952059 -0.3392979426719382
Ni 1.0097666189023473 3.3144882512646348 12.725539453980177 0.9098355043532911 0.7474189176548612 -0.6147677351443219
Ni 3.1005924494310864 8.549604898323297 7.956622833062367 0.07487720892486459 -0.92440517463735 -0.03699200384331694
Ni 5.750773600120201 7.891452878120741 3.601797129587613 -1.2894174913562568 0.22232766123176548 0.19303868245966108
Ni 3.1221667721439372 8.44972677859626 3.516749779655288 0.3478622873021816 -1.1781000373264872 0.3325899345241433
Ni 3.31096462545815 4.189663178556111 9.386599402457907 -0.030662462080863317 0.6549502209004785 -0.22788407227362042
Ni 7.307351070838608 6.019290107869616 11.183251142030983 -0.6104513671571551 0.48257729432028507 0.6527544988007403
Ni 0.39598434718630776 9.025799044718346 0.3770955500241794 0.583676413056156 0.7395716536963005 -0.24466720526923025
Ni 4.58337203848887 0.32519912053107414 1.7314547491393282 0.27233870304256974 0.5137372648628572 -0.8194095490605502
Ni 5.978394420120696 5.633863120356703 0.44589817392384606 0.013708350725028004 0.36598753614798263 0.2515631610581151
Ni 7.816348281007583 8.857385952463645 11.211385176315547 0.2818515276290114 0.10498919781889661 0.6587855354861686
Ni 0.10294574689974097 4.829782525513715 5.653261085953784 -0.03941886811725469 -0.3388883659383454 0.5005194806210025
Ni 7.842050022184297 8.640759565925839 2.6810890264653313 0.008395680262862961 0.6522438777129089 -0.38489131503102103
P 8.65479098633683 1.487627953978215 3.515523269496048 -0.9922267622670137 0.6498206129833971 -0.14242754517101278
P 1.7843875391637523 3.2572180671208724 1.729397348188892 -0.0021972647616349257 -0.12979931488404098 -1.3109350537130584
P 4.680023922822756 1.097208412253555 8.066664495460895 0.31816141780363916 -0.06032759324546384 1.3146960634173874
P 8.452024795426576 1.6880690925660293 12.36958836234412 -0.8735816642275794 -0.39795431886256627 0.43012858960226563
P 6.314824084078985 7.678845768078311 1.4101658619520743 -0.6931028207107999 0.28537676717345045 0.11386618859355228
P 1.8672062633622064 3.1738135739264557 5.9436592198431635 -0.8379073507544214 -0.5166912052848586 0.507110503574959
P 6.953141064895166 3.9401345981066007 5.956954373685381 0.6542102574106604 0.08782862687921002 -0.3641497116082954
P 2.2744689166784773 8.412372740315238 10.06824436413086 -0.10559649238559234 1.0268039860212508 0.5873605467759626
