# total energy = -381170.27276972187 ev
CRYSTAL
PRIMVEC
9.23969009528187 0.00000000000000 0.00000000000000

0.00000000000000 9.23969009528187 0.00000000000000

0.00000000000000 0.00000000000000 13.52322041662842

PRIMCOORD
 96 1
Ni 0.5870640428806583 4.845413646165942 0.7961009455663832 -0.47643467175765686 1.8464742449423555 0.4345958813449999
Ni 7.46917150771239 3.2282276327874784 4.350325175209309 -0.29261905055816056 -0.14537274384226576 -0.3091373599281579
Ni 3.241200157799667 7.7308395335992754 2.75956190383751 -0.3135054070888665 -0.5203442286564135 -0.6192710223313141
Ni 8.531763597439422 8.806062279801852 6.735280472156381 -0.5010095328835437 -0.1540072795888122 0.5383794888915696
Ni 3.2908727322053135 7.992285806921851 0.28157493837888076 -1.0131869094584487 0.7275183220761922 -0.11160490336320135
Ni 6.464807945497335 2.586771381757423 7.0100854895406535 -0.6009352001366037 0.717394603378629 0.3643890813126111
Ni 0.8643101864103864 7.465466391950362 1.6455056637790038 -0.10566411239873416 -0.6666605673588711 -0.5657560811323095
Ni 9.228316121010561 6.380920798356549 5.988217334280305 0.5149258858543196 -0.2589473693373282 0.3998505074440146
Ni 4.794558391417303 1.9106847719341458 0.34808592416786943 -0.38932363977076173 0.10536406465981209 0.2154543311506999
Ni 5.46774373852418 8.190532599415814 8.309842870767232 -0.12072512049691468 0.14923145546672364 -2.368150305036315
Ni 1.9779404767516122 7.538912689188174 6.4640724661590365 -1.1146935480453835 2.940546260082645 0.6237709670841967
Ni 1.4542255976804759 6.625393760819159 4.094682351288554 -1.1003110540714662 2.147574850608966 2.268416699189403
Ni 5.0076164072692 8.911884451429058 12.368689083694125 0.822168856973242 -0.3627366333108527 -0.12310313381078798
Ni 0.43106850564006965 4.31572068754859 4.277259553206897 -0.35274789752925695 0.3458048905525206 0.6704346896893227
Ni 0.315858808790367 1.813723463189196 4.698372292678424 0.07960083965277903 -0.40727251093969863 0.08784508193944225
Ni 7.47602735782567 0.9632654202960985 8.459369700913069 1.4353124262505799 0.5277757452337943 -1.2883242582920782
Ni 9.182782927805386 2.954908357584089 13.070450020619516 -1.2380946727125646 0.6475968658592008 -0.09503620037124277
Ni 5.351665510797593 2.400471508665711 4.616678647986282 0.8516434693935914 -1.0364049994461249 -0.026460251074057656
Ni 0.5449929615857869 0.5161318653407206 2.410797786410457 -0.11139715822776945 0.14203930859365863 1.4418121750423105
Ni 4.996362464630421 7.091988875199875 5.9514747823120215 -0.7301177073722522 0.20575278759221982 0.29701100897826915
Ni 3.3929251102392346 6.675823989819535 11.823135272914435 -1.5510992289056125 -0.5982928774177503 -0.3837453743520359
Ni 3.7364845101881072 3.210431989501527 6.7224871971336775 0.1993229728064761 -0.29743832632367484 0.5959048368015479
Ni 8.486202685163708 5.9789388374019286 10.450866651096222 0.3977805122888633 -0.8457651562359434 -0.12357595968214846
Ni 4.421025436525738 4.821307294487309 9.679204686054936 -0.628098390814957 0.34559688830677254 0.3356307782329962
P 4.798402102532027 4.9129927401396944 1.4180586784103826 -0.08916277230960129 0.30241803892645336 -2.351312921764002
Ni 2.911324739006814 5.682732849623617 0.43877810312594595 0.6535641391862292 -0.5928501091356241 0.4157921183749355
P 8.740848546514082 2.129702387951898 6.842506152721874 -0.4633945507442471 -1.0245028486919 0.31513574360343793
Ni 0.20933811658558052 2.6239518950402205 9.073621532147262 -0.44702922201234624 1.1854526210368164 -0.8142783984815718
P 7.318592276855095 0.7009330606852979 12.846612982204073 -0.2591355740887344 0.12099791454232708 -0.9442728600955544
P 4.815735761308997 5.261707887208796 7.571502000420718 0.16314909398908028 0.0177354696065501 -0.8910451111196654
P 8.296521085466253 3.6508141028426553 10.75347574416901 -0.3455112705715017 0.4588421554868743 0.256645460677029
Ni 0.10490005054728081 8.546325349162505 4.6398443992046285 0.586405639061861 0.16332829987942193 -1.0044826968162313
Ni 5.518876183978206 6.3731686982958475 12.392597706002915 0.7177782119702928 -0.1521036348081961 1.5590624496167473
Ni 7.530680125238131 7.862736110913375 11.924775560766344 -0.9992407316910018 -0.06767246364630926 0.37855277440750285
Ni 2.1301089343198014 4.531282659439164 8.14057267064558 -0.43711453400179556 -0.31230701590539117 2.5987080674873564
Ni 5.537762110705353 6.796910129623476 3.5208920473199408 -0.7355044256054624 1.1131395732947023 0.4363599152239581
Ni 1.4109376491889483 0.7505465010737944 7.118758105588274 -0.40741546427546604 0.8235027452933172 -0.7747803403869495
Ni 8.413042818321463 1.41797829310582 10.955999589247119 -1.9811905375120396 1.0690682940071008 0.558662921730954
Ni 7.584427403012992 7.368421925993796 2.83088307233401 0.9074783169750242 1.9952351885305635 0.11365921478906878
Ni 1.8660385889862139 4.452865408884715 12.006171687434705 -0.3574180493114167 0.15778294458116052 0.22380296022571133
Ni 1.520113828351358 6.285336203448363 10.300664399598256 0.9439013356887486 -0.0008973150032887772 -0.1310694398457162
Ni 6.253921256837649 0.630911916597071 5.901141570058532 0.2298576510602235 -1.711705244757865 0.16385383336558876
Ni 5.792186219491415 1.8395576369314182 11.595850906092975 1.0814520123834344 0.5319201064194711 1.5260497421361525
Ni 7.088246800677127 6.642117600044274 6.94775731149598 -0.34770647845060765 -0.019486647969701926 -0.0007055107074568495
Ni 2.0842246328878002 5.2514703104897755 2.6675225780512446 1.2024743524057935 -2.0938531927157937 -2.4789859343336595
Ni 0.23126112947476887 0.8406916903732373 0.20961623125998713 0.022498438212832223 -0.2402677906499539 -0.1512788249140556
Ni 7.543135227600262 5.729208491227114 4.515389468361197 -0.6249896699826462 -0.3061032010875244 0.7809558730700422
Ni 1.4578475562308877 1.8560689632824021 11.737222785686276 1.618016559553452 0.6500682102178289 -0.4211140448084812
Ni 2.338177517474702 9.0197763136565 11.029768351672201 1.204284666141655 -2.095534179962643 1.1381690054595044
Ni 3.377291554455315 6.751376936418301 8.309870589837772 -0.05684040602781179 0.2646747587394087 1.1771646699964113
Ni 0.7274121648020577 0.41696227064284125 9.588071773875292 -0.26311924132683073 -0.1392234364114183 -1.1973488582537701
Ni 4.6943539514193064 -0.032024766162568725 4.0529771617247965 0.5619732170511096 -0.41178196877427786 -0.19934611273492767
Ni 6.667914815025778 4.798346664390949 8.629694149684214 -1.0524849357271227 -0.29280956930241187 0.42541267218383505
Ni 6.363171353521496 6.64440904320882 10.317568412781872 -1.674385168151168 -0.04971022274093374 -1.0804929909042746
Ni 7.905331082641432 7.795341810743214 8.91652185193021 1.615259051412973 -0.265755136287781 -0.336596227470059
Ni 4.040627391830714 2.615765529541076 2.735828835642134 -1.6642092560594306 1.3342408183185344 -1.5912593460642661
P 4.643859044587675 1.372574455563159 8.022312952067585 0.5253000299997921 -0.014919597424309787 -0.4589992498900289
Ni 3.831634839657851 0.08461893060301123 6.3375894233211785 -0.02129336216113752 -0.18751466731763836 1.0399436087270026
P 3.237642877080513 3.3000477445536776 10.731946342081475 -0.6412367279691279 -0.13918795518779253 -0.314528191926426
Ni 6.423127703097061 9.132980997737224 10.034824653595269 -0.7121616371144638 0.8273498869535493 3.0979273412396973
P 1.1807954461949315 6.824730836754317 12.90071968392692 0.017920589034162687 -0.2336158325510751 -0.1582460002605081
P 8.92255629358652 5.738401982955837 2.779035474860081 1.0079961092861287 -0.393245086312355 -1.1879694739213993
P 6.937519734776959 7.953867175154984 5.070883337836124 0.5184750366581587 0.008460214952211236 -0.26310355759754683
Ni 7.457224588310139 0.9198933906239365 3.5824366996373826 0.12464116772186923 -0.7005495067968321 0.46399284644987826
Ni 8.545789447132089 3.4896277076591553 2.2894002690474613 1.3323124909475699 -0.4872654438245737 -0.4406071205360863
Ni 5.557562766760283 4.359849447846463 5.615043803336727 0.6770557945502662 2.278690570311585 1.3738887717274597
Ni 8.712916963101085 5.36885133453169 8.14051908044254 2.866844816633437 0.705463913379314 0.8422314320510721
Ni 5.964201531565433 2.5854408663715573 9.422979761652867 -0.2642929499199577 -0.19125870774110287 -0.37595390333207507
Ni 3.09605386476799 0.594593466408032 1.844742951060222 -0.3187838818789865 0.9239410905167379 -0.5620567779038513
Ni 6.558378287946363 3.95133502593485 0.13815831534882902 -0.8246065198804572 0.9938419292729336 -0.12761541985884475
Ni 4.3112209584311145 7.96371668488646 10.233981555571926 0.5437003868838508 -0.6329639464373743 0.5281603822667226
Ni 8.007891643635233 4.2254766335642255 6.340902776219591 0.26389622870217133 -0.0770662461563834 0.07543410986959911
Ni 2.753704864232648 4.022757831023325 4.535458075431335 0.3081030051263726 0.3680642161713532 0.7344055361143287
Ni 8.333008621985579 5.079612073148812 12.583762275974196 -0.18089279112574652 0.4494105777603293 -0.9915294790896729
Ni 6.74577768416945 4.866239907830809 2.4123528262676865 0.5903854496452156 0.8603980756577698 -0.807546479074377
Ni 5.4397474772799255 7.453325439054339 1.1904250513001335 -0.0823604046757872 -0.4900250088475819 0.099161535393526
Ni 7.619787697330403 6.81732060523026 0.533196649133464 0.37433307989920045 -0.5764127895152074 -0.02072514836249334
Ni 7.090408888179159 2.076269259643146 1.294134105783261 0.5549294228304508 0.933633120993521 -0.41187144316429064
Ni 4.751612311462422 4.652488915215441 3.4590230818771945 -0.8218366704448039 -0.3247483269925375 1.24796719463127
Ni 2.881221828401607 5.617066371517046 6.418202024262305 1.1012448787396454 -2.032592803243416 -2.7776843583166806
Ni 6.110327231756149 4.33062430780832 11.276607598789813 2.9875079735441648 -0.09921038635359043 -1.609368139849835
Ni 3.907030711523564 1.226430275992083 10.342613516982755 2.1905680663410405 0.20179123184131054 1.1372380090048029
Ni 3.243020376765053 1.7833341221884205 4.828898623938886 -2.2815159555755224 -0.19962199210413362 0.4282352292342947
Ni 0.29688695294454975 8.830639855679644 11.806096360254195 0.15699490146222642 -1.6448581052263285 0.8064794712624433
Ni 7.417096613860043 9.175880879241209 1.3003986157250442 0.08815412853942883 -2.1930440386853585 0.1349726315548643
Ni 2.2273012353192416 3.3237475498644073 0.7309084635660266 1.616182334558191 -1.353497095444985 -0.9485961700612566
Ni 3.0116030965262484 9.053445744671041 8.670778432067902 -0.5212546562858248 -0.3675757065707089 -0.9469331805365369
Ni 1.1604219293488658 3.429551242111255 6.390073635448482 0.5323304544840123 -0.10740680612145373 0.4452600459270654
P 3.20180211887376 0.7926970437042105 12.840595171990087 -0.506188763091638 0.3032215086643552 0.6757910689052297
Ni 4.350055376256065 4.011466929623828 12.471140616343805 -1.6789159661419861 0.01580328558084375 1.457639114772238
P 3.59746413174552 6.413721698494206 4.376587146606848 -0.20161871081918825 -1.343445367635938 0.8244854209215607
Ni 1.599778437080056 2.7925670011281367 2.793951106717044 -0.25536402286144405 -0.8786914746503188 0.7279595233786689
P 1.036914990717863 7.713090088764223 8.834070552643338 -0.03301167903933024 -0.30519200212716474 -1.6056225567644735
P 5.570849441238578 1.2994238284110944 2.555902500836325 0.3613302398816293 -1.1264362904036085 -0.5592933562261013
P 2.2490145072413528 0.10662879657988802 3.9801674791403596 -1.2420379736310285 -0.3342434109671663 -0.6028517004330263
Ni 2.6491300507796898 2.1610711361117136 8.788010697097924 -1.1158664853075622 1.5972484737681651 -0.9290197905912257
