# total energy = -340890.787322765 ev
CRYSTAL
PRIMVEC
9.07609859001182 0.00000000000000 0.00000000000000

0.00000000000000 9.07609859001182 0.00000000000000

0.00000000000000 0.00000000000000 13.28378771258647

PRIMCOORD
 96 1
Ni 6.508579326738027 1.704990530662396 11.630049405430144 0.5066232795258953 0.9810756307462006 -0.526537244841003
Ni 4.6719853642020865 0.31451677280989704 5.969243049843741 -0.7624555002730095 -0.5654922859479616 -0.8314371696490455
Ni 2.6342287489733702 1.576037319623822 4.712357666661391 0.20562860330952973 -0.7093835601486944 0.05187277760989131
Ni 3.331400198348161 4.077328450207413 4.598103197548279 -0.9925615198986131 1.6339717973311279 -0.19368737178725354
Ni 5.0279227288769 4.727921360797719 2.524464225911834 0.4104938460904737 -0.10671363670917104 0.16905543217118627
Ni 7.101139661921475 6.249184424465896 2.653450110905908 0.42297295239409083 -0.6991066037027186 -0.3715794284134633
Ni 5.3618233257869585 4.646082178369873 11.663431296632275 -2.358094720572526 -0.4596371405843439 0.48364738745601227
Ni 5.515944558659004 7.798628774752513 12.494332707817712 0.7276551047643727 0.2940411277166678 0.2709680479472882
Ni 1.9866854075630311 6.583112249672203 0.4802390751040645 -0.14607156968150328 0.14625180401310942 -0.5326945226916503
Ni 2.9424258342237124 1.7110170602323294 0.5419111661096325 -0.920120431219067 -1.5418124042870478 -0.4150889216603239
Ni 0.7520999990091831 -0.3100595007138213 4.414667980933808 -0.7470759324931456 0.6762055307348289 0.9714913294918752
Ni 8.598577966371167 2.5737093225090395 1.2725153328395533 0.6700189423081429 -0.9907949149164936 1.0843175068566875
Ni 6.675034977811187 0.6469842537273456 4.583451651336316 0.14529278253394975 -0.5507372391259742 2.0129171791913594
Ni 0.47599872176811137 7.226480585657589 2.3969005655918703 2.1785080498527125 -1.2193523591080548 -0.34661761626180304
Ni 7.542891540276591 3.909456927729269 3.908382317637281 0.4163212514055281 -0.38097423936480196 0.9670263517419861
Ni 7.563104012192617 3.914348944955465 12.731155352498842 0.9837616622187961 -0.30374524237830913 -0.5630170849345917
Ni 8.017444439513842 8.903453199479046 6.913587526914049 -0.27364996565482547 -0.14827706197325433 -0.2777781288905861
Ni 6.7778217961538 0.7765900362660374 0.5484877072638098 0.4519629118685377 -0.8308550718933304 -0.3299694661821608
Ni 1.8799595623629612 6.52831076542031 9.276653303976168 0.5653125658369876 -0.4678207048364007 -0.8470144552620121
Ni 0.15446067896529195 4.823801267991658 1.5305315757115754 0.08485488896286678 1.1213655607489204 -0.4071092458889569
Ni 6.486733157047019 1.8437187000546118 6.955298553938963 0.32730220376264274 1.2371587911618565 -0.6958510728798983
Ni 3.5580031558369054 4.13183949929931 0.3328967803883188 0.141004439571241 1.5266495805036806 -0.5446275266838104
Ni 5.886539822814907 5.7287972265416505 4.7270627618559775 -0.11638766946382537 -0.22097474674829684 0.4743279098272992
Ni 5.462876609268341 2.737079100007233 9.66157791283841 0.024828886118221753 0.09451272376760496 -0.32099631614927293
P 0.42133247138759083 5.69536995484577 12.633758829203796 -1.6794610400121786 -1.204410393086242 -0.4592627879640606
P 3.988745726408392 6.205591922170128 12.749859376802638 -0.1659189434247336 -0.7762780079783986 -0.9625040383916006
P 2.3397728772303767 8.571213528640218 1.3367477913024681 -0.9063431749293165 0.9319336218039111 -0.5541735185010327
P 6.323100172685078 7.8085943311799015 5.720676840990115 -0.7109591321659303 0.30879128944264883 0.31589319059475274
P 4.700929043115517 1.039240535159758 12.619611914082325 0.9348240559778287 0.26195273182255535 0.5486245636583454
P 4.011018472740646 6.029497454224575 8.322173547431849 -0.8000190603490803 2.0503020475977207 -0.8429559689219224
P 4.555947441684619 1.1937429641792996 3.7613713005259064 0.6418463365286687 -1.673689170525408 0.31471639667783213
P 0.018324643376047365 5.495786543335478 3.740595202877511 0.7116978101041679 -0.44141650381125913 -0.5979061835022929
Ni 1.375918418287285 1.1936158987968009 2.6063324518556787 0.13903086078463797 0.004786108534733692 -1.117987902525939
Ni 1.652902799936722 6.529635875837794 4.689894322255389 1.587046593534499 -0.8616507171179484 -0.20942123758274256
Ni 6.218225851629988 5.916427415998326 9.3326183440878 -0.9507584678198979 -0.24981763912191818 0.9720099209995066
Ni 9.077187881749623 2.1881929520083028 10.345719714847847 -0.39198678842522167 0.3862514286033413 -0.33104624418610734
Ni 2.4458815477154534 5.055886189125341 6.739928176263095 0.28747273047053074 0.8658655265302443 0.7258918422163627
Ni 0.786580098160052 8.93181600807248 8.766316977807561 -0.13407557366189168 -0.5345104928544665 1.274858105484843
Ni 1.2951139111169283 0.6382476010706922 11.833317713032898 -0.21100760823325596 1.3365653526866532 -0.36608575228874374
Ni 4.067952840198767 6.974700530236623 1.5254435147523815 0.9168260767385114 0.07080689551023289 0.23673278091350203
Ni 5.59952635204683 7.946759782449623 7.996907043262569 -0.5067945149964368 1.7997279899257521 0.9765139795174473
Ni 5.293598291483963 2.9630285783859844 4.553908042295517 1.5168379937298972 0.5571680823529824 0.05954443522253616
Ni 0.8237921030346405 7.3818180157621205 6.750515445454853 -0.07867729939724515 -0.3954858027174156 0.9386303170977963
Ni 5.145830327736848 4.387558581577732 7.7599509799298145 1.0759817332974826 -0.9747391470052116 -0.6266773420977142
Ni 8.251743928742501 7.213165948791486 9.488025660152706 0.4079376553275232 0.5124933651534271 -0.7571464293552701
Ni 4.656828279289754 0.42610468411028807 10.356785294443725 -0.4542306248567919 -0.2001902059027778 -0.11894514577835645
Ni 8.154638748217325 6.962202742258011 4.9278070063963835 -0.23560535217727807 1.3652969162933906 0.32383969913533905
Ni 6.74437637226042 6.228427386624875 7.180764276254345 2.0338734697280523 -1.5954561577544328 -2.1449047599759705
Ni 2.4148594421882965 5.177342542596498 2.4761775653426183 -0.04452045100987816 0.45545087041713817 0.788011751475559
Ni 2.2892280832921856 5.4082203425964455 11.494527821726267 0.8329469214253525 -0.8429580258044513 0.27338231381573563
Ni 0.9620664674893613 3.322169805919513 3.7242963447424415 -0.6811914139851946 0.5365514345438953 0.043419247525899415
Ni 3.691231209386682 2.795756078425334 2.560941974397556 -0.14094093332315727 -0.33622933104894354 0.12367366160227734
Ni 0.9921900392402783 3.50511672842124 7.8532160630739085 0.8714857009304992 -0.5347737738181823 1.5076265024339586
Ni 4.02780017932921 2.8050500035452313 6.534215675266994 -0.7738100060538802 -0.8855452643473587 0.3586496077256726
Ni 4.074641924977442 6.8717594182152615 6.138305356477872 -0.11073767026689961 0.19301399986931275 -0.3147292521936386
Ni 0.8924954477417557 7.392990693323247 11.321307754254809 -1.6187534377194768 -0.33424418229811464 1.0231296224934572
P 0.19552276492958787 5.716780471796783 8.11897149534997 -0.49641034354863545 -0.203569663897972 -0.7105660104925698
P 8.803398286860151 1.6003521881748033 8.107839660233218 -0.8904326743466471 0.36950454816230555 -0.17609048464109672
P 1.8539746916419986 3.4984004153463144 10.018261332830468 0.4136832995620488 -0.7899598763408653 1.1887477468483205
P 3.9003354484856194 6.157043869956914 3.834830520977969 -0.5295791169911203 0.2776997102441669 0.10794288113058184
P 6.901456413324934 4.198530672913573 10.436886403960964 2.342326401994676 -1.1405048526815325 -0.8422057210194593
P 6.298866989022847 7.933209167016024 10.389994739769605 0.3321947559682537 0.022353170884219568 -0.9778000453187224
P 2.4873320907062446 8.549830239985456 5.841758351582902 0.2577078405032723 -0.32531859767371074 -0.19706348734833803
P 7.145285806240986 4.163197420480214 1.8501527464584158 -1.9133321831071695 -0.6392448943500797 -1.7975003861468137
Ni 5.533915234183806 2.8693541631882704 0.6326884905863787 0.026488790319147925 0.15630841691816305 -0.19667782187414512
Ni 1.5818641750212576 1.1253454840000559 6.924015056767808 0.014610293714007096 0.558878894396502 -0.2653350180312269
Ni 7.004188775075047 0.9678207140967978 9.170529204123216 -0.03511509853557823 -1.25961197795905 0.6009182308557393
Ni 3.183369027737298 2.132093585635173 8.770328613455018 -0.7980817341170513 0.09746872107213536 0.6493914958657784
Ni 6.607191139655687 1.8726442267705423 2.666189323111267 -0.11045047804378398 1.0925200972721378 -0.8554790410895976
Ni 4.2137694427146535 6.9963107213601345 10.323548620821592 -0.5840325108439942 0.14857685260186027 0.7579241880615593
Ni 7.988110488354167 7.146538307868473 0.26118198611598686 0.277669885447496 0.067841899344638 0.9743056590122188
Ni 7.86026456136308 3.866318230370996 8.327407733580916 -2.2218247103624766 0.17268171606986388 0.28487694471889646
Ni 3.233178657676747 8.524262869806988 12.474287236118684 -0.35343412496300425 -0.6177345310821297 0.41440346555752505
Ni 0.20288529623550647 4.853098914756334 10.234999478587945 -1.0678084534580707 0.23438124996218987 0.4876788772129085
Ni 8.643168839529423 2.470123807476435 6.060967011420102 -0.17056775505065463 -0.6134757558057756 -1.3300730600940898
Ni 3.556206088284425 2.5843374341451724 11.684273649801543 0.027598478443558918 0.8207395807258834 -1.708742048364483
Ni 1.2072300469216504 3.2473373717265908 12.438275091498832 -0.22484811366077406 0.3369878064815229 0.030194007084877034
Ni 3.155568937266356 8.348277315046435 8.169702349312534 0.11595392436051644 0.5713371747645127 -0.21784725686290868
Ni 5.3825531353317295 7.914149359641235 3.412724765976887 0.0019342409082353782 -0.14460912620336386 1.7586649013368552
Ni 2.894912457267988 8.25282398449374 3.3509020117320705 0.36821668258881746 0.0891386039398852 1.2630657408356052
Ni 3.7574504258659496 4.418399165129891 9.716705229035426 -0.11943674070279431 0.28848831621923865 0.4545810662176752
Ni 7.319810109102807 6.157043869956914 11.537966030343286 0.637172070981451 -0.20496063070822768 -0.31388490191547236
Ni 0.21289714076652075 9.116941194274183 0.6308387816611492 0.3576317079841196 0.03520662980812002 0.4317051900607662
Ni 4.558525053729592 0.4164477150403949 1.8029288970528132 -0.017879965604214367 0.055262520017730625 -1.4380035999294976
Ni 6.046015953949393 5.553192867928592 0.41630703550977144 -0.41410341781860294 0.735659720236404 0.7805622371760493
Ni 7.8871933463540325 8.719398992929829 11.620246311170376 0.4809616130937329 0.5238316729843817 -0.045792375743766295
Ni 8.766449488849311 4.9026634900295365 6.011232713100277 0.4009951625714191 0.11341033200305631 0.27808563282867593
Ni 7.890351828718997 8.520632430307028 2.76990916440537 -1.3954767823108807 2.1997237646983794 -0.1829177919755753
P 8.52138574650327 1.4319633280679152 3.7465200801414453 0.5472027436101544 0.8140655111398174 -0.10689335682014493
P 1.877890211847984 3.3736131336339445 1.4144972836336085 -1.479123767008575 -0.833757590252106 0.4678567002806588
P 4.85074820518011 1.0862819549804879 7.9760510759451755 -0.39537061729579004 -0.13656440152201643 1.7791146845507746
P 8.60196335120488 1.7323640444920936 12.616197485732615 -0.9017884656790985 -0.612902399800809 -1.2479797930367604
P 6.188964509260312 7.918596648028686 1.3866681496466662 0.6634538874961154 -0.678948897807921 0.2077050262225842
P 1.684814363141369 3.234630833476731 5.838875782619933 0.7428528955507335 -0.26055842257819 -0.14889695494544034
P 6.528737342061555 3.9841895248359425 6.066865567997662 1.077214320153003 0.05395177162610708 0.5478745728661983
P 2.3184349690693624 8.545419255993004 10.339754902749412 1.725087836712358 0.3145844990856583 -1.3888695614070081
