# total energy = -340896.70781525533 ev
CRYSTAL
PRIMVEC
9.00485999430096 0.00000000000000 0.00000000000000

0.00000000000000 9.00485999430096 0.00000000000000

0.00000000000000 0.00000000000000 13.17952282686313

PRIMCOORD
 96 1
Ni 6.42133854856051 2.112963350573734 11.461808852820305 0.48008332425383776 -0.3577618058040807 -0.08618697751072898
Ni 4.658961406750951 0.5669549813782955 6.093775965475535 -0.04345087209478323 -0.784292907863075 -0.9471483818711367
Ni 2.5714547949894406 1.5442434166637105 4.702387343405337 0.19507602460466403 -0.7529082229042066 0.9459944707723513
Ni 3.560350494628926 4.227709663398908 4.790770042889589 -0.7064249917410027 -0.0793072196717602 0.008882132980978253
Ni 4.974536720395943 4.364691591524679 2.662751467123015 0.8891011000194171 0.7802110244842176 -0.08816518428302236
Ni 7.299825661508564 6.018938376186312 2.6813609105009215 -0.16831778267421335 -0.5630543659304303 0.4159165597679418
Ni 5.1939131162018874 4.506121920419193 11.331977683905992 0.1450341295559244 0.8505111555613609 1.0697110697974221
Ni 5.491325627517818 7.764467425205752 12.452078694073778 -0.32087573141100867 0.6528912814889207 0.3993877088749831
Ni 1.9499213580254042 6.409055919717258 0.32051898170580273 -0.6243723481136214 0.29012302360918424 0.11470745354792503
Ni 2.6326248079895955 1.5404433658045813 0.31160867287853156 0.5906546441462021 -0.4770633064805913 -0.10802181399763332
Ni 0.6086105625850402 9.102472536593067 4.505959832941789 -0.4372063223846535 -0.678992863671979 0.5611756608504787
Ni 8.663647706102333 2.4061075583180367 1.279225888678864 -0.44498339522691105 -0.3626157914622723 0.2354721690335235
Ni 6.925223491509087 0.7057522892509863 4.8775967025907665 -0.573983097027792 -0.1928193673600034 -0.9481750233634378
Ni 0.8006887257382577 7.24979466014998 2.480913630597764 0.14678993590476655 -0.11707132579441129 -0.14974593320929694
Ni 7.6449279106205825 3.612794798428853 3.8158147667928 -0.303431053572 0.39084084774623656 -0.6142635418143937
Ni 7.667043846426321 4.079912898586374 12.699234182048746 0.03252496921089882 -0.46019275597749776 -1.0408712627475945
Ni 7.757740794893501 8.867049480524166 6.986241322377679 -0.09982822244324743 -0.3975483416733992 0.06323242559708465
Ni 6.903647847294693 0.6119162466380884 0.4100290896439951 -0.9133252626741044 -0.14593555832427124 0.059898476127845234
Ni 1.9567920660953464 6.38331102538965 9.171695595762225 0.8065578899088625 0.6470960149633824 -0.928836470935826
Ni 0.11898661619002628 4.844821714173769 1.3784459369995188 -0.12347594376917442 0.08590158505982624 0.4660309599258297
Ni 6.248796428864357 2.189279537851272 7.063090597358678 0.81406268292634 -0.3857639474439614 0.08122243441660205
Ni 3.6049515654944893 4.022605970464339 0.6246689291658111 -2.0857110232246336 1.4139056784400295 -0.3749015508081608
Ni 5.702309493938197 5.44100647064385 4.830835365845807 1.4103809531162228 0.5750480479571967 0.00946037408195145
Ni 5.272111319189278 2.788904150786253 9.449098407992679 0.16335992444830577 0.3594811024880325 -0.6701816931382522
P 0.2997249593268895 5.576394538575151 12.328033147616788 0.03289263696296271 -0.2558347918502755 0.05478378060909919
P 3.9555467791185186 5.994066953264713 12.663992762517257 0.4902525514773557 -0.022497923992199964 -0.4251807586786871
P 2.282128647823979 8.431106205187273 1.2821011404308071 0.5036168885994037 -0.04156779613945744 -0.7619842170635458
P 6.244852300247535 7.7427747178132345 5.8200246239165905 -0.01497230503911615 -0.3076777446634959 0.2288333235607672
P 4.704634055939349 1.0723797553622054 12.609956399494832 0.01012911801420191 0.09273634859347255 0.8597912953117064
P 4.105036457583935 6.1053760259417205 8.062796631254999 -0.478050352984209 0.594795405787453 0.4348226526438253
P 4.509336655387697 0.9097699960869516 3.864209585115593 1.0515698801120212 -0.12172065164096457 -1.0096974082479513
P 0.22544837280668062 5.565867857403772 3.710325535040568 0.11338950606744988 -0.4574565879932573 -0.9593963460005541
Ni 1.410746369302118 1.0731541733098007 2.3819349125212432 -0.19349711015331839 0.03127875550862355 0.5198300080241564
Ni 1.973712197764313 6.317152320029407 4.8467829726503515 -0.5554187037620434 0.4307158295643034 -0.6877443846123639
Ni 5.915094332329726 5.588037822368645 9.306851338309249 0.5348020559529564 0.5320008390587354 -0.664844597196055
Ni 8.532789082678478 2.302956888670344 10.019850738772147 0.7239540017637016 0.5623581111943541 0.724332468149043
Ni 2.4207764750230645 5.145935222890416 6.8449433649230444 -0.3739769821113624 0.0040268617712059685 1.2887086382146904
Ni 0.4745390051646503 -0.04793827192810619 9.119452100337082 0.5508668227253029 0.6566216950656304 0.0535715054685529
Ni 1.4263427865722886 1.1360351096825494 11.237810262450399 -0.35100520380653744 0.3209531216161634 0.4096764923955009
Ni 3.894772979952017 6.76145210531244 1.6862140371495702 1.1190168580110857 0.42764901771352154 -0.4672964569018146
Ni 5.609208247889529 7.969129880007389 8.058381548467722 -0.7328453907160605 -1.0407416791482655 -0.17770308054385525
Ni 5.365671813090589 2.7379816683019484 4.743982592051049 0.2460975099578536 0.11379933991135883 0.4764495841559923
Ni 0.724124004328701 7.685449779971487 6.896646568756842 0.6123467844076551 -1.6111655980698896 0.038869423371687896
Ni 5.086908366535931 4.490282371932917 6.963572488176797 -0.25760371082524025 -0.2686193452094535 0.44951136500425165
Ni 8.09142488170842 7.119827517851843 9.06426941865502 -0.4454143121167426 -0.16985298837181717 0.2217766738243019
Ni 4.753278308880146 0.5027323208870388 10.507453094129545 -0.7512285212089385 -1.1738276352033785 -0.217234048758942
Ni 8.21268432452604 7.221735516839441 4.875329278879087 -0.5838579329393428 -0.3854279042607814 0.1380042192923365
Ni 7.025348528245245 6.115920716832812 7.076678930881014 0.7749443767686396 -0.243395023425026 -0.9310561042949642
Ni 2.2892244773903148 5.138875412763502 2.4868964594859286 0.0923735659374151 0.27325093044419396 1.0663020441158733
Ni 2.340200989033754 5.221693108856897 11.344932975780468 -0.07318208061062881 -0.3333982893580516 0.10014266835987269
Ni 1.1165756075342592 3.2991285150732805 3.700295922133226 -0.5308086185228471 0.21671211481720098 0.5022310639954706
Ni 3.5354970814270374 2.5829540010252416 2.812655369141796 0.04163078816690895 -0.2434132782574711 -0.9296823638758892
Ni 1.1806361805481123 3.1689812755780298 8.121116606110807 -0.5683323264999179 1.2132822416545752 -0.0057479582273707456
Ni 3.535181911332086 2.6900668090094673 7.329290463442585 0.2183393660079788 0.4843582974801077 -1.1308272203824525
Ni 3.980337158301417 7.026285033670243 6.003878648563545 1.2905487767472226 -0.31836890582875493 -0.3357935290631056
Ni 0.7744350568287992 7.360635480114489 11.131741117723458 -0.04297830333373888 -0.04850488957892292 0.1752782731524465
P 0.33715726126128437 5.6464253336733705 7.890475130625312 -0.2007370795451833 0.20253685175808345 -0.677765161912465
P 8.33591583165207 1.626232665650375 7.980636289931075 0.9992397032497372 0.8823668666193771 -0.7543449553507331
P 1.846860736976269 3.239516342828172 10.246683158538659 -0.5849421671424572 0.3608774686149269 0.9764378748638732
P 3.9577439649233237 6.121377661905401 3.756704165241657 -0.4490583366272331 -0.07620235549419134 0.09510279194312009
P 7.055613862220443 3.963390012052883 10.32046267679483 -0.11228727414220663 0.502063942289987 -0.0796391490898822
P 6.28125894864436 7.732185002622864 10.261484446683566 -0.7287424242912804 -0.21582894088129925 -0.27811108674997265
P 2.3518172582476797 8.462857341038672 5.624005033604508 -0.1218062693762354 0.5339929297880996 1.402989288637842
P 6.9454303970254045 3.948054735718529 1.6771605510505923 -0.05622694081352897 0.3068866162207683 -0.13969806205499166
Ni 5.4921180551851245 3.1477748306177227 0.2204632823905337 1.270729170918134 -1.7648489186603797 0.24036600679071507
Ni 1.3817507205665815 1.0827353441963257 7.060691702693104 -0.17618895789217398 0.007185462004845689 -1.1320788334013663
Ni 6.746954280944672 0.7135270852504466 9.153205016534415 0.5679407474884541 0.18946279218294468 0.6171295505082791
Ni 2.741106354671896 1.5874667439713426 9.220236292814683 0.38149334509306554 -1.4177384219225584 0.27216438224823447
Ni 6.138135706096963 1.9673097424068702 2.454514983444628 0.6987978142130482 -0.16562249523023734 0.3736738490486468
Ni 4.103991893840668 6.824648211780141 10.513001888772662 0.5435119250221284 0.15918625268659037 -0.7312222532903407
Ni 8.196997858657312 7.044726986654833 0.43707608670674586 -0.40738435392721456 -0.14227276476070336 0.6972569520884895
Ni 7.770131482055024 3.9735384891103207 8.04290939826356 0.2358254386078842 -0.3194459409430176 0.6097486846631757
Ni 2.9152873588617974 8.253800514627425 12.088047329058973 0.41948962183118077 0.5592740729523916 1.1861599315164861
Ni 0.15388855250495354 4.936887401339025 10.009886861341753 -0.5255085464661724 -0.7583810730933197 0.6940502722257337
Ni 8.594697494186805 2.314104905171771 5.635893249586078 0.80932413980009 -0.1709390223471443 0.7884102724655583
Ni 3.673262432360259 2.7473467225519355 11.454217755961901 -0.6576843320021899 -0.5089251881861945 0.26023112114575825
Ni 1.1635899808411647 3.460171428733633 12.612710986124707 -0.38410275769145463 -0.5529746130969251 -0.45905504282862875
Ni 3.1453165038771016 8.511096375285959 7.793091173229246 -0.2878056883299172 -0.684105502308196 0.7811062826049774
Ni 5.650189365093078 7.780631148646836 3.723715761646078 -1.211426676503075 0.49562332887096583 -0.12454192313984358
Ni 2.8617444621594683 8.206029733092636 3.505292080012873 1.0840380279430555 0.4365918287291062 -0.22539858684760536
Ni 3.562646733892144 4.3968569509294415 9.37513519059545 -0.1959622838643593 0.14670611794170865 -0.6125182769885129
Ni 7.332765438860922 6.317593558162338 11.552853388877917 -0.21245951018843412 -1.1449253503467314 -1.1849114038213657
Ni 0.3708984711408046 8.976575590949734 0.11124603865801784 1.154400122606386 0.3118560444109016 0.42758448302417323
Ni 4.549507335204229 0.18472749605296337 1.6305838139326765 -0.2471431776135486 0.296408856617896 -0.33275268535425273
Ni 5.942649203488342 5.643939992353182 0.5572207278742224 -0.36355990054309645 0.25381339054487256 -0.21845969363592696
Ni 7.897352142097152 8.791480696614656 11.256999618803018 -0.059125602517562686 0.2417664866826675 0.013615019680273326
Ni 0.06084133561541991 4.861318617429514 5.713876236422917 0.007898943132102524 -0.4809281887526363 1.2091461079990142
Ni 7.868662658596713 8.494383355393676 2.5661059082351207 0.12533022336909383 1.330053262599748 0.4390711435075341
P 8.424019380480793 1.44671177956601 3.3793483090982894 -0.7101019263719576 1.2693184066135366 0.03545602681476474
P 1.7926514806446139 3.2222900459241095 1.6194204891694952 -0.11804834499569992 -0.6729248031010281 -1.189266595466268
P 4.743426992197948 1.057674819217755 8.208272843682705 -0.34573855609095944 0.004869155166843228 0.5804183111301745
P 8.389242611717862 1.6583259861762916 12.269436723563409 1.0294437376369432 0.750851597485494 0.53798431033568
P 6.205699169594706 7.678561062181834 1.5691013322955267 -0.34093290717219993 -0.5870034205468599 -1.5585497716463868
P 1.9144872344930015 3.243478481164705 5.8762617746877615 -0.8927345830069463 -0.29374185130869407 0.5329344066165983
P 7.015046968570259 3.9120623108750703 5.98492702051112 -0.7746355872789691 0.9624729280433488 -0.9275331787433703
P 2.4750217507941423 8.42534309487959 9.968266399088446 -0.4449569128643498 0.550894847749761 0.34148852256535384
