# total energy = -381166.0182825078 ev
CRYSTAL
PRIMVEC
9.19925655502148 0.00000000000000 0.00000000000000
0.00000000000000 9.19925655502148 0.00000000000000
0.00000000000000 0.00000000000000 13.46404184337565
PRIMCOORD
 96 1
Ni 0.17737454000457922 0.5485801695700039 10.83187496786322 -0.1144310599580868 0.5838767019924203 2.1803767276303354
Ni 1.52422477275295 0.06975888028404185 1.0907383383321205 -0.5071490701223782 2.5140519247988578 -0.0740904513575111
Ni 1.8218115140999545 1.501263429082292 9.131393364743506 -1.621977343973413 -0.4513707868104936 0.8382637056525757
Ni 4.736586666625753 4.838394835857794 3.011071127395877 1.0071766987086268 -0.25580959503929496 -1.0198344966819535
Ni 0.5929270243108462 2.4250711430625973 6.82727864285625 2.269750073288846 3.679267392853193 -0.9063604013204971
Ni -0.13437905601102054 5.675655946771772 2.004661451441383 0.2648575641741761 0.35586793121547744 0.7052188872480435
Ni 2.397868942247638 2.4316762090704227 2.3921700029832262 0.907722057554714 -0.4234236667782643 -0.1496392324281036
Ni 0.18356747933113657 3.137231567847856 1.7718816307238068 -1.2579497597652787 0.686920860269804 1.1064711601355912
Ni 7.580251568120226 3.406916964902751 5.690751926324476 1.158880526975243 0.11943185560678785 -0.14343104673486265
Ni 6.6165374804046175 5.834481106416769 1.421371568007693 -0.3933160487596065 0.016962081775635303 -0.37259244305900996
Ni 3.218037834996519 1.1333851705127314 5.345682303771354 0.23844256451575707 1.8266695515116023 0.5759152810534984
Ni 0.37242085131978925 1.0398471326748897 3.22253719124224 -0.40443478438058733 -1.1542535697261929 -0.9980287136607715
Ni 5.865399806768165 8.699525079502031 10.340545449815643 0.3917947270190736 -1.496422406188023 0.5754465689471961
Ni 2.1164912904630135 8.704833050374615 7.381269814969155 -1.7418696841563872 0.3255417694281103 0.18131908002988772
Ni 6.486837166136745 6.664134432388586 3.803713085583174 -1.1110063290017835 0.9569579117623908 0.056885657443450414
Ni 6.0911311573253 8.047104624988108 1.7591710183240679 -0.39607175712787274 1.1880944295350375 -0.06649695528096934
Ni 6.828304359931281 1.278853010041625 6.9069589210364475 -1.8727948851147553 -1.2052837968301306 -0.3831396224472369
Ni 2.396268271655213 4.916413728354129 2.1546774032742726 -0.3386027163771265 0.03553650234371299 1.0112927777595293
Ni 5.078890992741615 8.999935992526476 3.834626266380803 -1.7087286786280445 -0.13121907804970304 -0.28227730231252035
Ni 4.022411604715543 2.168890254224259 10.136538142959733 -0.3994077634796412 0.8438183169222176 -0.21157582203190015
Ni 3.9720548758480825 7.423385850062507 10.914207391628457 0.26424255629799653 -1.555533353417566 0.12793217976831514
Ni 3.370671895166215 4.321801400293097 8.647402093429136 -0.957214507857887 -1.1536048803986003 -1.921449412897665
Ni 0.5230494736208141 2.1366100639436745 13.150948600384634 -1.157153002761175 -2.0454449766157357 -1.7980169207719163
Ni 2.362111433093853 4.921841289558331 10.639959163459519 0.9394538414403562 3.0564621321163745 0.17689986791626955
P 2.7436045909553104 2.4056423138028094 7.585749043672143 1.0742503524286726 0.8029894558313138 -2.0012256017860435
Ni 5.47540653610555 4.937305239362168 7.6379759813409835 0.3526010875387476 0.26645139102385723 0.7205681160106042
P 1.5459902131074283 3.125033354022819 10.69673697320924 -1.5535741728086665 -2.8812877315316445 0.49577168152337203
Ni 6.577716618910155 3.4692419261882916 1.3912532029525106 -0.11741842472118487 0.7329068400816151 -0.10591350940537887
P 6.072511862618004 8.369308576135866 5.935757558635925 0.06758247503566425 0.22472110116460653 -0.13031713506072395
P 9.158264392332445 4.373400028758129 4.007598962256211 1.321547796231898 -0.5299676106787905 0.6727114015386414
P 4.54140604616888 0.31821883332799505 12.027630176017256 -0.7170030243671651 -0.6582908552379373 -0.2046040186997573
Ni 1.7113652432225817 7.719344323048251 10.562796721722695 -0.09674675530444628 -0.29409897753779674 0.5434335063757093
Ni 6.894897776129957 6.160355560819573 6.14427526084509 -0.06411354265045734 0.8067095849953785 -0.49247938392534535
Ni 2.312453847703543 0.8061740641726897 11.443452564352711 1.3665770685573948 0.7180875156805956 1.2144132699352248
Ni 5.594739288547769 1.7510692333197615 2.513924919603524 -1.4981031363245556 -1.2030322817917927 -0.0011222865299012929
Ni 1.770286479685148 7.041570718231309 1.2913777974645422 0.7597671548075688 -0.659497988172161 0.615175769216018
Ni 2.5458389794842318 0.06070589218055838 3.275195574030534 0.5977287773841642 -0.5170853553994836 0.16470538273260665
Ni 7.720181455369578 0.652493128638522 9.448727229617528 -1.504738639363202 1.1498718957187295 -0.5910387669584982
Ni 5.5646485212614225 1.0376301119118174 8.79059219710352 0.7628594205796475 1.994375668743746 0.46277542910300945
Ni 0.5228949261153385 8.288244729811412 12.752615283980106 -0.3951741850142678 0.45642300452242035 -2.069255705882088
Ni 7.2291527530023 4.560706085840771 3.305650631865502 -0.5507033005642451 0.017344661926034646 0.9956684409587109
Ni 8.325216540793933 2.7656736067669723 10.861576606608995 1.532453074559335 0.08105891225554428 -1.2700054053782321
Ni 7.22045025656302 2.564881439980331 12.902133556048339 1.672657386826784 0.7684166029524508 1.9582506408864144
Ni 5.803019649944954 1.938145308995445 4.790855839188378 -0.7085713486600442 -0.10704659456855757 0.8294615339799134
Ni 3.5789982528447912 -0.0476852648442404 9.450356417904416 -1.2555588909355988 -0.6902152147503596 0.7058650054724747
Ni 8.384018186924882 1.1427224156352145 5.355349802194229 1.529952162514352 1.4619693667164757 -1.6908664536356428
Ni 6.974986501288912 7.2174053027349 8.297404429287722 -0.7586240423420612 0.8225766339346222 0.9175639833458004
Ni 8.998740089210298 5.066655981891465 6.765452281260994 0.06969257940013159 -0.014670714638297316 -0.34301755761537056
Ni 8.416114392079901 8.032670991887443 1.0967997282938982 -0.29642119791307014 1.298713829056518 1.943595609977401
Ni 6.60684146428728 9.081220621001611 12.706944656260816 0.8818482751117458 -0.5251961574320761 1.3022254417542025
Ni 2.7963715249676886 7.9694721012554615 12.783420833479278 0.8247412456861087 -0.04753455524585362 0.6117176354640884
Ni 7.982507447401825 7.576774249247024 10.81601453011379 -0.32041216151102886 0.5911760638673109 -0.18001347384458674
Ni 7.995984357849547 6.616979044705976 12.927028583388697 -1.362740211309808 0.44655691036161804 -0.08204493031789742
Ni 1.453988451068064 2.5290963330577103 4.510951908259538 -1.5646132042316472 0.6078545529642564 0.35089670325313116
Ni 7.990234822675604 2.852643375622102 8.20311573213757 -1.3982520310631725 0.9484920403832245 0.9872246810667321
Ni 1.751593590927625 5.571731948595719 4.531996126921797 -0.7528141205285035 -0.14841513021301536 -1.2518253920350957
P 8.437502662926967 4.638053432628789 13.641362792432522 0.28728349727786007 -1.4447298629097376 0.029554059508032974
Ni 8.933002203845502 0.7706971323353926 7.356590970151336 -0.34809137259385214 -4.289168286823516 3.407182714802958
P 7.408161080921906 0.843237867717995 1.278603710196483 -0.8027827391371464 0.7072567436136787 0.13098999275803247
Ni 0.9150141449038699 5.925498548034355 12.746151886518968 1.2527900699412102 0.1733283485149273 -0.36414868316703086
P 2.6154681502547494 2.0244343328859795 0.3202426697092229 0.9314332851287249 -1.2901813661054748 -0.20713526976204327
P 4.145690838101157 6.599160085294893 1.0885746732554624 -0.29440313904177684 0.23897015488445295 0.7007078867515675
P 5.816146988654101 3.274263689369541 9.324925478475308 1.8910654012891688 -2.0331347917898146 -2.113962304760843
Ni 4.861181393659164 2.6092494530106127 6.936364343730061 -0.7741167386610216 0.5359389977708771 0.3261063836823287
Ni 4.97052375378314 1.809714492093979 0.371758504867751 -0.10422069508398824 -0.5216521488345598 -2.2824479804714883
Ni 7.593553692698659 2.217738305062078 3.340980375602346 1.1292241375613907 0.4068102265912994 -0.27895440858687437
Ni 0.8048116543178722 4.066586433363981 8.8544653932207 0.10687201666390626 -0.05501029479760848 -0.381012291691589
Ni 8.60195776741429 7.802091633271638 6.798694713748289 0.9489291279206431 -0.5869900508104214 -1.2164760660015241
Ni 3.485883380795752 8.135767056998446 5.2067468561256876 -0.09477163385594646 -1.0993916275809905 1.8687770222046138
Ni 3.472213285966185 6.698475256075512 3.444047923018888 0.5669300468357527 0.9746926100379923 -1.6279605581400416
Ni 8.73542977675627 7.0308167876419665 4.506051464440084 0.2637625313377845 -0.9819012119712897 -0.43584363770917195
Ni 3.6452236987923348 5.4872367796794554 12.588703855538833 -1.620341351031887 2.152400554132383 0.6968584310984901
Ni 7.330224981732076 4.850418263813543 11.610756678509425 -0.22820443172751667 -0.37546847905522435 0.45219791069747933
Ni 7.565587953612601 5.132752638251112 9.362934965566021 -0.7059349394784616 -0.9336770868575791 -1.4356109313276049
Ni 5.6309567605154704 4.391862936108694 5.252147945636024 -1.6307196089424174 0.9213892706291616 -0.38614781314594143
Ni 4.057267586754055 3.8798231324017607 0.8448026612109352 1.1621167745243535 0.2161837531175567 0.7947981782697731
Ni 0.1882876177275367 8.487923786588377 9.0336586261915 0.9824149183829146 -1.6538973326104611 -1.232621308302819
Ni 1.9492948076047552 4.064148630450229 6.238172989603413 1.9479490018500902 0.2598218015224816 1.0169389203017132
Ni 1.7044750002701285 3.949351111353217 0.14043400649340326 -0.06482728088803029 1.7766775358641917 0.23886011166914994
Ni 4.885044264445097 4.765003169269448 10.274639218060956 0.06490621375508177 2.0262506630754715 2.047020034412339
Ni 7.254377113717422 9.09684095816218 4.072563190167998 0.6045779390955137 -2.0388452119110307 -1.2301484212822942
Ni 4.185523617786233 0.16207341703686856 7.367186673532692 1.6141935862629362 -0.3978746146645664 -3.0965075780740348
Ni 3.8861154236961233 9.09666617229289 1.1854023651384271 0.5438870489733602 -0.679182868195598 0.5382668745731053
Ni 5.446208096678198 6.816897282146178 12.78995046558562 1.6215346000090394 0.7380292489098451 0.31043242459049764
Ni 0.2586490492978078 5.7887792012261325 10.520142530137063 -0.4138007989765196 0.15741707660130955 -0.012167231490153238
Ni 3.386899383241152 3.3779209091135223 12.080328115607548 0.11469896890749279 -3.0243385121089528 -0.5502302175825685
Ni 6.173924463830078 1.7068484083899322 11.300639630185735 -1.397774834316438 -0.145077324089034 -2.883754190794266
Ni 1.1221068823155251 8.669406714446849 5.187264671179485 -0.1760524323143097 0.5699716618755539 -0.16631412198062323
P 4.053127921428816 6.076476742073956 5.472391939823149 -0.3347280639130687 -1.5941636641952546 0.300687686498908
Ni 3.0865528650106544 6.751978130590155 8.537184884033092 0.15833727442273376 0.47407285639369967 1.8534362780824856
P 5.454266645177997 4.284268434677598 12.4050407039424 -0.16409988793812383 -0.6528424305288563 1.1119270410438398
Ni 3.5615840607099534 3.4138624033928737 4.378344629007721 0.4379324019174006 -0.08836495899865426 0.304874727997062
P 9.289776960087146 6.424254625675411 8.423144463727784 0.024243960149029214 -0.5967005932299659 0.0059837283872606626
P 0.5249583192985631 8.056699449286384 2.832242184973697 0.648528890755167 -0.21039362879834086 0.9528287200853653
P 5.065809650313861 6.753100439856108 9.221023558514322 1.2657697700303299 -0.02263342112879973 -0.4920713498536493
Ni 1.981666990448123 6.421688033173763 6.7084987657163575 -0.773401457761552 0.14895866142131117 -0.9822984474097084
