# total energy = -340858.50037035445 ev
CRYSTAL
PRIMVEC
9.35943198468071 0.00000000000000 0.00000000000000

0.00000000000000 9.35943198468071 0.00000000000000

0.00000000000000 0.00000000000000 13.69847477546288

PRIMCOORD
 96 1
Ni 0.4031987092638909 1.6345592599240866 1.9004850538495182 1.5055356813432008 1.1281406746892246 -2.642574944073636
Ni 1.0957461266489497 1.2281820875974323 11.054929454031646 -1.324406605836932 0.7450614731662781 0.16185737176085027
Ni 1.8398116008145617 5.860782642143481 7.287013115921703 -0.8629257271756299 -0.42293258607445866 -1.2937397728806943
Ni 0.4406439242859891 3.5204099061030005 6.752649456557159 -1.0449744862826906 0.5286537769633735 -0.6402627940916328
Ni 1.0755859104027992 2.6816176219897145 13.428984913482825 0.09573374065889964 0.3715897128261084 -0.11575774918931031
Ni 7.598145901718318 7.904292918158238 0.27820911231050477 -1.39181681696079 1.9005484010789397 0.1347034370538777
Ni 2.3926077253022098 8.820103967122765 0.357122226172062 -0.7029640297755958 0.44887321719962053 1.4108350099345057
Ni 2.1289899672757113 7.773476138923119 12.058739753316303 -1.9882050211566595 -0.9841406428247695 -0.13607897724516566
Ni 4.60228535472187 8.352216608552052 12.24555962908367 -2.3320389040257385 -0.20514883545963378 3.32334135470627
Ni 6.140433106961835 6.467975784654633 8.927309707581578 -1.9254469640928324 1.252355553506953 -1.159592722550919
Ni 7.966720328725473 0.6792280098920704 11.062394536890482 -0.3683791763086108 -0.46994854981268097 0.9872838164394416
Ni 0.2624899464862661 0.4088995392153906 13.438600793785191 -0.5915324187654651 -1.2825755287337588 -0.28623911517374573
Ni 0.45454736032761245 5.622351115276866 11.076627424933898 -1.170605528721655 1.2094718667695494 0.5996069682434835
Ni 6.3513104664056685 8.00887520986413 7.010153633686729 -1.1789603284442536 0.4636591172595434 0.08862438330762801
Ni 0.40250236753282614 7.221119907733321 13.602955225237038 1.4305990799353103 -0.04779346533419511 0.09701697824669743
Ni 7.9225906074624275 6.0551874014976095 5.094189015468823 1.7117381548783295 0.25696222058649937 -0.48593952592429857
Ni 7.746399302525665 8.021482364591874 9.012487089193158 -0.18874468306999753 2.214371596518541 1.4666624013167708
Ni 3.0881351857944064 6.252137926320149 9.061979764917227 1.2290117365746898 0.00179180179310014 -0.6482805221897867
Ni 7.04931817634319 4.218202349107531 12.774622106237528 -0.8056780584070705 0.1260871561397764 -0.25080597117711645
Ni 8.167564377205577 5.758792913065345 0.556003601789206 0.15293332979834307 -2.2413167576488173 -0.0944453608647793
Ni 3.7214785809479656 2.2614914442472775 3.665451149892855 0.10847844191907768 -0.7236822361595536 -0.23561383681771036
Ni 7.438586307213037 5.43023005729881 10.281883435026396 1.1357963914622697 -0.8945950332544528 1.5555819472673145
Ni 1.2362779961642476 5.703001339693338 4.3400602801575 -0.07652348627903595 -1.9530801524290688 -1.4737403912094749
Ni 9.76329135430456 1.217175395719311 3.931845851354931 -0.4426236367454829 -0.021899628286568735 1.677660239358014
P 0.26767975145771017 3.3060882757313186 4.5625236803121565 -0.07230456310168193 0.13966180950041754 0.5742111538781981
P 4.636035466042027 4.046484852604223 12.028013674433067 0.5329282359690113 0.3548140360296664 0.685465101659884
P 5.21212721645199 3.331705040757184 9.841052322103023 0.07996722185326227 -0.29690276553517897 -0.33780644572807633
P 8.05801222717717 5.338142607138236 7.896253166182637 -2.183779068443665 -0.9927201569636646 -0.23199912288325852
P 2.6638066231427207 2.160344064037366 1.524982775372818 -0.4189172942674785 -0.6112579222188506 -0.898024370650976
P 5.0379669082308345 8.677653414074292 9.2860586030125 1.018886016725755 0.5981270412638473 -1.750499591917243
P 1.9246267724128054 5.732520987808639 13.003756909428514 -2.1934705846998157 -2.2340590476451396 -1.6570340784672304
P 1.2675010608797344 7.437444456525001 9.713917543365227 -0.1928157678155776 -0.2617763541456911 0.938791525266009
Ni 6.10158210527299 7.320114618613328 3.5608361001754236 1.6581355390615249 0.8828795445897376 -1.0392512106456682
Ni 5.755779176003479 6.117483780018677 0.13200355519612772 -1.002178474163087 0.5461020543468079 -0.21389058620800583
Ni 4.000277337466227 1.0886048801327877 0.02345473626409167 0.19899824247720568 0.9668103790764382 0.15072012419710817
Ni 3.2872290205149803 6.649717232689801 0.359403119718574 2.6109971692673546 0.9822385407060503 2.2356922123731886
Ni 7.150428118825626 3.1168873604964373 7.738692746324607 -0.9744763802621281 1.3975105249114579 -0.38802728955684146
Ni 9.25613181961089 6.988949840787168 7.935813612807164 1.5410719265765975 0.9635638471146823 -1.4740553513467325
Ni 5.07306477774015 6.161922362533404 11.312816431924665 -0.06814811773114714 -1.1921099784523341 -0.12284859459782067
Ni 2.601323055984271 3.6057960030452625 9.015185413401035 0.37050907816741996 -0.11041422548920984 -0.36909548564934497
Ni 7.560914081742837 2.612535655363513 5.416007464630448 0.11494913724508592 -0.12535850550386798 -0.3076702884643282
Ni 8.257209015648304 1.7171468867374724 9.029911543503955 0.9199533095135833 -0.29823279720051216 -0.07296327973160338
Ni 3.6154736555979645 4.808389403912437 4.3364709380356805 -0.7448498713761043 1.149331192723911 -0.9769500386136012
Ni 2.781819699580842 0.8560669875141776 9.344976226628804 1.0783898285183426 0.6800652708005513 -0.5653596170248393
Ni 2.636982491405735 0.2442680685802166 2.6782706891533063 -0.15723838493160017 0.7906980400584706 -0.6470124541106406
Ni 6.35217153413763 5.458027569950187 6.578062358242771 -0.7314058300560565 -0.08166440705002709 -0.23348727739301076
Ni 3.4363622079180276 4.008317089441827 0.3638086042993832 -0.13290623594413886 0.21286214494349148 0.3001264146787993
Ni 3.821558985924794 7.5556915187598515 2.9251041780088567 0.381972084501697 0.2069177544345985 -0.08747587152548161
Ni 5.4511390280944925 1.4519567441569563 8.606628429392055 -0.42196199463107326 -0.3018246283168286 1.0152738738944644
Ni 0.5317795202254703 9.404825113716088 8.9873776053746 -1.370432694858059 0.43570762635193994 0.41532186360673634
Ni 3.7107526720259187 0.985398424911663 6.489200168304306 0.6591850849174326 -0.8883295119607153 1.226615211318055
Ni 8.385517467142492 4.193502808404843 3.0470060983886107 -0.49372585473793673 -1.170529938288713 1.0443383953605885
Ni 5.200446645479291 0.63089777560615 2.085483584175151 -1.5613746426896917 -0.792202906738771 -1.356608130270141
Ni -0.025021505158987496 4.108191586917534 9.017691869255593 0.14237997976252897 -0.30712135793939366 -0.9111079433078116
Ni 6.310231919931967 8.181247866598277 10.937506021801282 2.3602637031993865 -0.07905499445163804 -0.5235938459419628
Ni 2.5829972883844734 5.200746147299103 10.864150538583626 1.6152413108011603 -0.6752904751197274 2.184281719111696
P 5.214073978280774 8.204262709564519 0.9217542882014381 -0.07728196171161529 -0.6505675184517505 -1.0024358415895316
P 7.780243008164515 3.254686275905943 1.0318446055623234 0.30300964976386524 2.5563959369827067 2.319826678230263
P 7.298101234857085 6.385088656021433 12.296600354838898 0.7716829324085483 0.6326556711683361 -0.9547997277688071
P 0.5438045182909551 3.5586057475610047 10.885930872486327 1.799567553088488 -2.1991180127935803 2.0531068640363674
P 6.080130287428897 1.1572375940292698 6.654184489520946 0.5708286105592104 0.20294051495440535 -1.6885383197230985
P 2.4285947408390944 0.6114881857959054 4.825849424064337 1.143316868209031 -0.5357448794821998 -1.0130593827416488
P 8.069739595309215 1.8581654467099662 13.23827432188745 -0.26040647038135795 -1.5954049928015235 -3.12352987229915
P 5.069882570904639 7.033201234664513 5.2555156707110005 -0.17949488233695537 -0.8438005763104048 0.7074066389279817
Ni 6.252175364047625 2.2290797316844086 3.3379898992573187 1.2156013767060547 2.260908049517184 0.7559727207621432
Ni 4.728104197338862 3.207496020421685 5.592443050738995 2.440473122970442 -0.7568558946980449 1.3156424864910568
Ni 7.765183682287051 8.461216552100183 5.26506322716072 1.036395486364428 0.026839488790347327 -1.9328753953464193
Ni 3.478582605079766 7.9633696521163175 10.417840414244052 -0.44099330023091143 0.7740987409388926 -2.367082268783117
Ni 6.183991902880861 0.3544201581914382 12.921729912584091 2.183424513317724 1.271302784033417 1.3259785783097422
Ni 6.692199693943876 5.463830417709061 2.204742400995056 -0.7937856778448588 0.27892638356241645 -1.7671816805586145
Ni 5.984270986225055 4.85331467688436 4.101625009518139 -0.35368043664585536 -0.8984110645664334 2.267041930329063
Ni 2.4356236741728265 2.754106421816287 5.59992310868882 -1.8989545742292588 0.5583060526121675 -0.10388053813575013
Ni 5.045884987592136 0.4135633441157884 4.4242511776500715 -1.5177383940569797 -0.8443389653123781 2.4006593334076136
Ni 4.8996906617960025 1.3138770457913762 11.013943565933449 -0.4800563276706442 -0.09876018619004927 0.026592919997180005
Ni 0.6894410219476876 4.780161357395078 1.5989541092074637 0.9742984599233673 1.4802280558163476 -2.1091800528808515
Ni 2.127164878061227 8.327245644325158 7.870061732040006 0.07407811006233694 -0.07772521989662098 -0.7674246713528268
Ni 2.7798635783201893 2.9414073723817307 11.6590180729918 0.051866092741671956 -0.8350997061022973 -0.11920354164606567
Ni 0.7383225267707011 0.6169587737234239 6.064560872514564 0.08934017842773 -0.34816002104825844 2.5365148817880634
Ni 8.95308277511966 7.8466949744354855 11.397925489683598 -0.5024542357498702 0.3205432877722544 -0.4984422863769996
Ni 7.627469001764367 0.9011607302597459 1.6983372365100402 -0.27049316519339867 -0.3774495140409951 -1.4350686856708896
Ni 8.766652251718046 6.627310752795054 2.7448321607771455 -0.7709853921208915 -1.436562753717913 1.6691666000647059
Ni 3.9242881101205924 7.3751012808445875 6.963646616728919 0.9884364419866463 -0.7928883628415699 0.4134225897014944
Ni 1.832015194067559 3.5261753161343976 2.9738705618198797 0.14542853678086565 -0.10156937350407022 1.2726898941889306
Ni 1.3720178365625402 8.154882347022879 4.1061315759631345 -0.7923600011419257 -0.06809900966076658 -0.2396638385173679
Ni 4.847390156511188 4.780994346831433 8.159620091435043 -1.23826565107279 -1.5916779216589232 0.5231395320133635
Ni 8.108122625404603 0.28178909500045485 7.188329138179751 -0.6378696112691079 0.7062239314737903 0.6134274190663436
Ni 7.817315717798221 3.001878661688313 10.90519164732985 -0.25328631439680893 0.28392897898333036 0.215156597404623
Ni 5.710039632458939 2.6989512898113817 0.43271742143600533 -0.14190561122927173 0.2950248317861758 0.561762386591884
P 1.3283280085973448 2.095595514366581 8.026087205071496 -0.19612837712857834 -1.650017795050397 0.7000890222206458
P 0.11131640293574392 8.197842139302281 1.8215139115103722 1.187401260122755 3.437983502233898 -1.3229549609920699
P 6.79651992155743 9.496641140352454 3.4635083041113117 2.6707200390492845 -1.2908141145934673 0.6915969255892348
P 3.281884784917695 4.53979242813155 6.618938740988098 1.1222520771189317 -0.4523907434345757 -0.02071357839826755
P 0.7044301520861326 7.009503153171823 5.8133584008624934 -1.1930024083596165 1.4770134055337918 0.7545205616966489
P 4.837946489755215 3.664404765409884 2.527669942833176 0.4073208476791308 1.3011818309810366 -1.178163543574571
P 2.750465602819187 0.5748403943690589 12.128519933559941 0.3374233513570447 -0.19829298888006494 -0.8185392306404549
P 2.6251053723637825 5.941049129853318 2.3971507935314955 -1.0515647379056987 -1.5096453326362 0.6928433964018261
