# total energy = -340889.2348365793 ev
CRYSTAL
PRIMVEC
9.11772863476076 0.00000000000000 0.00000000000000
0.00000000000000 9.11772863476076 0.00000000000000
0.00000000000000 0.00000000000000 13.34471749110895
PRIMCOORD
 96 1
Ni 6.544021753480466 2.388051648638865 11.715341202521323 0.483265064415929 0.0004949373585475347 -0.4034227981763052
Ni 4.5338361308675745 0.8756766834486648 6.52437943077536 0.620814455559034 -1.4359642009019657 -0.8613928354708713
Ni 3.1795343144988797 1.9908925089128482 4.962873585068765 -1.2034549711515081 -0.06849547376823688 0.27246211599431136
Ni 3.7160761712062698 4.649886580382778 5.34992389910516 -0.35189660527255523 0.8785940298405062 -1.104071549555163
Ni 3.9297319052956605 2.610469519904883 2.7582998124264697 0.1306557493470653 0.7470191111132812 0.1573761960610451
Ni 5.483465799150688 4.908301244128841 2.7637576847614627 -0.6993025217636086 -0.28654224823646135 0.07356311809913137
Ni 5.550399044742384 3.5109819842644896 0.3021779374405224 0.5758427759443502 1.2698444543203355 1.3922503049537829
Ni 5.656419992806714 8.266780099968496 12.711977320558965 0.32122231611715 0.5242875295748778 0.4853319742472867
Ni 2.559866126220928 5.30819570243237 11.474775404266378 -0.9444314971606058 0.5374770316819583 1.461152013021503
Ni 0.6937570272684169 7.489220205668013 11.294621852114345 0.7496490925369605 1.2649619294170535 -0.27434930571469524
Ni 0.5976725798233261 -0.06085810303104403 4.466209937902908 1.1465533728684576 0.17320467845286944 1.1006193293405047
Ni 8.666483085971599 2.612621303852525 1.812025468265103 -0.03029428010816718 0.37766085872085275 -1.0916749756630233
Ni 1.4380208002977168 1.8276851671213536 2.938173450310739 1.33987024869017 -1.321013778105299 0.029103602234175685
Ni 2.0009949521924555 7.036515863361337 0.4464204037612734 1.2238458761030342 -0.2996924124651742 -0.9801523476009829
Ni 7.473109179246473 3.948915606252605 4.019108439815835 1.3795541975433532 0.3380573853966178 -0.25586358820568195
Ni 7.967308304373991 4.372652924823438 12.686916331751807 0.2482670068053466 -0.3437104699173371 1.8566732969625444
Ni 7.909474551916815 -0.1626684840317248 7.304684673154805 0.5959459744521285 -1.7395636617310297 -0.46324722653310546
Ni 7.1917907812780495 1.0994795376877622 0.38049922604325637 -0.5516016440087984 -0.7475374455105964 0.7153791156104969
Ni 2.2637405370195784 6.753373919674573 9.59920210303568 -0.7450162217506394 0.10880085825550294 -1.8214049606785534
Ni 0.24826572005063818 5.123899054408264 1.7964925058362766 -0.7269778761916899 -0.06441770415443744 -0.5877402987128846
Ni 6.367712235702695 2.146641548716329 7.2060007612882195 1.5383740680294604 0.9478623772190256 -0.016432691634726538
Ni 3.379139628828455 4.775875354062937 0.5407615414996305 0.24533749186337747 0.011547852738599467 0.779334021195903
Ni 6.09912218684829 5.847554937274596 5.085858978950818 -0.3309282305510043 0.11282823424734117 0.20489918134267293
Ni 5.566601248449841 3.468055718054748 9.689025406256848 0.27860268167441055 -1.4032463989539703 -0.6257520020699674
P 0.5302250943390578 5.797334488191493 12.590834619625294 0.694344663537701 0.06555567441362259 0.6132160743864858
P 4.079107652813541 6.686860089598096 12.904861957143595 -0.1859897460326797 -0.20013235608164887 0.17762106235301023
P 2.5400350665339726 9.345033565494772 1.66424623502363 -0.18765093578518652 -1.0234078158555084 0.2756523407968349
P 6.281950880569131 8.195743876510534 6.251947171092412 -0.7451933707584522 -1.1153831179132403 -0.892171768524941
P 4.948209542174728 1.6164912197517232 13.238480558086888 -0.6408253514633222 -1.633615956653606 -1.172211439756194
P 4.3347961157106845 6.429867791512338 8.503253861631483 -1.189546331490216 1.0379440617984705 -0.4494900248480129
P 5.139043601599084 1.0641939280378692 4.010527745438183 -0.17312985935087602 0.7424608023186374 0.31882321975735417
P 0.2898826804346101 6.214662043562359 3.836406482522419 0.5164762610605751 -0.1674317805248342 0.6594298539383869
Ni 0.8578059354089257 7.830469433669704 2.2488786394151017 -0.5062376140517023 0.55913471916105 1.088133281058352
Ni 2.034302014737949 6.865567569995486 5.1573729713869865 0.23120490911673733 0.3684264846067784 -0.20932430699356208
Ni 5.995015961788218 5.829255655991047 9.769013415646144 0.2608751824876604 1.7575202462094506 -1.0499742534901273
Ni 8.892493342302746 2.589024622257196 10.164738336664687 -0.6407525892438577 0.13206291410723706 0.3207358633990347
Ni 2.5335705969624547 5.4156298984284135 7.449314642940704 0.23554801657678143 0.3624766947812467 -0.2737718359446704
Ni 0.7114253617334202 0.23300264238812635 9.2752191176681 -0.9897006534110503 -0.1184149843064993 -0.09277131559646602
Ni 1.6235483416817018 1.3790382140379862 11.416325293356403 -0.6728890647670863 1.8173205061965347 0.5549031975782055
Ni 4.361091644969157 7.085851892771045 1.9856543738369143 0.05612512512834205 0.28280437846058387 -2.2252234516313805
Ni 5.790304719447288 8.256841775803538 8.436663442634835 -1.1736581995050497 -0.4435525763176555 0.5354566588178197
Ni 7.221013101414459 0.5374125997878978 4.875318772721212 -0.8256339327037072 1.1057427666099988 1.6523718971048704
Ni 1.0533347132851503 7.806325688358872 7.375465600212201 -1.0727354584460427 -0.7408057832137177 -0.44916658007032323
Ni 5.178322776372143 4.7420029923447595 7.409854937141529 1.5185212949695914 0.938513589014274 -0.06934162381861605
Ni 8.18352612019765 7.471340339899682 9.373156287563022 0.12848573827894 0.006231582732008622 -0.10229519592650124
Ni 4.685290720504363 0.6308501706228171 10.545169179743505 -0.4506141111501272 0.06555773129615161 1.1115398329077504
Ni 8.132676547841719 7.337947970603058 5.257605073568443 0.6614381426176674 -0.03622735776315051 -0.38664275050448893
Ni 7.350521318331017 6.443052027055942 7.34164976841129 -0.5075799870122097 0.3099284883708856 -0.6087680659174612
Ni 2.239104434364795 5.959529762109308 2.812318707240877 1.3130361592164612 -0.6618955418700602 0.37175452053874686
Ni 3.5697275095808356 4.582442741989946 9.510432809239711 0.018063285259614054 -0.6032026560145417 -0.39445607590132065
Ni 1.0696189765499329 3.86095687852844 4.2217481342207295 0.33051968225867595 0.7592308226881247 -1.223491578087409
Ni 0.6574420260605207 0.5689070578893604 0.5488854376748384 0.0879929203712162 0.3319646422353186 -0.4021601294137977
Ni 0.8112462543553912 3.487029711254084 8.084256850155477 1.2228824837485002 0.09225683785389273 1.0716288556454252
Ni 5.479189584441179 3.0659091807890695 4.900954178429646 -0.18492659487548796 -0.4018150873695531 0.4213423587692034
Ni 4.251460076382513 7.394696713357821 6.2263117653839775 0.174713401787912 -0.4742001260001833 -0.003268386338626629
Ni 8.674552275775255 7.523247568772251 0.0885231151239911 -0.946657558277647 0.8514254398455143 1.7586013950887713
P 0.46804947952651266 5.860839467832708 8.341062234805106 0.33084775502205604 1.043193740233184 -1.0836852725893271
P 8.531130405027758 1.5573445143773421 8.009393004234717 0.581400729648102 3.832390470064838 1.1859938382522672
P 1.7961287084654676 3.51451966295807 10.34796091626069 0.7800256479462888 -0.7280888498676815 0.253564250648544
P 4.1837062352175645 6.512054997037954 3.9758986122468927 -0.9653749321814924 -1.0790603722228063 1.4986263558178772
P 7.147077440264335 4.444473272940288 10.812157243684348 0.07270077009883609 -0.629535894592432 -1.368840924890907
P 6.621732154267557 8.427653303240515 10.628080332919303 -0.46216813453631367 -0.5910413380616595 0.6443444203601741
P 2.4838880938662617 8.952442407793198 6.044103077207373 -0.12438714272953418 -0.6457510708997137 -2.075312196488813
P 7.243770951979352 4.24196852091855 1.6852780995661127 -0.7484856683564787 1.2551320878108254 -0.32186329213525855
Ni 2.705786254602552 2.2176595367171084 0.7804483907183348 0.7016028877620111 -0.4021382750369268 -1.1641345762853306
Ni 1.3737043428118396 1.3907818484641006 7.003174153447195 0.3238067890148746 -0.3401788026149948 -0.33989238172282754
Ni 6.858920745852134 1.1400990185638016 9.492724356768905 0.7231528460186449 0.512323415234466 -0.2079770489370483
Ni 2.706634203361581 1.7813306349611324 9.156771617306134 -0.48701424704571616 1.046263123187127 1.0115858835199159
Ni 6.274556402681259 2.3032932436503883 2.470841536024393 1.3475300792282727 0.8221439172725776 0.48506046575345496
Ni 4.2153994598023266 7.3771177326330175 10.726203504477498 0.9027284609948646 -0.143141797629218 0.617619088550188
Ni 7.571635354408421 6.627649560123573 11.618431600638683 -1.3775273969213115 -0.6462508933542677 -0.6813989020103103
Ni 7.846726343748711 4.452287166343377 8.304057021542818 -1.178775466126957 -1.0283631029782547 1.2246267201331167
Ni 3.138422476278888 9.316221543144989 12.694282544681045 1.129126435641262 -0.8152911560168024 0.5728453838789231
Ni 0.27849463742357233 5.191224362329405 10.322379305150946 -0.9078081895106171 -0.7727622815156562 0.8739112796528562
Ni 8.838106091253234 2.8605232265323544 5.933969121775326 -1.4582680066054885 -0.8599075091745965 0.4007807325677678
Ni 3.896789551893835 2.9464942894235273 11.698566405458307 -1.1975144372973572 -1.3658743860634155 -0.015087747571057887
Ni 1.2719869626427942 3.735670169949841 12.98248847482764 -0.005266133494945769 0.24435275935260495 -0.05231320758141959
Ni 3.110959877760677 8.823490372320734 8.053429809786927 0.8376348138193251 -0.8212550869097212 1.973792702386072
Ni 5.808649589373797 8.013516952876744 3.742672585508269 -0.1517321104013903 0.39501580505953254 0.5380290475306864
Ni 3.356591486021172 8.809576718489796 3.7382823991913643 -0.6705825281210968 -0.11760842924480391 0.24839221952930127
Ni 3.7670078031195264 3.0482116695925727 7.240549658467903 -0.6086325687808614 -0.8742961737961007 0.26846276502693117
Ni 4.9158142524884045 4.937022089192708 11.860397882005314 1.1754559148354207 1.2312992470572859 -0.8243414391445286
Ni 8.049194624856082 0.08868723423864176 2.834537700045999 -0.005584693176629091 -0.03608363309643463 -2.2865707443906103
Ni 5.047109544208936 0.48373288447710205 1.8085561725359596 -1.0484069090030073 -1.177427950960127 -1.034362000874167
Ni 6.228238341435405 5.970498389605128 0.3492153874722621 0.16418679122497531 0.6583409917495823 1.1645827195663427
Ni 8.373566937234528 0.42940125157199943 11.604405798746066 -0.1417765418505752 -0.6910935035902549 -0.41102940687896955
Ni 9.55702075525188 5.216981945600967 6.169516522213397 -1.1464217323865997 0.9833032345251388 -0.17762389056648764
Ni 7.5097259772707545 6.576170864494814 2.8309352854794168 0.34891669670862485 -0.9852734708776322 -0.17877831588590504
P 8.598957188021442 1.959026047484844 3.8758935415073688 0.32199776083059384 0.12794734927696674 0.8961631490725213
P 2.036854978743626 3.79833631856062 2.1708919714516832 0.42416054494428884 0.3588095303423046 -0.6451072666681277
P 4.783315420593768 1.5683313773303447 8.649298902894815 0.43648229973443536 0.18182430180108042 -0.9113573403144561
P 8.798535149165241 2.3212642867046362 12.644666601003571 -0.4807911489541397 -1.7345266135277548 0.11978769628430982
P 6.72654044442919 8.057664994717774 1.4996128804803932 -0.5402682212738502 0.15280991684660133 -1.3247359641518925
P 1.9189353948671235 3.5195617668692822 6.194884778474094 0.5113862481321773 -0.18415037883109575 -0.288986853122212
P 7.05869017929636 4.184417418047717 6.243726626994131 -0.6552268716006329 0.46583015676893325 -0.08563393322073638
P 2.3752138867817467 8.774519052054695 10.422357934477553 1.5984689764388278 -0.1908100502394585 0.5315424113650781
