# total energy = -340873.8863344229 ev
CRYSTAL
PRIMVEC
9.19908296132740 0.00000000000000 0.00000000000000

0.00000000000000 9.19908296132740 0.00000000000000

0.00000000000000 0.00000000000000 13.46378777145638

PRIMCOORD
 96 1
Ni 9.082778705504674 7.635735398259167 7.4613079113962035 0.6543267283838666 -1.7033537874693763 1.2835900860412024
Ni 7.335063379942166 1.1234471748197095 2.976076198852518 -0.24778338230070876 -0.7932827700665113 1.3296038337671552
Ni 7.808107810045124 6.13641370398305 2.016646828903192 -0.9791177356888815 -1.1589851708739072 1.0592533647992082
Ni 6.747619157280227 3.2609000374798605 3.2137924548395196 0.8930526284679976 1.653824827501313 0.672610614294719
Ni 2.4939725120985394 7.46113680845783 13.124150077837115 -1.2918325285556524 -0.729039643816725 -2.417702662043146
Ni 6.557345330544145 8.149458172097717 3.519447616259545 -0.6421684957547779 -0.7287599077927772 -0.18961705837262183
Ni 2.5710148297795827 2.733746602887362 9.166981589165768 0.40965206691546874 -0.9462081294450542 0.816322168384478
Ni 4.63558336014279 8.219950742890532 5.802555994796274 -0.31653416661286127 -0.5230729404414862 0.02144531435796952
Ni 4.9955342674313306 4.439274935150138 2.2854513849025024 -0.6687498457877321 -0.033966586753431824 -1.7573423258706897
Ni 3.595507471907354 2.3368521794427526 5.117020113400424 -0.1559212087820734 -0.9342339878023136 -1.4676641031084081
Ni 6.728264287262208 3.9638203453776355 6.031197355691651 1.2821543820359405 -0.0714877236273414 -1.277973254075057
Ni 8.695074165685542 1.3774890428889255 1.279992564806235 0.8311499774259299 0.9212234344752587 -1.1171286398494373
Ni 5.537535021514839 1.0437555213187093 10.286454760255541 -0.1889467717784746 0.06503348336156542 -0.8114640689612284
Ni 8.526519373223481 1.8870998267569166 12.43753698385614 -0.5436124551557349 -0.4940289878006524 -1.605407869650506
Ni 3.537746431582665 2.3085374028669614 0.7271598908338403 0.762210731252055 -1.0033303283793429 -1.7974769891080462
Ni 1.9387158798325383 5.907531327120717 7.644698064541752 -0.11706464092619194 2.1762637339032262 -2.4899213502992406
Ni 8.083473151831912 6.366151595537244 5.399382277495056 -0.9128560363471698 0.5884046717697609 -0.11176508309014947
Ni 1.5626941750527992 4.935721831662717 13.366632378575227 1.3997671821561184 1.5413192667007132 0.8808833400953151
Ni 4.936558948189162 5.481880571130325 6.634550471989122 0.04099341169322617 1.1393036332845798 -0.37240655230044895
Ni 0.24310231891264347 2.9288407489625334 7.887301793171612 0.3276963538772679 -1.12617120966768 -1.6357204045911184
Ni 0.5476977460046862 0.11485790687784689 6.044163462768836 2.5387352864781505 2.506613723353257 0.3662564735386531
Ni 2.6858469792258464 4.343181317180445 11.171483789077616 -0.16497252035106424 -0.6785087249467089 1.1458923422456913
Ni 2.749072274679197 4.088339128915617 2.054102733966106 -1.0722610899127856 0.7446729794786078 -0.9013588343408477
Ni 2.8748881288790327 5.594385352651417 5.1111501787243325 1.5899583678646554 -0.9107251060470961 0.45970013261179543
P 6.882781279511579 2.3753595396592115 11.049636419158091 0.09503851436408793 1.3031361264939298 0.17029290412271317
P 1.5254654873327775 2.1931165121273737 5.802852205259477 -1.1076502680453568 -0.885392026598946 0.1849970431021072
P 8.52252697132813 4.820687302396872 3.8178456213310845 -0.49901872770575995 -0.3907904541242754 0.1669116463553061
P 3.7515239146381587 0.6990898098580868 9.158996785375065 -0.9641621428203137 0.7906918694108834 0.34101338270114817
P 6.296054585300879 7.396264877199716 6.866383914584241 -0.33848264585949445 -1.8661336710444956 1.3841999238454807
P 8.260555493964459 4.963098301802274 0.21879466276453743 0.4119303214266841 -1.7296330328808793 -0.6709699933675025
P 4.716838857704181 4.3046187624677374 4.44947211833216 -0.8406399191942361 -0.6185179462153735 1.22201782175536
P 8.88698542914368 8.32371639583885 9.531365534411384 0.571763463668654 0.5493017922310282 0.1278290785315476
Ni 6.021406771965331 5.820995556084829 3.7080748071908634 1.561091307121318 0.3801558572285647 1.606555610101704
Ni 1.8272137983266372 3.3034365959225043 4.026951810187362 -1.2311642641413183 0.2845473292936196 -0.9960515353297427
Ni 8.628279626141415 2.171949422815842 4.938718892809043 -0.060404469229986296 0.8395541423292251 0.11009566580752651
Ni 2.9486647721986707 1.0956659450409931 7.072325618988903 0.8986990281204973 -0.9701240168307034 -0.21700290658474236
Ni 0.8559590075559403 0.6483679076217005 3.563702563352078 -0.002452061084918358 0.8068371117121783 -0.3070866480467163
Ni 5.9384494441029245 5.553725407081243 9.010383764407806 -0.6000170591977085 -0.053233148292527684 -0.3202995471925645
Ni 4.701973140047755 3.081232753106314 6.706070580320443 0.998791559968725 0.48894694529205474 1.983798150338216
Ni 1.8788666477330918 7.742141187944735 9.417421096446459 -0.8110385513880354 1.2852145090185028 -0.34832791408469044
Ni 2.740765502993707 9.20175044216962 4.646648936732465 0.9315939790763053 0.3258186772385808 0.3912041446229263
Ni 6.357734434859255 3.1649904011643315 8.328860522889268 0.6108982248865865 -0.23676157726890834 0.7478894295333764
Ni 6.79279585246012 4.594003506301797 11.510528861003538 0.4049744589341413 -0.30709230447367114 -0.9251006580424779
Ni 1.3457430084629818 0.7222457408511281 8.694550737879446 -0.8460754883875106 -0.1380913796895041 1.3007979652790564
Ni 9.342312425950677 3.6994663055925443 2.008271984005661 -0.6151603425970503 0.9254945510467868 -0.09300605731509144
Ni 7.615727393368867 8.76976151819329 6.008901538931824 -2.5534137144259312 1.2679654921300678 0.3557758857223034
Ni 3.93121879625983 6.15551099968524 0.7631890181687147 0.009817500311054059 -0.8609017547670657 1.7221179554507566
Ni 1.3874700476273054 5.781715472920882 3.3478249297143057 -0.6928773349635551 -0.1149023431675505 -1.63977014918046
Ni 0.26772918323072353 6.792161115753256 0.5636765526688022 0.965682436119582 0.7045470579919996 -0.34502481785338646
Ni 6.597232553166831 8.970844267111488 1.0904454656040985 -0.6663425218978203 -0.28289462418154504 -1.011368111082155
Ni 6.748769042618751 8.101328571368496 9.05082937135088 -0.2502593546450271 -0.5623388279206444 0.19111729706723213
Ni 1.3507657076216504 -0.055558779924349586 11.589668569542047 0.4024637766971456 1.1919814232942696 -0.27626914844522743
Ni 4.1396884085927015 2.208009827031924 2.9340281117016787 1.309025238284855 -0.8141025350253399 0.2852266147488314
Ni 8.29161159718729 3.606951130796335 9.70275916379719 -0.651068112237253 -0.8880903993667156 1.3971994214289423
Ni 3.3913982247781624 6.127095033199659 9.5192347040441 1.4817254662974804 -0.8172824754152183 0.038318950184856586
Ni 8.979758178255718 7.480353692235227 11.484018024546822 0.31207253129708185 -0.42919553626503504 1.7748669650180142
P 1.5974115131934865 2.0071754533468456 2.105843894566559 0.7589623995180865 1.42582736957828 -0.7708439814470209
P 2.1147035311228115 7.37081101534617 1.73864594992051 0.19957185559248855 -0.6753817492819529 1.5405551348411792
P 8.874474676660551 5.035835448775886 8.024053516894936 -0.4539812278501471 0.812091161022266 -1.811381000783648
P 2.4555939390399946 7.947473913074115 7.116957728472472 -0.1749867100539567 0.7501435156748759 -1.136374632563243
P 8.573729065681883 8.462650141980559 4.1766825197036646 0.9478083840526386 -1.1066233694427392 1.2025993080194322
P 3.729832477612261 4.3640172395144825 13.16684394059407 -0.09308653284403968 -1.5236892123237757 -0.17719477344886903
P 3.4023451332009014 0.15321164241307947 12.929422975162 1.679998143462571 1.4380632495228394 -0.9805742656297499
P 0.935795086655459 2.125080096417643 10.787953792991456 0.5441197338094564 0.4809765254920684 0.17732075750377202
Ni 4.468518819079455 5.9429201982991025 11.566847485159583 -0.1229954045883301 -1.3062170794120989 1.1618995163072248
Ni 3.8505888363225953 7.095326085484176 3.3334182462850186 -0.47671260800939186 -0.07043202866931741 0.019019478525296275
Ni 1.6549241782850543 0.36395618789968487 0.6312741721333526 -0.7075670757652459 -0.6693450561695699 1.1042296723995821
Ni 6.986215765482402 8.783477350511191 11.616421341873988 -0.255337797609199 0.46336832549200196 0.05781665389815205
Ni 1.3330022789121467 2.7037759914240977 13.314554531547653 0.004561394118437306 -0.691115615077442 -0.22905469554295388
Ni 4.201460248978159 8.945289215348152 1.8556601217851552 -0.30598441612147304 0.2570725209121185 -0.6705115656738453
Ni 1.3256522118283076 4.732219723992265 9.341054911344468 -1.1425974735445033 -0.5700829906424375 1.656478463074076
Ni 9.263292305487374 4.4738082916366615 11.736921966085035 -0.22835638392434865 -0.09554013659085482 -0.44029601705357074
Ni 6.010082701151555 3.9115787546778567 0.027660721795239214 -0.6770365112765565 -0.4885551091702747 1.0812062149212154
Ni 1.277697393670543 7.362798614307341 5.026758713867721 -0.2222818955954946 -0.39635046471055607 0.6703429013064648
Ni 5.672513162092027 0.9185044907971559 7.749985245770003 0.049681683495843475 0.3092972825447899 -0.8395474574610058
Ni 8.143552360999063 0.7884202622207225 8.344357297619476 0.3651930652711452 -0.6595602088686641 2.1008105978702334
Ni 0.636368624137145 4.795877376332901 5.625210558898273 -0.6783850548846511 -0.38851579915748574 0.5940009349106157
Ni 5.597476244441367 1.4027957194191405 12.77209842287009 -0.09178992551980321 -0.03492920777701726 -0.020663956107254734
Ni 7.127026124496579 6.702700036416164 12.977448626256617 0.025053086313885885 -0.13801090416055586 0.6600003817298763
Ni 2.350246043865869 3.765110959798147 7.019964440213918 -0.18980526312402796 -0.42657069704767825 -1.2404536598630442
Ni 8.613699080048944 8.416084385311729 2.109506049392687 1.198316621483678 -1.0297859514677103 -0.42355119349506404
Ni 3.1496647293724966 1.7204952398289917 11.431751596323732 0.16541629275670222 0.18715291310284543 -0.14770807684366175
Ni 4.526988188772675 8.15024929321062 8.20195089775543 -1.317626349690305 -1.8624706203706118 -0.23224492034547745
Ni 4.966069605517017 7.790739941892072 12.917238790115011 0.4031127231350541 1.6472692857709825 0.6975670271297405
Ni 8.226988041162294 6.132182125937285 9.821092484122188 0.2438107708062059 -0.8708208136529906 -1.075220943872058
Ni 6.148712877563892 1.6023422215250733 5.013469718987478 -0.679700688372281 -0.15769809817683808 0.7979367238987549
Ni 4.7665415015765005 3.4663615497671554 10.244016631997876 0.38878499365847236 0.36126107720659073 0.06831523943663072
Ni 4.447508114173963 8.168665856792405 10.622712510120884 -0.3566649731954761 0.1192279671260979 -0.2930394259250308
P 3.8596223355420323 4.400381213459935 8.330570632364719 1.738215889453884 0.03308007038342045 1.0542281436704748
P 7.5622623246689 1.8641297172345805 6.824767264412414 -1.508547728696647 2.35720717576125 -2.369109069405159
P 5.690138604560907 6.833225820962591 1.7196084482559229 0.3837523163305714 0.5771003025005351 0.1675816758391372
P 1.5643224126921478 6.353861621039109 11.037788000629948 0.8454800208953568 -1.5306283626457704 0.9342427295530621
P 4.8447613018441915 0.10593019710955406 3.9870581482067795 -1.3362269955106276 1.4375006921511502 -0.7770405971760359
P 8.517255896936339 8.685534716917154 13.331438527950255 0.00079652775936637 1.1994399364548438 -0.5135498314423994
P 6.349620843910636 6.62444343981764 10.912615162311415 -0.13254139640555238 1.8526145535121386 -0.40390205180556893
P 6.179437813809228 2.052664917338817 1.3461431685607879 -0.45364004246064454 0.3034099705260775 0.3715526889405859
