# total energy = -340895.8415477889 ev
CRYSTAL
PRIMVEC
9.02686120661267 0.00000000000000 0.00000000000000

0.00000000000000 9.02686120661267 0.00000000000000

0.00000000000000 0.00000000000000 13.21172382499800

PRIMCOORD
 96 1
Ni 6.3695697150153565 1.9327502200203692 11.425551530565754 0.46967472732600396 0.8070913938148294 -0.540569554564353
Ni 4.734814227929364 0.3005529453211942 6.045076631828682 -0.43027951335783315 -0.32906366653843977 -0.25101705874665803
Ni 2.7541584569674367 1.6938362918556364 4.8877301547251255 0.45780111581686966 -1.1464798393180449 -0.6048299072053196
Ni 3.418715958440502 4.336684526727659 4.899448825581038 0.08170837291408509 0.10662364809852604 -0.6778775191206132
Ni 5.036320409764489 4.520299904851316 2.4667738963670915 -0.7187328625740784 -0.8524258560855706 0.4616150902463211
Ni 7.157795211193407 6.0460018850737365 2.6887046883830683 0.1095621619015597 0.5026426976115924 -0.6451072666681277
Ni 5.150898355515611 4.2597395641827465 11.711677746752823 1.0101771760978475 1.8332335778823652 -0.4320034380274753
Ni 5.355880313454357 7.727841478756897 12.610233147929575 0.3931219304709294 0.07866418677112258 -0.4445319095117892
Ni 1.8946297863240806 6.507680687204135 0.206020949631485 -0.3543324684075575 -0.543231160556916 1.1745141197474418
Ni 2.7578233625039488 1.6968963977100153 0.3840929324596434 -0.5230431156448153 -0.7385645525880248 0.17834714188575737
Ni 0.8160634325919708 9.012436003609233 4.718051347187236 -0.9488892758216433 -0.12160829443281637 -0.15323286331663288
Ni 8.545458434114469 2.3848876301505366 1.5328900695788865 1.0503843444443524 -0.06537852540580998 -0.4063438284778421
Ni 6.898399335584469 0.6634697647313175 4.708446767160513 -0.779906091649289 -0.6947835508473325 -0.007522790739606398
Ni 0.9079126452140652 7.361883509900342 2.537681694323777 0.028652630739686137 0.23571616672352952 -0.35656855682692784
Ni 7.651546450198755 3.870763099961396 3.8159817890514582 0.14983335071678067 -0.49821937173291614 0.838748101488162
Ni 7.471198795730808 3.8473835301595045 12.91267631792896 1.7233960508322317 -1.1319783032677602 -1.8012513685488143
Ni 7.857051966071287 8.650016564236209 6.896110123653288 0.06076725188604373 -0.016676946435048697 0.18085448168864335
Ni 6.846558073278576 0.7870231183025249 0.3217805114780002 0.13711796003264126 -0.6629522652693486 0.06884540090848788
Ni 1.67432021853066 6.626040887683827 9.155064017006069 1.922213544757199 0.16172855949246986 0.8979189554213632
Ni 9.04699082723921 5.107939524362252 1.3860943544918838 0.061936846714112676 -0.9673976190384758 -0.03852669532028848
Ni 6.328199611385215 2.0386804330030697 6.878406644002528 0.841469357074067 -0.6012020806447453 0.5668773392209463
Ni 3.292087153351339 4.191884650591698 0.6069489777206756 0.680332665529325 -0.07625454888836544 -0.42391089082732797
Ni 5.835694079187843 5.698007369462651 4.782696309032512 0.14778778104166163 -0.4244333389897013 -0.3489084691785088
Ni 5.682363819475516 3.1586701488447932 8.858553300008152 -0.9555360917141995 -0.8809000522658637 0.6197415342098295
P 0.08377017209209722 5.564075833883245 12.474205575242832 0.33914804735763526 0.05078622941393189 -1.406936703321364
P 3.9633155050497324 5.889087961573243 12.684165846983023 0.246204210739047 0.6520754704558448 -0.3321500187732473
P 2.4167524492241568 8.472431129212035 1.3082259440741018 0.03587305974752532 0.38910381045047177 0.7435494073971259
P 6.507301559045186 7.543937241083564 5.672017231480564 -2.3651279732702237 1.4447514601762925 -0.0760840847487722
P 4.62453306797967 1.0851550595229982 12.634054131230814 0.6023418506761433 -0.708446907267038 -0.1625130030669782
P 4.002862182772546 6.083174498372651 8.276550052460268 -0.6103081567110715 -0.0662958950137568 -0.10491592137879996
P 4.775805203400557 0.9920159084743824 3.8107895386460346 0.2158878191436927 0.43751202655053034 0.3544371123062218
P 0.23212121531688604 5.554128233141281 3.573427327874717 0.020345139315255285 0.05801642861378395 0.9226984763588882
Ni 1.528473226527124 1.0645828434695193 2.6242574147921016 -0.6514260097973038 0.6886622684409431 -0.47776547475393855
Ni 2.009812531757337 6.490619920051404 4.811406240212016 -0.6234323527978554 -0.21673114098059448 -0.6539469764469447
Ni 5.978192105787325 5.624203754520464 9.242327584277058 -0.4584372067389718 -0.20049925250276437 -0.324963271216821
Ni 8.601018763122438 2.1903226697219784 10.002345042743169 -0.41820715557433136 0.9104137454542642 -0.058533991680150804
Ni 2.3819448734882136 5.238973437583972 6.963661734717177 -0.5389284194165042 -0.13132629305152868 0.9847517940462072
Ni 0.4808563681705987 8.98638448297284 9.298450286720804 0.21281149421121412 0.062259520160854065 -0.7486928992712782
Ni 1.4363450839023737 1.325946574760624 11.262611274710146 0.3233884705305334 -0.9115889967092881 1.1642582463473885
Ni 4.063116479462749 6.82519149346349 1.5912072019140753 0.13560409449127614 0.516054600142124 -1.4567099180897491
Ni 5.482635494596503 7.662017608874506 7.839466738298675 0.8870866406925497 0.8089618713646649 0.7522250807942529
Ni 5.3857231156802445 2.9636899528135765 4.905843453861988 -0.29441599455758327 -0.4809785823745974 -1.2386207204193636
Ni 0.8321628390559372 7.405763080868293 6.8791062257243984 0.05269784461434795 -0.13503613780294807 -0.03873058380097846
Ni 4.992819966955487 4.627584146973122 6.84420115989044 0.1597999750111893 0.12129436273682336 0.8656081591037995
Ni 8.09260790197104 6.972230031109438 9.248272674883825 -0.35712031556533974 1.44053973608779 0.38660572661896647
Ni 4.772203485890536 0.31001941437572833 10.572800227106667 -1.2771265898040456 -0.5088244009422721 -0.7626910133225833
Ni 8.20272657842404 7.258417629950814 4.462576739965148 0.6268485775682558 0.2882646302442068 0.5317393578672326
Ni 7.317624810773441 6.129446187486356 7.039523473950805 0.2310897236951117 -0.9343216624201135 0.00015272352778038212
Ni 2.2270349131135965 5.177049171622206 2.624125622622562 0.015328402826954248 -0.3574121357741457 -0.33567114455262836
Ni 2.258764329273306 5.272038829160932 11.301202910546843 -0.4807461546488172 -0.6335974662563153 0.4150606395255497
Ni 1.0453195222505092 3.4629024426799844 3.9900061274397833 0.4972780908655694 -0.7809216773979971 -1.2235987930892347
Ni 3.498639785091447 2.5724658002213094 2.797027922197615 0.33070248769344335 0.6915277629141962 -0.7077439676627424
Ni 1.0841530779600599 3.380017805644862 8.078625294394541 0.21481926866986228 -0.22547803393528912 0.5143373603407013
Ni 3.7376349550045256 2.5653887412542504 6.900786940299759 0.01576883279848252 0.158901631566636 0.983777860168712
Ni 3.98801299654702 6.851360363291938 6.123092180079579 0.7010398161696895 0.22067804144348446 -0.452963070998278
Ni 0.7836425588852244 7.535921388580059 11.397159344890891 -0.37563174410596595 -0.5679188931115832 -0.006907525753110684
P 0.2539310140035075 5.606312516162414 8.097610588296988 -0.5871970246149049 -1.3656159901957061 -1.7830374166439487
P 8.497444560841782 1.4001112641399056 7.821366979453204 -0.13236064785331397 1.4196839756847035 0.9646622223851837
P 1.7908028319374576 3.2915997028612614 10.340512014862624 -0.3140656504677108 0.28397191640612385 -0.08486414493424739
P 3.9944491483882354 6.042707080835246 3.5468982862952654 -0.3900602608264701 0.7571076056975348 2.1829570867630017
P 6.925434784061945 3.8633430202790966 10.446840312412222 0.6491531546027272 0.49295272401733814 -0.44012169625923553
P 6.237687276866464 7.688953761881782 10.441700417800176 -0.2207744578120327 -0.1350561924076061 -1.192439593877611
P 2.5454754860484696 8.475094053185611 5.843109645439679 0.47839513791813737 0.046339763606804064 0.19372208167993088
P 6.978982123083112 3.9829850350104743 1.801511397055598 -0.004186013056889565 0.39511864918598405 -0.7969098252961372
Ni 5.432211449456206 2.808455025445574 0.4122928459967509 -0.9736366579696524 0.47428780061798315 0.7899125680426976
Ni 1.4947940084071019 1.036048936078099 6.927580468904382 -0.4954348670092435 0.5461401066735949 0.6274864682625709
Ni 6.83809990458963 0.5766873291477566 9.141812585164688 -0.8121261280252594 -0.07826797977396843 -0.5863647585215965
Ni 2.6095932792155874 1.619021668489584 9.158472559692244 0.9300376903327788 -0.15728492189881946 -0.026399315929135178
Ni 6.398338320790888 2.0543961978776233 2.5088796891628142 -0.7014226534304049 -0.9593094427137029 1.4786005475152537
Ni 4.018948048945121 6.6483913953399965 10.526995226702907 0.6020348609586857 1.0075754768089422 -0.3611893434283909
Ni 8.093203674792244 7.331905304760542 0.005697754617356684 -0.9756410899941907 -0.3299455549227608 0.8412374435689189
Ni 7.785116911341067 3.847473798768778 8.100027981653337 0.0914993908625779 -0.006733976289723887 -0.3259035236429032
Ni 3.0179052795433674 8.319317514161966 12.395198877662109 0.48643934837885255 0.9124955676839577 -0.24196214763324136
Ni 9.050962646047253 4.836303225335799 10.216651748019887 0.01623908756668171 -0.967193730557786 0.30381003417797353
Ni 8.572836903307184 2.2582317444785915 5.686100939899449 0.3201720204757647 0.3309349154192236 0.7539546618908498
Ni 3.694784446182295 2.694346476462675 11.482282643436001 -1.6501746323432356 -1.1001202782168988 -0.5163091393550914
Ni 1.0532451061447412 3.466820100322463 12.674389756598679 -0.4926950994805772 0.07096013325864553 -0.5906081071789827
Ni 3.0499867432792445 8.452860894721494 8.137086856504567 0.9210262308627881 -0.3967078480499749 -0.21240705968394388
Ni 5.529123828372463 7.783356673460229 3.3985968908055773 0.21732532292116766 0.654863317613627 0.9126362070268798
Ni 3.0696833538227684 8.397029759885704 3.5564369702372187 0.5860109747266036 0.026074328489548642 0.07025282277897578
Ni 3.6263698672137488 4.16121137716049 9.437688713839412 -0.3733488616090602 0.5299218450425196 -0.5718516525070861
Ni 7.10610740552328 5.945614164700442 11.324164536687798 0.6208455659072857 -0.5010725249109952 1.5271231777059895
Ni 0.5276931387783568 0.052229417325769606 0.35188599535687576 0.5899838433314226 0.645533812682585 -0.24660247461873014
Ni 4.622113869251136 0.4549682337169909 1.62949463253752 -0.3871477151653655 -0.6471703198447435 -0.2659315139646452
Ni 6.138229323168688 5.484305463868066 0.4985029785975166 -1.2336415220372172 2.1008100836496015 -0.5190404222433255
Ni 7.839774554256299 8.933216272110624 11.24859346237603 0.497717235285517 -0.0076464608016642505 0.3572704679899589
Ni 9.088424118895844 4.793452716513567 5.778424965406322 0.17232973204708385 0.5282287736108128 0.7428814347958238
Ni 8.070618468751961 -0.18325791443093314 2.358860482038647 -0.42229855203488564 0.050060149881184755 0.22008077417911773
P 8.542001146379285 1.525503389282019 3.634030061396716 0.31359179615508576 0.5208607632815159 -0.43480336937011577
P 1.6004985498666184 3.2255952957603236 1.5748369896222878 0.5477830415936565 -0.3211364412715631 1.2560656553686886
P 4.696152182577434 1.1976207198171158 8.37331258548513 0.4545360719123526 -0.7556829574358663 -0.4976383024184655
P 8.59146834426128 1.689963768517794 12.388514487145391 -0.6568893469047203 0.27852272036609454 0.27969000120131826
P 6.32275641424601 7.8678480917404245 1.3421127799954533 0.4982625662660257 -0.8589415457169014 0.5330673326500368
P 1.8105445767856183 3.2645642543837847 6.032340633746253 -0.1790174284799046 -0.1433045484593274 0.08911494979080137
P 6.946295859665101 4.089565181979945 5.989601155313429 0.1036167429514022 -0.3147189677809935 0.12061816260540517
P 2.434165263953056 8.4384179172377 10.292949484636306 -0.12325585733856838 0.9188893870254432 -0.4550837168857066
