# total energy = -340856.78679005516 ev
CRYSTAL
PRIMVEC
9.39572572172099 0.00000000000000 0.00000000000000
0.00000000000000 9.39572572172099 0.00000000000000
0.00000000000000 0.00000000000000 13.75159432824493
PRIMCOORD
 96 1
Ni 4.775208356209915 3.740438316767081 10.089530286904763 3.278686177890741 3.7680768955884334 -2.053977953787411
Ni 8.379577776459989 3.0749672676295225 9.068502435560656 0.28845154944403223 0.14125435079851803 1.2806808828142071
Ni 1.7885327209909934 7.468511858791974 11.52294216735185 -2.942863852472229 -1.0276336810113977 2.155739131587313
Ni 7.323676750394674 5.357499047602337 8.020836762885562 2.374498615851846 -0.634884560498855 -3.0380720596449615
Ni 3.839957841135825 8.356370334504664 11.4737527257046 0.854328215314606 0.2446705477033399 0.9417896886623845
Ni 0.5489236514669383 7.542653528617668 14.065130458620441 -0.6890769873808584 0.8335279907398032 -1.5638614136672875
Ni 3.3185514509055505 8.638063580359962 7.460033156111614 1.269735182435981 -0.5007295397492796 0.6680080825257011
Ni 0.25617445542992834 0.981712377612179 11.984225310184506 0.5853491727728887 -0.10883171149343836 -2.645502916353708
Ni 1.859442261248821 0.6320683054552207 6.378484618181748 0.731924678674004 0.9701921510644775 -1.3765663185596229
Ni 8.336789642587702 3.3583987227000973 12.241847646912133 -2.8244676372188064 -0.7751768044944198 1.066241623191583
Ni 9.58147898088311 0.7704739189010907 0.3858862040817652 -0.38247884893478645 -2.1374984402095705 2.2136483451992714
Ni 2.507643966939462 2.6917813950530047 4.30530745395968 -0.8400472799155597 0.11530497792260785 0.30829763763568196
Ni 6.213646949793076 2.7917331227941955 0.6005277945646018 -1.5577236762006657 -1.784246349350385 -0.39839963393010097
Ni 1.11319616009105 0.9424100578959351 9.649576380502385 0.5947920633533434 0.9242552793230469 0.6416162227957336
Ni 5.3979946244555554 8.285564147227204 9.459886078625443 -0.9424221800400608 -0.32483703005160186 1.5669153700022629
Ni 6.26413957856551 3.3175461082783357 8.521628931395197 -1.2526026365207525 -1.2862072119490753 -1.1998628829248754
Ni 3.577328522295651 3.6378933687912056 7.54266668263335 1.2353669893687564 0.6933977262433995 -0.46631275283230655
Ni 7.343924538821284 -0.05632925344557148 7.586712904148479 0.3856258792042004 1.0970424106225234 0.8876065177517617
Ni 3.147812327337875 7.877517185009476 3.1195490454974655 1.3762243618391719 1.0376764099593807 -0.40330247054835705
Ni 0.6391658364888452 5.272486523387043 13.26767577440805 -0.15067564411241793 -0.01597477816170152 -0.18052332360146972
Ni 6.812276807809105 4.4518920464428415 5.330777604314506 0.3386986185250425 0.337132045368871 0.5454240544431768
Ni 3.120498953344301 6.439952393896698 13.15939567559431 0.21259475021471774 -1.015254847731071 0.5009110596324664
Ni 8.473713550124117 2.1601806426682653 5.108470041406021 -0.39339395318539344 0.01944191077469555 -0.18313864973712976
Ni 9.156284819649809 -0.11260870954605663 5.920116029395465 -1.1592790479652422 -1.1315450723850837 -1.2783365509517468
P 8.07325833410068 2.7419545691588474 1.8717018038655446 0.47030593315209973 -0.9151090940474046 0.6199719050530806
P 1.9294686033107782 5.509803757762584 9.524546521861211 2.271979733950313 1.5427814530685364 -0.7095411687724813
P 6.007796000076799 4.5665856674746825 2.1178829656664515 -1.4327629203558487 0.9735019321640009 0.7333069037335113
P 3.936038529975966 2.554829300340126 2.300820559635178 -0.19576379470030802 0.2569483366294284 0.6864704029959467
P 0.3260589220370167 4.290398316755344 3.9641721508046417 2.089011805463093 -1.2284766900068262 1.314371333088117
P 0.8152126053846832 3.2559477319791017 11.852609047976253 3.3030597216390984 -1.4564121843436726 -0.09393576821821242
P 8.26883975585859 8.83546777286254 3.8715133851872245 -0.011766910727941024 0.15075920496515974 0.1626875809716295
P 2.0194514663092167 6.157385345571018 1.409882165107526 -1.6331675562622778 0.11817278638870617 -1.3176618309139307
Ni 7.396211751161924 6.329627785216771 13.221319143995428 -0.2751095809194875 2.074300981615479 -1.432352058070675
Ni 4.3028946316543655 5.84164199054726 11.116705761435657 -0.24454019277306271 0.8497321113034914 -0.13197498237912111
Ni 5.0696046229249685 7.935535789897787 13.783360167816143 0.2366913861526053 -0.3929126426736007 -1.326154184655658
Ni 1.7817584029141558 3.446399087620571 2.23616011639941 2.5497223816172734 -1.5341379184609256 1.9131347223843826
Ni 3.58568132225447 2.975344390280411 0.13947390743385396 0.11301206812337312 1.1577800948222126 -0.5255777091412109
Ni 2.5557688728889243 1.43373133511368 11.85047715786303 0.29303685482186953 0.4328830124189512 0.21944262637448655
Ni 2.6444645214955087 8.111179482170192 0.9207491523559331 2.5275743847653245 0.9033524677321086 1.2868484450775
Ni 7.39758352708317 0.6639949806633959 1.497012485847812 -0.4333236995007957 -0.26770248982213896 0.21176994032057725
Ni 0.9982206672945698 2.8256235046293594 0.26111378831896237 -0.2756238015517447 0.7137402944554934 -1.7562485785858786
Ni 0.7677360044938918 8.571692175512831 8.014291700510631 -0.9647648094013191 -0.9548917732619813 -0.8571024356256336
Ni 9.288219596952104 1.546714934106707 7.696368537173662 0.1437784027719524 0.12552202766492576 -1.431574299364386
Ni 4.917628763156801 5.774913548131586 6.154265025136457 -0.5790849370307316 0.807292711192358 0.9033473255257861
Ni 0.09266346348016072 4.525516951366697 1.7224563419241856 -1.7959322703287457 1.3851476324707306 -0.33861531478261686
Ni 7.676899654390007 8.516529871172866 12.663100301303226 0.029387709133497773 0.6321787315319177 0.5374821738882807
Ni 6.3053116476538635 7.163940021373431 1.8633405477537863 0.9634664023048698 -0.910844919454412 -0.5971497649522425
Ni 4.300883946399937 1.3327836604707624 4.389206584704648 0.7359163163319004 -1.0369930107391108 -0.9814607819997612
Ni 9.733032033004319 4.549447864184597 10.247069355734366 -2.714808801838383 0.06440176331483748 0.8947991788454589
Ni 2.342805358978242 4.644889643691554 11.664267032706839 1.0671065422950397 0.6288177854794847 -0.07129874754498688
Ni 1.3037414729873986 3.7021883183054918 8.218777451313503 -1.5230358950104932 1.648172257201226 0.49277506078889327
Ni 6.012926066193239 8.709179826578525 3.7164510295962536 -0.15295287018236883 1.4956701014030305 -2.611757444472147
Ni 6.601681016721394 2.3595861246997845 3.6956723826795734 -0.13869687448398693 0.9772305459684978 -1.968446093362178
Ni 6.299730586714 7.379167905126718 7.691871742955112 -0.5631780359924882 -1.0223860594592136 -2.192216657688057
Ni 2.7015529495605097 7.7298633589657815 5.348696192392643 0.07449848542920717 -0.06433748573580533 0.9974972666373336
Ni 0.5354802474387285 1.4445176279738874 2.7522024869485935 -0.9605356018113199 -0.5233267083235051 0.8953632788790451
P 0.017916708933039805 8.55103097516475 10.078681042683787 1.6873702675569262 -0.7611833184288053 0.04335214173338985
P 5.385874138576053 2.9042281440618476 5.4967737656558455 -0.4375487933257367 -1.5182091630458112 1.2550112459622451
P 4.910093391315438 9.119932757736793 1.8416824609314304 -0.2876938453424013 -0.29983459446999333 -0.2866785167040095
P 2.6205899830305377 5.605433451779302 5.722134939347925 0.7003713293477551 -0.9082846149264034 -0.05311924842248271
P 8.015521600977008 3.583426348137353 6.984971181850829 1.0312597077997594 -1.1683324164167619 -0.28978980863948156
P 1.7624971656637853 -0.026681981240781603 4.1350634851252215 -0.1134643251694433 1.031038592927889 -0.04516579790336092
P 2.2542694377049535 1.9369569965247027 8.017427054105973 1.606303384881582 -1.8444906388534232 0.007814096727780091
P 8.68787971689726 6.887931189438365 6.996164309624667 -2.112338910224807 1.564842546633634 0.1669486702408286
Ni 0.7539740853716392 3.24527418782475 5.902802526038754 1.3526758850952703 1.4445460290337058 0.6640575825183854
Ni 6.909165529041212 7.121039138795288 5.220476484948298 1.8052571472740975 0.1940946345280012 1.4263577881604532
Ni 8.064473330769413 5.304225284085459 3.5108368521622735 -2.266789705108941 1.8669438256506172 -1.06665557080055
Ni 4.580049742098965 0.9119096538168361 13.289375202422553 -1.0701730970355052 0.09774537177228973 1.629290589805375
Ni 6.422344804332213 4.489860173139792 11.884113855110018 -0.8942242801785953 0.45785150943883085 -0.4390647157496309
Ni 0.23808768386555598 6.701717305991978 5.083194600270792 -0.09387380463202542 0.2557198635389661 -0.9374021011176501
Ni 2.921704193469501 2.900808099984221 10.073964388488816 -4.879569420198016 -0.2771052711932776 -1.769524469759178
Ni 7.468878292086005 4.563175019122544 0.5374261021872904 1.8534542758046142 -1.325612196109259 0.8144689172258232
Ni 2.0600316046918263 5.775458500209889 3.55629994908099 -0.4444118389941572 -0.5923348600621025 1.3390266697429518
Ni 7.824215234316133 0.529134374444143 10.288200083630574 0.7133091204553458 0.7204318475430561 -0.12149773699688106
Ni 8.295448450440565 7.065190946494702 10.987165954560252 0.07599101081433365 -1.3898599503447353 -0.2647423787525505
Ni 0.7552274751517366 7.899258893788674 2.7783855551659635 -1.072387588188321 0.0978286755147154 0.1703417550827776
Ni 3.861708945640512 0.8106133977583142 9.75128322976473 0.2767286045801492 -0.6395238590430792 -0.8606518435397889
Ni 5.198354249286836 6.65552791949304 3.8281549307778175 -1.644301718502226 -2.186894731254511 -0.03586894598246726
Ni 4.335629339254507 4.387362203791356 4.457703302657161 -1.3284064710249444 -0.06306273278843978 -1.6146808103119998
Ni 6.366186553090523 5.924127064606286 9.773601836088892 -1.3373482535992645 -0.04110911133548404 2.1397463557034824
Ni 5.278405830444473 5.311572741417063 0.06557088903555415 -1.1473385877739142 -0.01404413679789194 0.29908537500879456
Ni 2.3841653425763547 7.990077976355544 9.590718737327997 1.0038460916734968 -0.07320470631844812 -2.194560475329885
Ni 2.465081330478887 1.0983415180945448 1.3533931843286586 0.747504535390132 -0.09305182295136233 0.023209091126611642
Ni 3.512281914742326 4.900998329043066 1.908927668248944 3.571943376253533 -0.8097833388246957 -0.1224269336793698
Ni 1.1270736466368048 5.986589847650415 7.280726070471446 1.6215009185576266 -0.5038997099471451 0.9391116276095891
Ni 4.518441970074243 1.2930397416565829 6.81870066532524 0.1884294658224239 0.22845691405795493 0.5447892490726554
Ni 6.712569368930601 0.7165621856235781 5.285699732140797 -0.15223476106942171 -0.5117112355717639 2.024830385689177
Ni 5.816273531729699 0.29264114519389817 11.595233818828962 1.0709930218336392 0.14437129916094493 -1.219286538867126
P 7.730427102495061 1.2046635477165901 12.763706911110928 -1.9186649081739926 1.1780367881887195 0.6690691768003638
P 2.1123376084834424 9.198095798071344 13.079292417946489 -1.2482947531740178 0.41473539497564704 -1.3595705553325748
P 4.9382429848774425 8.644715754005455 5.622724405394841 -0.3256003905801877 -0.4639627645428913 1.105359158018335
P 4.371427053363732 2.6716651467832273 11.64076550454374 0.46224012542482973 -2.160794948843666 4.375310270028923
P 6.018676250191886 0.9187967205995295 9.258247232645429 -0.16539520971077967 1.0960407088308866 -1.1625834297481268
P 4.72098562441875 5.611869523738572 8.306334337990945 0.934980636160351 -0.37150332375988926 0.7327538594435187
P 6.007241652273008 7.12275855655959 11.52606342735896 0.25075223512104555 1.1846748623305274 0.975199888691714
P 8.494186835962436 6.52082140317179 1.3847720887408843 -1.3795955923042498 -0.029572828561110362 0.9829134552858878
