# total energy = -340887.7844027432 ev
CRYSTAL
PRIMVEC
9.11502563767867 0.00000000000000 0.00000000000000

0.00000000000000 9.11502563767867 0.00000000000000

0.00000000000000 0.00000000000000 13.34076138165777

PRIMCOORD
 96 1
Ni 6.378275591879919 2.2768148881877193 11.301732946089254 1.8622644178970769 -0.6705809854591999 1.5230937448316222
Ni 4.807200672276723 0.3972647162555676 6.03043801319631 0.01428556338473669 0.12439074227395996 -0.24963766190062814
Ni 3.2990741191530653 1.8678966117606937 4.494502428608357 -0.3197521593295267 -0.5871535729714791 0.15981308763731186
Ni 3.583873092604147 4.40052469213611 4.841122239877882 0.9044400443693327 0.22257962934157152 -0.36240316123083394
Ni 3.992153317242356 3.33646395397772 2.514186560673505 0.16674118221571282 -1.0877383596127783 0.23558786867578135
Ni 5.868754778407619 4.7169892643636055 2.8845929426301145 -0.20188122045195553 -0.028498621660325112 -0.569176162557452
Ni 5.617025117668348 3.323985483993578 0.6062959512872294 -0.5778032421048306 -0.22547237750833427 -1.1676739568971568
Ni 5.689899746976763 8.241131594508962 12.426478789881994 -0.10070651128314269 0.48754492273820554 -0.20649686484709598
Ni 2.3752024740232445 6.79169669093088 0.12927749593724897 -2.206916682902393 -1.0853096955666277 0.927114603148713
Ni 0.7315774200213753 0.3736932601715703 13.444152251490861 0.1964425659348875 -0.6385411834148359 0.4790052606983105
Ni 8.238743457813676 0.013629697711678736 6.588201922421035 0.6316686246647185 -0.5085294954096725 1.295704352806233
Ni 0.02265175000554593 2.7930443604681483 1.6037996843490456 0.43542789032799206 -1.143955016013662 -0.8998753078167857
Ni 7.170435117746879 0.7913619611309383 4.734223043179543 -0.2554879500338181 1.1365255563188104 -1.62268285468087
Ni 0.7662856143278892 7.647150954248448 1.9848250710766744 0.3540481043979193 -0.3339323074846507 1.088181360687468
Ni 7.975237184057962 3.9620828479379835 3.986285975292909 -0.057781172674526295 1.0213504191058476 -0.42206561008847315
Ni 7.921540568516264 4.159605451704504 12.483723884872067 -0.527957265116981 -1.197222359978235 -0.04576872159468247
Ni 8.369644339802186 7.43534510543799 9.041634103265975 0.03337111926127802 -0.3937986448229799 -0.5478861428304241
Ni 7.097642523668455 1.0190598569957083 0.2630541684882106 0.034377963259237566 0.18089664778048847 -0.8674094739785965
Ni 1.9398232784114373 6.923609340755941 9.124800507928002 1.1640402167993116 0.206660901228786 0.6797451684569713
Ni 0.4871789743356076 5.035896663439713 1.008870169928307 -0.48677462023108425 1.36245250486606 -0.027466580851384953
Ni 6.36449367324148 2.0299799961712273 7.010303260307568 1.5171791791194 -0.3118377895784565 1.0677122941998385
Ni 3.5883212250747545 4.834837429758038 0.2457529384831699 1.3149125503035677 -1.803318535490488 0.24789265418506345
Ni 6.344859908197037 5.896200120352289 4.91932551312547 -0.8787758068340091 -0.8060333848639604 -0.647949106992297
Ni 5.4294743518584765 2.9838583054265393 9.356049617748814 -0.5758620592180598 0.9886418731292329 -1.1819474360970355
P 0.1403786855601029 5.664669356241842 11.91225918073634 3.247225645388614 -0.022329773845451862 2.2338883263952303
P 4.3256356421801465 6.219674147231213 12.284720089452938 0.06604726933806045 2.348239167934685 -0.3713279745242895
P 2.6534659741517324 8.70583382732967 1.2154476400806908 -0.5566222371518413 -0.1898705691443246 0.11446037053412544
P 6.532784390054645 8.031568041984915 5.605147327868249 -1.9695334128890856 0.029532205131162042 3.309259422691907
P 4.9422397758669865 1.4497903895747084 12.687931448380278 0.13220920987711424 -0.5545118756770578 0.05284825414928318
P 4.263781078767152 6.601046816432469 8.06294287144614 -0.5578185714527877 -0.7648610243907086 -0.027920894779984173
P 5.142651842734291 1.2886731978729542 3.398171765479288 -0.16788635156374956 -0.3571198013447075 0.33794811351226317
P 0.27967268307921755 5.903246035105935 3.6422274862042054 0.43081815947012253 -0.6727504823066931 -1.1262961652813184
Ni 0.6290598161070959 8.882163996681925 4.335080631659744 0.48400734189859224 1.4906153125879427 -0.07640238732013939
Ni 1.9517275017856448 6.825112374613762 4.730433927056527 -0.05192677077627831 -0.6915812418599508 -1.326084250649671
Ni 6.112663747221109 5.806243933154699 9.132057891274515 1.2315144483918856 -0.5947943773461886 0.26186917096981355
Ni 8.832514452486436 2.5456716819439396 10.230816797211308 0.6962938168442718 -0.2158335688669896 -0.3941624559203018
Ni 2.5175427130826806 5.421544279626041 6.8408886608435315 0.44747222308703577 -0.4234781741652836 0.7530221227742515
Ni 0.6191280842628872 0.14862596068183564 9.217452008182066 0.7509639546936422 0.8291820550662817 0.018239662936478267
Ni 1.8255664330854873 1.6299944447876349 11.34242150866209 -0.5886903213309796 -1.3384453433181853 0.04671051668266149
Ni 4.3055734709346405 7.241796652813242 1.5120286955635494 0.8620533518730058 -1.4440906866638419 0.3729151165057513
Ni 6.08558300629862 7.996803334519964 8.026402557003166 -1.0457311619430572 1.1104070048548875 -0.2508725627489937
Ni 5.761407122451999 2.7302053742952648 4.898140370731647 -0.8316508283217483 1.4811870772955071 -0.9280340296391889
Ni 1.1805234196685346 7.669346041473713 6.870012078992789 -0.5277024687936975 0.41363059194724244 -0.28300723850000936
Ni 5.081125420241258 5.085382137175221 6.69868970468019 0.0661493421335635 -0.4460218637937544 1.0398199386649447
Ni 1.0554834991115836 7.534963219723375 11.445492394627532 -0.20720109000297218 0.5875533795130591 -0.5614669668386524
Ni 4.740259924604304 0.5006664776486357 10.505382331472326 -0.012944733086126094 0.39759796396441205 -0.3262043427127737
Ni 8.036253165119941 7.400106416644203 4.398208564142705 3.1241587641324 -0.12039139130657976 -0.2935027387146945
Ni 7.579827375502739 6.452481014919294 6.933620373322474 0.5168848093529033 -0.62503723539113 -0.023027828353740985
Ni 2.5563180317916228 5.394746104495743 2.335954085488022 0.0951812105895393 2.671050940026142 0.4629160684459318
Ni 2.4657055627541062 5.450393335506107 11.242940119760025 -1.6441780484401685 0.7684677679053604 1.239591054752433
Ni 1.5831705585140485 3.728091026927815 3.483205838877436 -1.7666587181756093 -1.289294078404515 1.128492658712005
Ni 1.713442503739296 1.0529404069818715 2.424429992535558 -0.6754223727119013 1.1855390101030356 0.7307666538101608
Ni 1.2787013599163055 3.2665517079745263 8.177073017916882 -0.19182897842227606 0.6930406000142968 -0.9349089023821511
Ni 4.056432477452855 2.859018915431788 6.875481094325502 -1.0744120748175174 -0.07981578387706253 0.21433487283427602
Ni 4.002188960377887 7.202328592162155 5.7793646342969645 0.9742758342155479 -0.02817774798579663 -0.1796532622916906
Ni 8.623306385959015 7.392240149590649 -0.023075598693831266 -0.6881354494031955 -0.2832512361900154 0.5451582023762999
P 0.5723260740506319 5.864479831422548 7.857894902581805 -0.9645439516397646 -0.38698676410746896 -1.2188615355145653
P 8.705396306103053 1.73650351839224 7.886110464185832 -0.3424331458668103 -0.4948890218081025 0.7895287023407177
P 2.0630037337552656 3.528727187999281 10.25105397694746 0.2173201807148451 0.1346849251111164 -0.3418294508445403
P 4.1645184504783925 6.086120792806337 3.65494203535021 0.7854388485420601 1.43770458063184 -0.2213331585289801
P 7.265176693360593 3.9989348962549216 10.20366769359716 -1.5876019518173368 1.497748581198614 -0.25321612328050586
P 6.695998037633939 8.2327457709988 10.279003379805294 -1.9125197145082031 0.46203957937824947 -0.5628142248951663
P 2.5011903572378658 8.998098006709906 5.432611743654344 1.006373743191357 -0.7464994911643854 -0.17477176582967321
P 7.466172121863388 4.174162147515077 1.3069998682528787 -0.6905273466741398 1.644191418176607 0.9476029529100519
Ni 2.915987825147559 1.7215457614572671 0.32350319496069846 0.13881643078098674 0.3752802743038182 -0.6015486653508866
Ni 1.532062610229836 0.9500408834968578 7.026925420908797 -0.26600299063252897 1.7220025129188152 -0.3822083688822192
Ni 7.07028833197933 0.9453648753873873 9.275511074954156 -0.06868882072596558 0.5167166592061553 -0.7474405149214159
Ni 2.9104276595592995 1.8093508026239904 9.102975490740251 -0.26634931822835417 -0.6708360388927994 0.4635557589124597
Ni 6.826652813932476 2.2791027596019044 2.3720678167350435 -0.39244573033951125 0.5572889242015628 1.2711356623279333
Ni 4.354329742625786 7.171902636861157 10.361848935567803 0.06433131508821824 1.4052228059540508 -0.24127077799317156
Ni 7.631865056393513 6.68163275736001 11.221767738401978 -1.6016849122729642 -1.2492542888738098 0.2534076704660217
Ni 7.899910612875381 3.8865101710654306 8.037942179355193 0.6226764484684373 0.1269875564668587 0.9869277186516033
Ni 3.0903309189289265 8.509778742677428 12.345660415802815 1.8518853886555977 1.7895039982048986 -0.23761749751130043
Ni 0.2583216472203021 5.125105418541834 9.774375512050664 -0.47808531998720244 -1.0664624809531376 0.999791461988149
Ni 8.900366702714308 2.6846575915993114 5.829619416189273 0.14986883194040643 -0.9602772059436107 0.5072514000281974
Ni 3.9282022979518203 2.894011498535603 11.420891852158427 -0.3400206797705757 0.8326242479786111 -0.014990302761245149
Ni 1.3276581621696504 3.6478058818435737 12.48629887959122 -0.3537125754353715 0.029005128983098434 0.34448720018236156
Ni 3.271419131620642 8.601922536008104 7.897757643839402 0.9113419136954886 0.06606192462607977 0.4307968193138838
Ni 6.061027127454735 7.9791931051486245 3.5181592273713664 -2.5889059937952705 0.634344885945301 -1.751598738518693
Ni 3.4204133393348797 8.597756969329687 3.3464367034369245 0.30695063668948425 -0.07871406617245154 1.1166666126113542
Ni 3.9088602137251223 5.017648382279558 9.669343984088446 0.3579155577731255 -1.7668860036950667 -1.9022571562399304
Ni 5.618410601552636 4.657823633489195 11.737855016283756 0.26540495203721387 -0.9622163319478525 -1.7214358417820677
Ni 8.120630956678163 0.37977207071388186 2.3630220653747345 1.0915435922914813 -1.5831760548354992 0.048943262667922156
Ni 4.76195368542407 0.4674905191378371 1.3438819961541466 0.7721012508928896 0.7597090478761239 0.10879725871107714
Ni 6.205937803720547 6.11619126211071 0.0911065034225716 0.765537738742759 -0.22334633230426695 1.3778379861831949
Ni 8.397691273433454 9.157592723862955 11.355002066932444 -0.318637071888477 0.4767203213188758 0.06254234150859551
Ni 0.3625765750052736 5.072283845453371 5.785114392416759 -0.327454670180107 -0.14872726213679546 -0.1966541677250613
Ni 7.517152459789837 6.443302184185888 2.2299217277199186 1.0536673860709982 -0.8003556177528927 -0.13213824742986274
P -0.1776409100269943 2.0431147479952956 3.637679088452498 0.16360212236609886 -1.6451802644524374 0.1980119673045364
P 2.25634254079226 3.5435937946787086 1.283937942097379 -1.8978014344614218 -1.1421860970386974 0.1714437298977047
P 4.733551265796175 1.21092202989287 8.279183180188875 1.4947424473824384 -0.6071716679646189 -1.1874454830971293
P 8.852749809217478 1.9164888129918576 12.36793936126318 -0.3429411958514803 0.7785899439410268 0.441032380998963
P 6.522147155232515 8.178930660124895 1.2444862884922914 0.7511153926698418 -0.8369946091321648 -0.5298418837342036
P 2.0323499028154037 3.218305877714434 5.7806589679257065 -0.30131503567026174 0.32021110124381624 1.0595158744319753
P 7.034584776882263 4.0827202111520995 6.176278422068683 -0.5945007573651697 1.0061675407178219 -1.843438029219193
P 2.533922414004159 8.876275690173701 10.357779988160264 -0.1408745988615961 0.023846467600294415 -1.9613441922100734
