# total energy = -381163.71888070647 ev
CRYSTAL
PRIMVEC
9.34021635132499 0.00000000000000 0.00000000000000

0.00000000000000 9.34021635132499 0.00000000000000

0.00000000000000 0.00000000000000 13.67035075370176

PRIMCOORD
 96 1
Ni 4.4520048003425705 3.7650038644765624 8.227323065774591 0.49217907907610714 0.006794911434646362 0.31807785695089735
Ni 3.4784553659593938 7.9763766700573155 6.436753147340707 -0.753503176175728 0.8603152861359764 -1.8366472315496045
Ni 7.752398281112379 0.3683762662347994 13.13573100168522 -0.7912266588684309 0.133284445219164 -0.6215220231490199
Ni 7.3421853176397915 -0.186186939424081 8.161185927564407 -0.4496972557628126 1.4756185820687941 -1.1398548778023596
Ni 2.734320326458015 1.8370524393022485 9.18624291923181 -0.660709749092075 1.4102626823708033 -1.324012712832623
Ni 9.083687343309569 0.5426217390089179 6.3197893536208625 -0.13882902918647705 -0.0401788862117308 0.7373875015607881
Ni 1.22979827094299 5.945916370042689 9.797895395487407 -2.4005027532250915 -1.6258797643516127 -0.5607028349791182
Ni 2.886659255719563 6.845173723288752 8.515152107958329 0.4331066983939831 0.593921487822932 0.6456672529366557
Ni 6.562473393922764 5.158919077544301 7.731444439671217 -1.1310740462859359 0.053882608951068486 0.0134466124232091
Ni 7.893697074605249 7.763120849523922 6.516150590754607 0.8945500389491302 -2.031801674800688 -0.4925737434113645
Ni 6.671212193092779 5.448213599679059 1.0954719489825397 -1.5691442593327816 -0.7325574271619963 0.7800912110769017
Ni 8.67670609470666 4.905472305900395 0.18060896219814618 0.9481379994779154 -1.1263293325120989 0.310101266503324
Ni 3.771878263736924 8.022676122684507 12.319528720589958 -0.5351041605744074 0.10500925242355462 -1.3678703334475217
Ni 2.155012085526749 5.594836316512154 0.7773320365817827 0.23763240990963588 0.7488487081228523 -0.7713831417799425
Ni 5.728457452135435 4.665540827367555 3.4230286538794505 0.3704604843176717 -1.1389066549564775 0.4752478505384073
Ni 5.686164952337991 3.7452399666030223 10.41970535706317 -0.5297745208313779 0.8430343875683417 0.11460512364210586
Ni 2.114989258311192 4.360115751533551 7.9322077207878525 -1.0073219660372392 0.9181800196632445 1.653720954933597
Ni 3.5352065207229235 0.8977302278668916 2.4388995563954428 0.4619935566316624 -0.1017012710962442 -1.3073002851739484
Ni 9.399713564742092 2.388078505015614 1.9482570555982623 0.6742399223680259 -0.2702900480436571 0.06028825536709617
Ni 7.531735668984601 0.6885971788464376 10.231478514380306 0.7422867386346185 0.6371224486904382 1.4300388365564662
Ni 8.616200172955814 7.626893793528847 11.284997947441868 -1.3900977773871543 5.838701971014222 -1.0242475381479843
Ni 9.012309409684997 5.752583231061405 11.74641304312285 1.503457201547617 -2.8640127465012806 1.2003045984479843
Ni 7.488116858460295 2.9252810504771656 9.011385662284386 -0.9907810309594227 -0.4653408758373405 -1.400490690585704
Ni 3.8101171096226856 5.613572790583193 4.161897679382199 0.1986974234073352 -0.8018507142411804 0.4775163348576099
P 3.671097328928089 8.876194436286559 9.549861279239398 -0.7284642309292293 -0.43111255078208977 -0.03535086869546815
Ni 6.943787727895951 7.748204523954903 1.075186867034641 -0.4026501816763388 0.8963374698668564 -1.5208026348046002
P 6.235519119318199 8.837535280663412 11.54145320278382 0.5803483771241876 0.8909008722323172 2.3230513558151475
Ni 6.197261592999663 8.738911935839825 5.519813830453625 -1.376852225231158 1.468408180363284 -0.3245087001779056
P 4.314731640112223 7.696973437075713 4.193216358947306 0.045048555599206286 1.2663737221629159 0.05590221048425856
P 4.663103030890715 8.309327363581925 0.44331469034585075 0.5329063815921402 0.10979561806860445 1.6988042204254807
P 0.5027156644981907 3.4539372979451963 9.500894260812261 0.3047703412087138 2.7786346380450917 0.963581073505863
Ni 7.954511223496844 3.466107599896625 11.148896050346373 1.0584550372676287 0.49730920121382094 0.6518319869864709
Ni 5.420874786316181 8.874232990845423 2.450260061586174 -1.2253101193533866 0.49847236828398667 0.8867912209393178
Ni -0.07967484784057499 2.299112943935526 12.874872768338738 1.182632635089518 0.23307127290151472 1.0523548379071619
Ni 6.903643477867371 6.1113316022451425 12.510243796918147 -0.33639233898936904 1.4603251462448334 -0.18791935895522474
Ni 5.909638969598063 1.7393537759009128 11.816924204666766 -0.2520185034279789 -0.09909597226291321 0.40901289066957297
Ni 9.203204752189443 2.9422335432184106 4.3957972461727275 -0.6719279864053975 2.108373497819156 -0.7310345627595668
Ni 2.899716878227695 2.6902718659799367 6.621016002189198 0.6534391835725909 -0.20466366829309912 0.025943973559271447
Ni -0.22373180723233616 8.580016174675052 2.0492808360331423 0.4788054859826787 0.10287780790284863 1.472407274220348
Ni 5.017853789461091 1.9302864792709038 0.9169701396011565 2.4029010782539393 0.37320745093518953 0.7404345159172281
Ni 4.127628425460641 6.748689288017642 1.9102535831654368 -0.1539293751630252 -0.06667976071573677 -0.5568397524792861
Ni 7.129144322083285 2.9244684516515522 2.549916434342091 -0.708404998285509 1.3174589708745053 0.48854816719173927
Ni 3.1189597774647466 5.721414928980118 11.02535674429053 1.2401207020036578 0.8705246225688105 0.03764506404628355
Ni 7.4970087444601115 4.956133639580018 5.283686622054949 -0.1116856360024657 -0.9537656300773381 2.3254365682178726
Ni 2.138638686201458 8.825019390705688 3.60319021971269 -0.11403562429188102 1.597519725151681 1.535698578079826
Ni 1.5732847285514149 4.2025369608792555 2.5590212772755154 -0.8886133617497212 1.1593240422705646 -0.4492262296636651
Ni 2.289287036297074 3.866205109022783 4.571159808826655 0.23001037458800383 0.8202289596380519 2.5787653058168427
Ni 0.2339995071058628 1.7335815221741417 8.487059539133071 -0.43887856788075386 -2.0457383394864377 -1.0862070105699164
Ni 1.181696156553231 4.267843753852691 11.854887514169128 1.1920870956341985 -1.2853019265259864 -0.030607697583527934
Ni 1.1198452436427486 9.40382325995209 12.789200567556481 -0.24653408327463994 -0.1928455926122485 -0.9121523254119258
Ni 3.5873903096735216 1.1091973969622972 11.096934558545769 -0.5243569493602325 -1.499661996171243 1.4091918179041278
Ni 8.660659602954892 7.265782347599359 8.668588512645275 1.2608126831353705 0.13405449061596914 -0.007236884068071407
Ni 8.127426649457545 7.398338698554594 4.150195322271728 0.32351548302670086 0.41521619126680753 -0.013226783102919156
Ni 0.4613020790627047 5.589783259447133 4.8897480516139575 0.21244331223851798 -0.6927194692294522 -0.034397246532947214
Ni 2.0744527191943853 6.70275410382952 3.26011846771182 -1.7438394062882485 -1.9892877126978774 -0.28155945030988927
Ni 2.1080401373197395 3.250049714447323 0.4036850862401598 -0.10566231262652123 -0.5891153246835402 -0.23172092952120735
P 1.7049537589499455 6.78514415257361 12.628136942168434 0.08813793058951272 0.01640312394837175 -0.225605817762405
Ni 5.221918837070305 7.168251808092977 7.717460267697557 0.4916622873406888 -0.11357565393632699 0.14590084843159387
P 5.176235838724614 5.850730224849285 9.678800164388194 -0.1707194501371705 -0.7735109867562227 -0.4011867097569349
Ni 5.7986304978461645 6.527494283555842 5.523272512581495 -0.2881327326520328 -1.021505456626473 -0.24745993752301895
P 5.920445599957084 1.431911213327455 7.401168784119662 1.6790357795493018 0.9870956116880355 -1.1425517079082324
P 1.173364683536597 6.238974999381152 6.877088308659308 0.3289459100136528 -0.431391001254457 1.112870635904032
P 1.5905547886497962 1.3044826411683323 5.6157527970877705 0.11516768101379521 -0.08347523500652076 -0.9081151792280747
Ni 6.601524838634139 1.2860076931561104 4.200256080037706 -0.33562897846078327 0.08362153077639793 -0.24919131839182887
Ni 7.223088218497303 0.7342988576249019 1.909118746874494 0.9711136344374824 0.10332029475690593 -0.482601205579685
Ni 4.263808780373783 4.264593358550238 1.6350833362501336 -0.5586294973898573 -0.21294184914149134 -0.443707613838281
Ni 3.2601371481445924 1.1857871713304573 -0.25995410040028266 -0.7260525361639432 -1.240919029535237 0.1995965381828369
Ni 6.239993082967264 6.767705968580274 2.927423696116197 0.24925585308117718 0.3245007297581056 1.9918243630768022
Ni 5.142041306534146 4.079218083930131 5.815653976231946 0.39438845588817883 -0.37954033513175284 -0.05213837256645214
Ni 3.310443553601533 3.400473899349666 11.238655529819301 0.14660738758031525 -0.2995911110006195 -0.9772824822523555
Ni 4.072455767266406 0.5508140428013951 7.643011270925151 -1.0616365203194038 -0.6983707539779586 -0.004973284844875306
Ni 0.51298149632844 3.4361628661619514 6.475057374741174 -0.1710673203948925 -0.5885555955253282 -0.007627434638270735
Ni 7.458489692082758 2.3348672922625155 6.13470642777365 -0.5098731539217606 0.6343279166644366 0.6997120984972014
Ni 6.420231238574872 3.910524435776066 12.99163201131972 -0.559158887530766 -1.4777356284117968 0.2789505519321325
Ni 5.909629629381678 8.00015686097699 9.701806985391078 -0.2732478451204004 -0.4364049095292807 0.19815029265461356
Ni 3.9070218546311803 0.88904102456266 5.482343684376461 -0.19813846558007167 -0.364022956222444 -2.633406904421123
Ni 4.339679358080193 2.851446639942982 3.8990985490706307 0.14336162694950794 -0.6414339315815986 -0.6147489660912444
Ni 1.940252490155151 2.009033843624313 3.416931360622434 -0.9120942184804807 -1.0183188313683753 0.585999661872694
Ni 2.064608131123161 8.056917355956905 1.369700702086098 0.2900569462579392 0.7854455334102796 -1.7453712695517423
Ni 4.583384284033124 5.63252408963112 12.935952179375708 -0.308085778735192 -0.36103199191492014 0.9900711493765917
Ni 0.8368189407248771 7.877865407830367 5.493183939514471 0.30973874095758264 0.5346071663333309 0.1963111825633458
Ni 9.090729866464883 0.8133581852056156 3.959179490975898 -0.2740153194140442 -1.7959662088904746 -0.4321183663387848
Ni 5.26610740079418 1.2540734933311422 9.434825306181699 1.2026445594350708 0.965688092546537 1.258726490030303
Ni 1.7313305300250288 9.110437723040105 8.180324030940062 -0.28154222391870865 -0.5606262161049119 0.25681746747851897
Ni 7.4702396842968 5.9922718639682 10.168239645314813 -2.2545520253921683 -1.681735437868652 -1.3704146971359301
Ni 3.5852327196882725 5.726299862150184 6.60040121060286 -0.3577908592698032 -1.6883696553557184 -0.5851931068109986
Ni 0.819825351031532 1.9007900759227758 10.928064380302 1.1632490883565838 -0.7181641345548019 -0.8854665885906233
Ni 8.929639154449315 7.747718832702812 13.669954018119522 1.2818548485176504 -2.1680122925277114 -0.9476214648528132
P 1.324442683585986 0.9057049046175666 1.0355553948856728 0.9923026098102717 -0.1205464288272053 0.5514826019324309
Ni 7.972986171509066 5.111732304360405 3.2226754082621762 2.3219684071636135 0.1255431107108483 -2.378585898547342
P 9.605758738225214 6.023244021505373 1.8038573102651216 -0.19941861784407588 0.898268368340982 1.031868802138668
Ni 1.6921763429334036 8.032119081451118 10.778852555486607 2.177856275201327 -0.2959560853511935 -0.11977046989312921
P 0.20924980172528346 9.288340824551122 10.107953218649046 -0.39196904781340886 0.8007037451209307 -1.620477619499435
P 7.8227861517999955 2.602660636275871 0.5699269275928056 -3.1157355730657117 0.017709758574937243 -0.22354662124053115
P 4.119651880666688 3.2782011266358144 13.142046856005678 0.8687328207757102 0.5861220463831712 0.6791106201967659
Ni 8.746608274142186 4.742420148443693 8.114624948878399 1.4536929856402965 0.9337909867276241 -0.10072887988064588
