# total energy = -340876.9268403047 ev
CRYSTAL
PRIMVEC
9.20754811671234 0.00000000000000 0.00000000000000
0.00000000000000 9.20754811671234 0.00000000000000
0.00000000000000 0.00000000000000 13.47617738203310
PRIMCOORD
 96 1
Ni 7.564101928870245 7.130389589951467 8.455209340805393 -0.1603404208956916 -0.3602804584608763 0.5687478167707818
Ni 6.858067151605217 6.447677531658953 12.997449275808677 -1.4463648274099994 -1.832039043353632 0.3364278202129948
Ni 8.814551394128873 2.752136084044299 3.1342088110067237 -0.5164060699442719 0.29221950112689676 -0.9819423496218701
Ni 5.817181477824836 8.316036332695864 4.347859390104458 -0.08093164264906062 -0.2271219972966153 -0.15437289045834704
Ni 3.2544078250433506 4.551180464068547 1.7167031201634533 -0.6500576686948676 -0.28660755425675805 -1.141885535079143
Ni 4.475153740595967 2.765542273868215 5.491515110395579 1.1677428624618793 -0.8679077537712536 0.18296407183247845
Ni 5.0545479032743605 2.2746234394988947 9.858335604005799 -0.6164263537936674 -0.6805653503654214 -2.4531121518906915
Ni 8.587465638890384 2.490917948532968 5.463215711752856 -0.018210352360439604 0.748830196180091 1.654196609018435
Ni 6.601949997661502 3.5411769061325438 4.422112739840713 -0.8019949531285284 0.6343880804784107 0.2522743281925268
Ni 0.7745232812260406 0.755555732436709 2.243392357586985 -0.09383832340839968 -1.6880600945350992 -0.2818371294513081
Ni 5.552768323172779 0.39074715789175896 6.354691425606243 -1.3671126293458906 0.9607163503635583 0.6193131884231592
Ni 6.21981834239216 0.09433685333785304 8.972317203825925 1.3752985075907926 0.21613027417180194 -0.7973201733606785
Ni 1.8124137396563393 5.996857568637953 4.040508677069249 0.338167685722237 0.85811082228549 0.01615886914804959
Ni 3.0573294685934207 4.610836167275381 5.907996444069525 -1.7126269852411857 1.069184764980307 -1.2630243460747088
Ni 2.6250074694159964 8.769167390253818 0.5240632447464844 0.45870948656375193 -0.545308354800919 0.2997906286059353
Ni 7.754808662134633 8.956329217555151 6.828568009463829 0.18346877938303888 0.22116166594812234 -0.7569777649878898
Ni 5.132876513735935 4.981918764997541 6.928129225511908 -0.08430441577603544 0.24512331897004236 0.3129531341298223
Ni 8.536980653447712 1.0056944254926015 10.894707737778157 -0.08680404226943761 0.35886429483964005 -0.5678443311199058
Ni 2.0839627439742867 3.6123788744761853 3.612491206561248 -0.2571596813092861 0.16285881644217112 1.0387961253861207
Ni 7.676074919562994 4.27813983698173 1.099695203330061 -0.5233400780599439 -1.9425607409549834 0.7880436331547589
Ni 0.4682305154509747 7.410354293101186 1.0293955746861057 -0.5323165705269414 0.333160976536265 3.0634696737824596
Ni 0.5254066259932627 4.636193754346168 5.982694518372054 0.7377860225507875 -0.3056751124111703 -0.04861647545612272
Ni 1.3541080401471224 4.24430209824348 12.054548485866311 -0.9472075172438461 0.42250732561158205 0.03607643400758302
Ni 4.1635519026694805 8.826521206471655 9.811924037778853 -2.243920770930568 0.23431722949347386 0.4247369862730491
P 6.89809236256989 2.424752508921251 10.879681940268782 0.5139915469655083 2.0646045802633215 0.13063723740430402
P 1.4272528011094774 2.5968968255063705 6.6013054693045845 -0.16379881175793723 1.0345530338390505 -0.5661306908629089
P 8.28055965042145 4.723619422188258 4.123979703064242 1.82540919674194 2.015753105978257 0.3971750174943805
P 4.294400366672001 1.0702577517599772 8.141551457420332 -0.6885059453687369 -0.32082919444378943 -0.6086721637695452
P 6.153100449903084 7.446926673582364 6.57012134588725 -0.2964700488731346 -1.0534221028294115 -0.32702503884185613
P 9.081920171674804 5.317837737075788 13.496661348621954 0.8819716880634875 0.9507906066094141 -1.27791926090867
P 4.648412170483761 4.722090969227564 4.263485103654982 -2.199863632710353 0.2011561693604729 1.9783978052582507
P 8.611110622041357 0.23060672157685877 8.709775022918523 1.1084213418834266 -0.481941460508499 0.6071629262138705
Ni 8.443827890776998 5.943895752795119 11.27038306042076 -0.5849681352843862 -0.8803516359615613 0.48218725797071793
Ni 0.870901447945736 7.205256162381591 7.8655321885697544 -0.7842785096853718 -0.6050967877134611 0.8614234315984906
Ni 3.1754715164166805 8.180243415440978 7.358679692462601 0.14061157500819654 0.1288894014752619 0.6964948771114844
Ni 3.087115886231036 1.2270346708065556 10.944946881690404 -0.5740453177242952 0.9347795758931385 0.10406154379830465
Ni 6.348539862816849 8.694844063153097 0.2038726060866526 -0.2520717252634175 1.2037902430037395 -0.6808965084525951
Ni 6.064358102703288 5.742011056312164 10.40591308472228 0.3276197350030615 -0.3841438953420352 0.7827001094546585
Ni 8.546243446691433 3.7074560146696998 10.111445572787089 1.043985382896544 -0.2544872766834456 0.5159574124426276
Ni 6.145412147359835 0.558994840181905 11.395576248468716 -0.8539775168434066 -1.432807914661171 0.4812387780145196
Ni 6.5824576186386805 1.3385656991974175 4.00952619895215 -0.5959045796912318 -0.7367717223536602 -0.6077020865467921
Ni 7.299071868505136 4.1669494878652396 12.171441069431943 -0.1427723301049412 -1.3617613923363063 0.10710675838253167
Ni 1.3533806438585994 6.89861719280338 12.565281963436913 1.9142536664801741 -1.5083700654682022 -1.522119553843811
Ni 2.5967955424788545 2.2008986030153124 13.142561152349817 -0.8509428437821409 1.2352507755058661 0.6271257424890425
Ni 1.1807851574236365 0.059977046630499034 12.013202912524749 0.912124557497784 1.0762301018628626 0.7992698408878816
Ni 7.421790067662521 5.083809490678485 6.705934519747638 1.212714542076563 -0.11297607267911511 0.48850111600388774
Ni 4.075951291416226 6.7918556742537195 2.7780599353143787 0.7237758243146244 0.4688861699864376 1.057419396914263
Ni 6.61285173444139 3.9136866737878804 8.704586569645326 0.14057198001951274 -0.29011453896875194 0.24692206274167797
Ni 6.9257886668214965 1.8857058213859903 13.425237478372575 0.3042941729032437 0.37899860369566984 0.05063890520279021
Ni 7.684518241038634 6.1775925274660075 2.443351755792343 0.45669502723688443 0.5336849116293777 0.7940972955480067
Ni 8.549917258325872 2.313166235242653 8.014943069251544 -0.01862352863845825 -0.11079243476423502 -0.5523925153412099
Ni 7.319659945734721 8.504975216752703 2.3437500265332574 0.4545622971645978 1.1333111631465709 0.4542051709354952
Ni 0.14625637475206846 8.103516918323745 3.7188457514912545 0.006627275508530522 0.17654325590779918 -0.2009039441403508
Ni 2.9999296146358017 3.7509248485699107 10.160996912867025 -0.06889399475823618 0.07769076711425975 0.5360413276766962
Ni 8.650831983923482 6.724806310038227 5.534962766935492 0.3007640482627981 0.7673737635102332 -0.06686976523935581
Ni 0.12045866688898611 2.407617262175161 -0.11987674985816778 0.3616979076336932 0.16108012727519352 0.07907273506345092
P 1.6457110839132079 2.5776714653742707 1.8219251366948732 0.6464560673865383 1.5239067276512206 -0.7915837850975335
P 2.4795466268073256 6.590274826853312 1.514520099126724 -1.9601008067212757 0.7207961728610102 -0.4444023259124605
P 8.859622341373427 5.231342031577253 8.43352648612384 -1.133651062984493 0.7699376675826675 -0.21865869702061053
P 2.0020339822619206 6.891223531794724 6.002720935176325 -0.577573899702844 -0.21273770355048527 0.10494806016831602
P 8.37943030037283 0.5306899170104076 4.80723500668616 1.0874573380372496 -2.175552823879131 -0.6458423450619393
P 3.42556693399718 4.568472239129889 12.56990415251082 -1.1518315905482615 -0.5206741011920065 0.6303360218962242
P 4.122826918060153 0.772570360304576 12.870085868707495 1.7600553539264787 -1.4132976125423855 0.0013418587398751085
P 1.1023828865784133 2.3035811778204716 11.067997473329 0.48379008368146353 -0.12891331273466183 0.18213283418043472
Ni 6.304316009984246 5.972678547705533 4.7492071979579435 1.2940395635093005 0.20843110575533136 -0.4201442246960441
Ni 2.9530355728959634 0.965052308814878 6.200416197339306 1.6617535954300866 1.2894730271845405 -0.6737501272158009
Ni 4.792501088446991 2.2148756608125 1.0067984104925243 -0.7461097119251344 -1.0338012432746906 -1.2505699223614397
Ni 1.7460089037977662 1.2459009365683715 8.220131433941107 -0.3129531341298223 -0.2073738681354106 1.5811731654728574
Ni 4.2284651157591835 6.2257480032758155 0.05733540112192657 -0.9908900457334613 1.9137065357274525 0.8852629572202495
Ni 5.592489685054902 4.952776875716845 2.4474491146327573 1.2326161660964965 -0.21288785597510435 -0.8471615223628378
Ni 3.0106103702647458 5.869084425652731 8.216169426055647 -0.8936264986935966 -0.5658162449462836 -0.23868861908829214
Ni 8.471763591275462 7.914578034266906 12.602368125094035 -0.5411624509533454 2.6386262438385333 0.41765231151212584
Ni 0.06564797541659098 7.9149095059933225 10.435776845762728 -1.2075527953699654 1.3566945193363602 -2.8160177066792405
Ni 0.5542676850613018 5.018481937930762 2.2649140801793073 0.7401450097012672 -0.21410578754260548 -0.5334542836758103
Ni 2.5558403691706277 8.499404650239331 4.326513531678095 0.13835491776353592 -0.6377161164103791 -0.12461854201404991
Ni 3.4735750890396924 3.215358614162013 7.681892248361587 0.08464740093775099 -1.230194186918565 1.3398815615440796
Ni 4.302991008914936 2.947695195081492 3.0800076592090146 0.7049468645335795 -1.6637647123228443 0.9734214566350525
Ni 4.775485539824328 -0.13887468355575427 2.17913840493093 -0.12748249382540625 0.5025084860265733 0.06273491713537582
Ni 5.500846960248971 4.338624219504603 0.214080093750659 -0.0714895233995543 -0.053357846795850046 0.3683051285375657
Ni 4.14753997677402 6.78602729639758 5.341969799513633 -0.27553252738951906 0.0971589031412004 0.5484692690274039
Ni 4.7701359544619 7.8475931228871065 11.917077953373845 0.548227842440559 0.7035664392462851 0.2495744127628605
Ni 4.811579127811794 3.292453413197486 11.807705174223866 0.8092012410689806 -1.4186488495519698 0.2653915823007752
Ni 1.4290758956047627 1.4671767290466338 4.402639696668598 -0.49099482896001895 -0.11318613180739216 0.5930141455173142
Ni 1.1339831911633584 5.830090460059129 10.12453041918734 1.47151921518844 -0.7626789291377252 -1.3531037166613082
Ni 0.9411679294170496 9.027614053830398 6.407531701816057 -0.850117005446736 -0.3484317866524064 -1.2282545466936912
Ni 4.931608722966032 7.164696913635472 8.69015281746952 1.7646566001439157 -1.8285575125629345 -1.7560642304892142
Ni 3.530634263722939 6.088693651950959 11.011303838299606 -0.12237808271930538 -0.41218820307376103 -0.80870450393822
Ni 1.2519779182193227 3.949835507063083 8.610225776682787 0.6526002326110631 -1.37195813036365 -1.2898751477189656
P 4.6498853781567195 4.806874070806286 9.108965502285923 -0.6992248744481377 -0.3407161631757035 -0.16050985659402037
P 6.520739424689704 3.0240073525407065 6.680302547747763 0.002151242015047908 -0.5877693521786072 -0.39210325939842794
P 5.896200654383111 6.957794103516504 1.4092170561732913 -0.08362975830651403 0.3666884188697491 1.3919659409441445
P 2.1214558792510627 7.725952206840572 10.573570563188447 2.0414967906012644 0.9614678838176023 0.08818780999084166
P 4.133019673647429 0.7793388288070215 4.141835900815287 0.6409847598593219 0.4589102897206484 0.3868880337460756
P 8.66767258913498 0.4410231319958309 0.5926944657008149 -1.21791948331627 -1.2266404081290359 -0.7766472183923592
P 6.960795764150156 7.591080044381285 10.920419815445248 -0.7123493276452377 1.4827870747927752 0.02153633140987904
P 6.651284039609678 2.462356134773499 2.1286294798635716 -0.2753147549517581 0.6553623687372327 -0.33628512398754346
