# total energy = -340860.8294382785 ev
CRYSTAL
PRIMVEC
9.39205384540574 0.00000000000000 0.00000000000000
0.00000000000000 9.39205384540574 0.00000000000000
0.00000000000000 0.00000000000000 13.74622016610538
PRIMCOORD
 96 1
Ni 7.3294556731089635 2.693594143137955 3.701293920612708 1.1967531336513002 2.382441781958323 -1.5897130846230687
Ni 8.116509803044844 5.694083044626563 13.030235252277821 0.014704653200026287 -0.13824873120297482 0.49802782454740036
Ni 9.31986672903571 6.767594823286123 5.76867004191637 1.8361569221767475 0.44284603716893417 1.3637699381259027
Ni 1.5320882100229152 7.266388030119471 8.513818108975936 -0.27306272569278783 0.39451778237719154 0.11211321045818756
Ni 8.342651680617589 7.831310689564737 3.5716525808544275 1.2535470027118927 -0.8342306732337826 -0.23568814169907149
Ni 4.349084551409408 5.688635653273785 3.180848272357471 0.18147591732272617 -1.4512535229608683 1.0022538074857126
Ni 3.4426668064692914 3.664563475608493 11.90120234606318 0.37162288005688904 -0.49902078458828897 1.2040815489919134
Ni 2.1051162121189524 6.112142154790118 2.074331876537916 0.11503064121529866 -0.4151143755816206 -0.9919069170337499
Ni 1.6628913468679867 1.9331477023441794 5.151230773008701 -0.38518802033583344 -0.8334824822138484 -1.9698077495963946
Ni 5.854583856398333 2.308416614226256 5.488357614161868 -2.7380759998964392 1.8917891668290707 1.5144301556193533
Ni 0.5227598503747622 3.9003228165351094 5.696626412865068 0.25532134254896677 -0.005042190409597768 0.04849769049007132
Ni 4.519475196102687 4.9528527464324155 1.0342041540222362 0.5068693340984303 -1.275549475124913 -2.187252628814562
Ni 6.511529861489322 9.298058379516483 12.167123329386886 -1.4699474998259459 -0.4328357041207836 -0.3797102850507138
Ni 4.081373442582531 2.3597535816991617 0.0470062913474473 2.838149248470957 -0.7493948104343093 -0.2437596058532963
Ni 6.5146949837063675 0.45050396090178246 7.1933563569814245 0.3254507523762008 0.5756329739263892 -0.45654590325352984
Ni 5.22275220385446 0.030032032051109412 0.6935712590897725 -0.07132445857659975 -1.432751350391623 -1.4281033100966503
Ni 4.178891139851316 0.5588516357031346 6.685872682529582 -0.10101118700775508 -0.02339292500264358 0.5957613692451482
Ni 6.479718974399908 6.769059983718939 1.941420223557157 -0.7165435682322433 -0.8635859864674481 0.03945743466467398
Ni 8.326093489315955 5.375429434597154 4.247966879820761 -0.6828014387847918 -1.8254145960585788 -1.2665632124659025
Ni 1.802861128472216 8.847183432479468 6.1779776361100645 -0.1308699222404004 -0.9306830372262617 -1.0839935478583653
Ni 4.586534462066197 9.376369326239699 4.477295481334882 0.6640231297360242 1.6897505948636449 -0.7658804667941583
Ni 4.628610864239381 3.3008092219997027 7.4237011787444604 -1.0284399789627772 -0.27292748566650415 -0.30334440739546464
Ni 0.4618035411371746 7.865732567681861 1.5945068620771023 0.06582718290745436 1.5795690542105312 0.6939803382197467
Ni 4.2037612989929665 7.218610651133985 4.785485403939929 1.2099356937798451 -0.6379410879369917 2.4354515013861344
P 3.756117218551392 2.0979218987116623 5.088135893062445 -0.5652058650557944 0.40509375812082493 -0.4173730897088102
P 2.4417649977206426 3.917838997350508 7.548173131950036 1.0756585456301089 0.08296075726394744 -1.3212176665859892
P 6.354879791880724 8.188481113279911 3.5376993662347234 -2.611788811930715 -0.49215851025081686 0.7397534306898035
P 9.144319846665406 6.311450933923403 9.88625454891379 0.9743845918792702 -0.04832208414415549 -0.32397571049257107
P 8.697962477629574 9.312728767952759 8.118476499164277 -0.19463019531649706 0.5124576268194851 0.8875309273188199
P 4.007138647319843 6.9427754155482235 1.4979114645166662 -0.1760174653113162 2.0386567500493085 -1.1176570015490817
P 7.837922695620523 1.9038257095797424 5.790526290911284 2.5747173609997143 0.5080906081000411 2.124343133774535
P 3.2096875135434035 0.05365398720864797 8.630412946444313 -3.8593325458713212 0.9120024300976229 -1.0615799560498556
Ni 1.3439935434331078 0.34391541782521556 12.301795053297836 1.373040050573919 0.18921108118345478 -1.946008590294268
Ni 4.833667580455252 8.31994169390894 8.963457061699113 2.4054364430812827 -3.231644246010589 -2.083927706071966
Ni 3.729678586382305 4.761348764220094 5.5017459872194285 -2.739747216951275 -0.1434387600443465 -0.05170745567662063
Ni 7.494784000665781 7.467265282280195 7.646720198343415 1.2479497111297733 0.9168389322543178 1.6981930692040432
Ni 2.2303592529625673 3.569130814340254 0.5098805266470645 0.5167377422520778 2.000505435790568 0.8598928538865771
Ni 6.7085000191625355 2.674838211187096 10.991986708219628 -1.1066117994785134 -0.5113389398340097 0.787793721927482
Ni 8.424428295287658 1.0510741615185468 11.872720942136802 0.5455276699005766 -0.7662332221478868 0.6991210018804218
Ni 2.0187750591774183 1.5611378332197134 7.247543812860482 1.082261138548291 0.30760086867897346 2.7127951138424633
Ni 6.890264441318253 0.6789168371453935 4.464813441493775 -0.011337536500006282 -3.8073152722637653 -1.7061832864983713
Ni 3.6162695336498976 5.644643272073074 8.342100367044472 0.5134493013087932 1.0488049157723742 -0.5315208140985233
Ni 5.830728039094787 4.867882833383133 5.9626291070590645 2.296758740667206 -0.022181678303361797 0.5648996466692852
Ni 1.630244566967544 4.8011053290413175 11.036400792647475 -3.695716796658467 -0.10970922900238525 -0.14942557375540072
Ni 6.96576716387857 6.885568414289995 5.51055761233525 -1.4122694283881871 0.9051314140094026 -1.4023249155809656
Ni 9.343403216501335 2.9976337170554284 1.3310193599594393 -0.4272733795416577 2.2185426971770954 0.46217250541168786
Ni 9.223382157713141 2.2585823754023924 7.528406614982696 -1.680409262858061 -0.9465400588631764 -1.7945281908923676
Ni 4.636725598944209 3.0557423555030807 2.4712682571283704 2.607489927445045 1.0309694302528503 0.2941084906194935
Ni 2.424887476581087 8.248721747998392 0.22557177989151553 -0.5369707814695011 1.9274963904226932 1.5459729634226407
Ni 8.718146001797022 8.24482404556494 10.819388930823067 -0.407421377812737 -0.39815897867420463 0.23775093776537115
Ni 8.724560774717622 3.217398389923801 12.45989056002573 0.7150384444416267 1.387743418222365 0.1843871774322502
Ni 6.251088202502188 6.867197556555454 10.62729888443762 0.44669163616726937 1.6309612926395782 -0.20564814369355552
Ni 3.4055494088379477 8.525402268449241 10.605649260631948 0.1343231708963235 1.012417892502908 -0.056622633590050875
Ni 1.7019059394187463 7.474299930768525 11.354034425606349 -2.107069434295752 -1.820675795822013 0.6564743708544887
Ni 4.280757358148269 8.065792711139668 12.620776446013817 1.63455209531463 -0.6222221345398381 -0.1170309594747791
Ni 1.2718907444412493 1.5783628603593602 2.7279653041631735 -0.23372227622195232 -0.39964790451490523 0.8151690286166413
P 2.32559468109562 1.5330368074826233 0.8408536939824036 -0.39971809563120836 -1.8513554842940565 -0.44773344716822244
P 0.7405005355939563 4.757967624759749 13.497455190989388 -1.2033631827686502 1.0450156239332713 -0.05959560017544575
P 6.045449178934812 1.35780925495024 1.9824794662760197 0.219507418174151 1.140107617243114 1.924436777660763
P 6.36682648464061 6.965645067175835 12.905254249742383 -0.05384249974175243 2.6925785296852722 0.023241744136759973
P 5.559955120645486 4.144910688274849 9.817495321166053 0.9227995207131269 -0.009035113619074763 -0.7029591446795894
P 1.1656102607377359 2.6016553259787383 11.057913292463923 -1.6427886242918095 -0.7063126345328545 2.3464468519209527
P 8.424785193341805 5.051835604134018 6.7247886585127485 -1.3764444482697777 0.7294736460303501 0.3321811291214989
P 0.6427001374980695 9.076189886539453 3.7791521703303985 0.8537036943567297 0.8666833944458494 0.319010910288128
Ni 4.855428969704195 1.258384970707982 9.210640897180074 -0.09159246479701645 2.2107990486759346 0.38840986970724073
Ni 0.33019550525945973 0.9223579390848327 0.4403849618612942 -0.9466423887689955 -1.1783628040695706 0.7853653149916474
Ni 8.423874164098324 8.892049274707437 5.953804333067564 1.1686813151157485 1.3055367655156225 -0.43345071199696317
Ni 8.177295176898603 0.8405183976525861 2.3100527100429007 0.6064674428087427 -1.257262503890267 0.8845186228550572
Ni 0.8652054117401332 0.46435160540270687 9.660101400876176 1.2065243541054511 -1.1903186908798662 -0.8254740100870752
Ni 3.5184137224350773 3.608436560566765 9.590972126198611 0.19524186075856698 0.1826174871263371 -0.17532763833314322
Ni 9.008031750251329 5.805397669304368 1.4962349828675785 -0.028984560157808148 -1.2896951704976758 0.8635952424388288
Ni 2.7493547680714787 8.371250485219674 3.4814775914470246 -1.645550503307663 -0.2942704701186545 -1.2271029495877512
Ni 2.872531557022661 6.246683329149682 13.292113895535604 -0.32558342129932316 -3.0215000142188932 -0.7545370167568811
Ni 6.721404701436185 2.76651405083273 8.316078742075494 0.3216131237976655 -0.1782538108410027 0.31568673101090144
Ni 1.4024778640430209 5.730824760095646 4.209284765983602 0.5022752869698447 -0.14508272340567271 0.11324783828326303
Ni 6.706386806999821 0.03006208662409026 9.502776042580916 3.1437464564563404 -0.062137649871009115 1.3186344792398452
Ni 7.000902838103989 4.277573451823111 1.4165481002250846 -0.18919796855733223 -0.1722392292158066 0.5480409232407336
Ni 7.720700468941171 4.980023958817911 10.825327526603003 -0.48292439324705866 -0.31164727083420524 0.14284997742041206
Ni 2.8799606717813635 1.4690393511415363 10.66147281232765 0.6126452894846803 -0.05898239207147907 -0.41199896988109047
Ni 8.636388171235067 4.26383287673843 8.793457126454586 1.245939879788596 0.252054755982553 -0.4842348845283661
Ni 7.565074133224733 8.346211269105009 0.5534183324314411 0.4869520263492129 0.1695629679352241 -0.5536680396195238
Ni 7.366920576740399 1.9838835783574684 0.4706283151286752 -0.4561800352736789 0.002577016698556852 -1.9558893397430899
Ni 6.755375760958598 5.478554188137679 8.52636777160625 -1.6757072293967015 -0.3359439385980408 -0.702676580442164
Ni 8.640614595560498 2.0356713644250872 9.82078066167502 -0.694836515572455 0.6335828109682959 -0.15055814469794715
Ni 2.7117677677373093 3.6505411389021174 3.3703536254665667 -1.4703768740538805 0.14964566018600678 0.8201860222152584
Ni 5.1908567882785395 5.401257583252568 12.16726045337611 -0.7655367103014945 -1.3435065598911766 -0.24062980197506298
Ni 3.8265951921914736 0.9859120904744522 2.3244169175169334 -1.2457208217992546 -1.0846234681328804 0.6266230918210112
Ni 1.2972586824478938 3.063218430532066 9.078690990534701 -0.32863866318587914 -0.262547942204393 -0.6074393198037087
P 5.43123701980096 7.091113517316806 7.173918561906063 -0.7325890517308803 -0.7448856097100462 -0.11449610886806734
P 6.159346618478158 4.507641207991479 3.7501063039552234 -0.1525101262179954 0.7350742800465792 -0.13818985294058136
P 3.3077123817312404 5.880149027540163 10.979545993416368 1.9868500497906623 1.7402522031576224 -0.14139396170017585
P 4.724992122967327 1.533158904185358 11.757733085117493 0.8228918511821958 -0.4831665911648518 0.14601320563974207
P 0.09329409055957129 8.204889031716641 13.166253796740476 0.21456215835373368 -0.11931461330263321 -0.5508758215863674
P 2.4349275823675005 6.6680390502870726 5.904758087579041 -0.7325432860946094 0.5060774343247543 1.0317443607456618
P 6.241959125959255 3.690983323669467 13.152466261385513 0.31172363259809543 -0.14664903945152807 0.2284121768629486
P 0.4181671187852045 3.8473422396023134 3.3648959028543266 0.20305210083160513 -0.1661223176847913 -0.06959564881095111
