# total energy = -340896.7552110913 ev
CRYSTAL
PRIMVEC
9.01996113788323 0.00000000000000 0.00000000000000
0.00000000000000 9.01996113788323 0.00000000000000
0.00000000000000 0.00000000000000 13.20162487694319
PRIMCOORD
 96 1
Ni 6.234479773858587 2.0042533709559436 11.35329139734276 0.8861312187578158 -0.12996720792047295 -0.45713879964252235
Ni 4.581021705599503 0.309375641850289 6.07971798925336 -0.3502161322463388 -0.3213696403282917 -0.37136602685107656
Ni 2.8363988916574296 1.782470570238287 4.7147354112444795 -0.12137818069988131 -1.2149125781691463 0.2649740351473823
Ni 3.536284724424841 4.248248284952175 4.835675950137533 -0.7251937877080736 -0.04128523190203212 0.4800136473581669
Ni 4.972208393590558 4.770675405285913 2.6460019471857934 0.5003130210371513 -0.8595223579210358 -0.4519963362096344
Ni 7.285702106982004 6.086985371819579 2.6186480135004033 -0.01547521281746367 -0.4116336161218717 -0.3955346536774801
Ni 4.739313000938456 4.465954063304272 11.027581508143374 1.3163929915038362 0.4675998470748463 0.6305414530388108
Ni 5.566957561108051 7.825321272954585 12.46588464301713 -0.1959985364189334 0.2913928914605433 0.32309922142488867
Ni 1.989253175836639 6.330957276562185 0.3595221149505741 0.3904356418880179 0.015736951119282576 0.813071008437032
Ni 2.6882730923494194 1.3642871390168783 0.4176954513320795 0.5343834803582991 0.2513281622291736 0.3618580873606413
Ni 0.6228580719373905 0.06632377312823041 4.580224341048363 -0.5839669477133814 0.18696419413080703 0.7731847137650556
Ni 8.635467108811822 2.3823791554396303 1.407755233003313 -0.01435626872167205 0.12264239212428554 -0.028814867349163276
Ni 6.764528761225286 0.8089858688744703 4.871993921050564 -0.029383595368439718 -0.6027434569899361 -0.7300207767830719
Ni 0.729014894774798 7.558113948712684 2.580204939779131 0.10065354655802021 -1.6149824007128186 0.046676063900300255
Ni 7.565663656057757 3.890697031476987 3.9192055201685534 0.809889782495573 -0.0710758329009034 -1.2249856461344322
Ni 7.7324878344892305 3.8461113643244182 12.528460622355782 0.03186985212540317 -0.4197387617275094 -0.11381553786127496
Ni 7.828252760274954 8.94452705202761 6.91691198211857 -0.2714460160249712 0.8119320097365823 0.7626815002408864
Ni 6.906006849286797 0.702385263956564 0.37856415458759407 0.007763445995502759 -0.18813481740014049 -0.3618498598305252
Ni 1.844636141352086 6.428084216456757 9.372652284247513 0.02144120059291146 0.41822566751709256 -0.6625264905858397
Ni 0.23202496641697742 4.845946979712009 1.2469789384127863 -0.49891022715235367 -0.5860158598226102 0.9915454199292728
Ni 6.231223567942731 2.112231323916374 7.048386933446884 0.7951673886837337 -0.04932430015642473 -0.4348285661810963
Ni 3.611493159124037 4.114058325367151 0.6613264015494233 -0.9563200210680757 0.8819218086621585 -0.7739267341374025
Ni 5.924373515168453 5.57715011702195 4.740135621380356 0.06062275588837947 0.9133288622185303 0.6735495811692206
Ni 5.362204446731493 3.014489001360106 9.16174304649818 0.012512016424081677 -0.6617158217590863 -0.18374697274509
P 0.35530077320924247 5.531608334004892 12.295742020939002 -1.166814437110339 -0.13305998791318374 0.06572870965637713
P 4.170054243166696 5.87639634268524 12.608567797866339 -0.7793916139067157 0.6405214470696582 -0.7959870563715516
P 2.3337164659215013 8.237001312305267 1.3853523559030023 1.3803445546551325 0.9590865280696192 0.3184624939838257
P 6.358612476944499 7.826665247141461 5.838498074607507 -1.052705022157729 -0.6745924206114382 -0.1928489350463582
P 4.661010719621147 1.0056174103794577 12.548685178878033 0.40356369462954367 -0.017649337650647023 0.8554492162929267
P 3.908033396491602 6.235138231010547 8.172082849098617 0.6459940401484552 -1.0332438281093237 1.151116566759108
P 4.764190053337157 1.05648097037811 3.909186147505581 -0.13708916367723487 -0.5212747108904829 -0.9603204004767202
P 0.16659867940682926 5.42225032701364 3.556557086740318 0.8819338928470167 1.053127197296812 -0.027962546651197
Ni 1.4757738568007663 1.066024089101035 2.652259094121609 0.05063067767267409 0.4946725349219222 -0.8667579564375266
Ni 1.7201155799437873 6.565034284103421 4.750974006500835 0.5120061411043634 -0.4426184945391603 0.1409375908890476
Ni 6.1591540796665765 5.620833788075944 9.047403315054499 -1.7115082982557106 -0.22864666147125784 0.574184928625953
Ni 8.653470950939383 2.2279844832465225 10.168234491097158 -0.09690410681791697 0.5077252543408224 0.5436121980454186
Ni 2.329017066247925 5.293878242264426 7.007725851319215 -0.8813764776816498 -0.147690593342165 -0.22621619765289427
Ni 0.44005052263916594 0.010432486876120127 8.994583325518038 0.2593309779289921 -0.1286142934370043 0.5376014730749645
Ni 1.5402395179659316 1.1333851577426268 11.421662701614757 -0.8271100030286013 -0.5930532262853657 -0.21059494617586955
Ni 4.209778151347945 6.803729511669361 1.3845604033284533 -0.19589080719647553 0.7781942511645049 0.811353768635609
Ni 5.528406247854949 7.918073531771067 8.185244776169025 -0.3429563653601319 -0.16477197430448398 -0.37325321657146043
Ni 5.555673589914876 2.9407237604186305 4.68117754839309 -1.4076080183567758 0.08975669713985832 0.11878599449267284
Ni 0.44366301701395944 7.45226470654489 6.76283571454826 1.9182674156252577 -0.5305131987696154 0.23275682698488945
Ni 4.969303966153146 4.411175840237803 6.994788521277352 -0.11358953789339792 0.756908088092219 0.24361973784132238
Ni 8.07264860318389 7.105095428164303 9.2900492855322 0.21157890735569365 0.9177539878694195 0.45817418288557227
Ni 4.444928534246485 0.45061289695348095 10.364014548285091 0.4017436107016694 -0.643414452346737 -0.03504850696370093
Ni 8.114456122352848 7.199047341791889 4.668767886068893 -0.19616334413157185 -0.07199963026675342 -0.06585006572558981
Ni 7.315422878430056 6.2342723147559145 7.07362839226941 -1.0514222987905633 -0.26277394217227 -1.136576978382036
Ni 2.3709689047926545 5.105243798169406 2.6006008755601124 -0.5488893872839579 0.11737523018807529 0.16171338998381826
Ni 2.3571503245624834 5.254046094551348 11.42426315636695 0.5160319744343048 -0.12856081449124954 -0.342726508737513
Ni 1.102536891171357 3.339568395286588 3.9100701036821848 -0.6273450575887002 0.20978427734911612 -0.7940595003315357
Ni 3.764606996857168 2.532913284330836 2.4995159767849926 0.3108438010963034 -0.0038833942148062146 0.5787725479966355
Ni 1.2296101015386234 3.217266744280784 8.127699229072128 -1.338420403617521 0.55420025797391 -0.06679263214451722
Ni 3.57887698019956 2.4134258611525867 7.008874994348799 -0.3918242947054284 1.0172531091080221 -0.1693058576190955
Ni 4.193109263446276 6.861285882719441 6.113263224159369 0.026801179353244164 0.2382517886611897 -0.8234227839850012
Ni 1.0734835968362515 7.490951319212778 11.601244712864476 -0.07411744794070461 -0.2173034685442967 -0.7825581845601555
P 0.16261636663162 5.726159872506564 8.09382386359404 1.0864065281752322 -0.996924167742683 -0.4739985515123386
P 8.390539088204727 1.7558616853303202 8.040409458628616 0.17816922154699635 -0.17911230218655605 -0.4937628786234593
P 1.6511128784027884 3.426656118604018 10.462063328192407 1.330460525340496 -1.8647776712372335 -1.4828210133545041
P 3.856980417312249 6.147942268161287 3.914136302094561 0.19988758706069445 0.8773850971340695 -0.41533600467412346
P 6.8540789338918255 3.951248029574337 10.403619392981327 0.21898111335703577 0.07467254911322624 0.052078980083426436
P 6.234921751946889 7.813766702931837 10.393427739063526 0.3903276555552439 0.18273215832733045 -1.1811018002672884
P 2.3513685295706166 8.500330053323294 5.77664820212821 0.16288298481188723 -0.22870476840270293 0.13777436266971754
P 6.870675662105609 4.057927108152819 1.5962480637108567 0.6261862613939086 -0.6178561442616585 -0.0649003002178108
Ni 5.504530411125666 2.9616500699055743 0.1991751705029692 0.16489513014590956 -0.43871093195463806 0.3457861214994432
Ni 1.327891596439371 1.0043546158414525 6.919539496753719 -0.09384989337262546 0.8271526833410786 -0.3346802413942688
Ni 6.804929166480466 0.7153956556824118 9.208317615048108 -0.10840722236151006 -0.18750181180183192 0.39425887228885004
Ni 2.5826493492062697 1.512178419339259 9.10290313499983 0.39553928166317043 0.3542262818469964 0.5258160504042622
Ni 6.28169024965801 2.02449416340797 2.45967390711483 0.9832042470534293 0.6058668331102662 0.34002813596974346
Ni 4.207613360711365 6.907269643824802 10.413084940039775 -0.3320340620206733 -0.20122533203551152 -0.19086944272248418
Ni 8.36902648125371 7.015283676629175 0.3761080192111739 -0.9871933136081643 0.028487823027047714 0.003556349892690649
Ni 7.712634900359592 3.942552787184072 8.0978368442366 0.303500987577987 -0.502168071968019 -0.1528723946534206
Ni 3.1386938641339035 8.336852280417535 12.44303257185973 0.5951383909491685 -0.37614056542158447 -0.22211965898601746
Ni -0.04259856974740837 4.7120005590736 10.170677096532101 -0.2786695303566039 1.0408805187189751 0.2963733753942702
Ni 8.420097500355036 2.2603571232243844 5.769572042734887 1.0586201020905832 1.0913774990272622 0.5245158435355999
Ni 3.4291817076800286 2.575559659871469 11.481202562085603 0.5839808316704523 0.38971316189969657 0.0894283672661621
Ni 1.137705719054802 3.370930799634046 12.6039080860211 0.053991623725107005 -0.5838525336227042 0.4341474809536716
Ni 2.9236309343506317 8.321464226975843 7.965622256107456 0.43136786132600546 -0.2770232530024326 -0.33428814816217267
Ni 5.593512326250103 7.911606219744282 3.6302880518300475 -0.120937750728353 -0.4706754006763765 0.383737661042552
Ni 3.067400092502524 8.269960249747202 3.633364760522287 0.6262996470433214 0.4421914343040707 -0.3030754700047942
Ni 3.3086118891834895 4.119695800983245 9.096011884806716 -0.3968155772724327 0.953889557249712 -0.05280171718206391
Ni 7.0765652915663715 6.003884471257852 11.340881735018565 0.6395745097753566 -0.0048095055735013935 0.20207611007158102
Ni 0.5565784966179904 -0.01185673871577028 0.3899419333750209 -0.16348667983415713 0.3918451206410348 0.24114505104858472
Ni 4.819238875233199 0.2795484348626061 1.717967025236981 -1.0811828178824476 -0.2166738053800978 -0.685805001497806
Ni 6.157440287079284 5.634011951076127 0.2928420533634066 -0.1719011291500975 -0.2519817366527725 0.611948777638288
Ni 8.058532364241188 8.5468550120878 11.42500279316778 -0.8552466133638175 0.9557937162509602 -0.16409191751832383
Ni 9.07579454425325 4.985413616473698 5.827988918063008 -0.01766810670372441 -0.9296543388514311 0.14437978380137717
Ni 7.839184952989685 8.84296229132805 2.653949434810339 -0.3791377003766954 0.7226689644036909 -0.11073869870816412
P 8.401777959592973 1.8119297628177513 3.593165500397089 0.15262839696341457 -1.2557203562141277 -0.2981317528462737
P 1.8834580534347602 3.0433979763194396 1.5729603284378437 -1.0136499651377964 0.7233348801224638 0.27352758114434833
P 4.7274066524372635 1.0719321635467023 8.20649941223585 -0.25372237349296306 -0.6443865864520193 0.8068078011361395
P 8.589943365716735 1.5013544661563574 12.362951554236032 -0.6783007227009609 0.8931873542736488 0.1952871121742056
P 6.383615808797002 7.696236611287496 1.3904351039184732 0.12918147879438396 0.1219340532033513 -0.02567863571302674
P 1.7648816463160717 3.2994656487439373 5.9704483778797695 0.31495422372025117 0.06147096282128769 0.4093116528569144
P 6.879587383559531 4.047851811731735 5.994554223614189 0.35481223625745345 0.5096098729580448 1.0427178290380301
P 2.3691198127905757 8.558220162929848 10.116074762704852 -0.33166356605513203 -0.6001188748828954 0.6797389978093842
