# total energy = -381170.90966903226 ev
CRYSTAL
PRIMVEC
9.22315544911971 0.00000000000000 0.00000000000000
0.00000000000000 9.22315544911971 0.00000000000000
0.00000000000000 0.00000000000000 13.49902029062416
PRIMCOORD
 96 1
Ni 2.969791511670806 5.04444811176842 8.436603884483107 0.5234686332180081 -0.5545198460968578 -1.5016965101027686
Ni 6.441405691407368 0.10831858292374145 3.9116518513659617 -0.951324367625697 0.29928309284189747 1.1444589522332742
Ni 5.320395701429311 5.769941524072494 11.735332781158187 0.5831567931072602 -0.43897087048424405 0.8419555526818662
Ni 7.911659687872918 1.175804756854469 11.544672632800589 0.18689143191134264 -0.22689882554221566 -2.119804108253601
Ni 5.323660698479344 9.063862389780956 1.8886071071787514 -0.6337720441609667 1.86062379696986 -1.134081208543376
Ni 7.152538650584599 3.511163070557308 3.672165240061549 0.4755566400280778 -0.9755032788647459 0.2083012650456864
Ni 7.780349622897414 7.940269916260499 2.4151911808383635 -0.4990125570581729 1.1277897191077093 -0.450323833603218
Ni 1.0739350042623195 0.8612158348748767 10.580208183585032 -1.159864231044751 -0.6996249381000338 -3.785207384621133
Ni 5.519809546680091 6.829156372143137 0.6740088359396882 -1.119723140049491 0.11103154735823459 -2.861200473863466
Ni 4.939507048391918 3.3344566341686255 7.1612167176026125 -1.63349280081218 0.07347467215038314 -0.2537375430016146
Ni 2.6872954815988326 0.6521370449666666 8.675118375196917 -0.8575881170128005 -0.47829537911547954 0.006854303917672066
Ni 5.29648005919559 8.16469695925052 11.837844465373731 -0.6718079158877656 0.6742414650299225 -0.6753308414393594
Ni 6.946299670257477 8.806084416471949 13.533307628416429 -0.2919328231244134 0.750237618050579 0.1428188670721605
Ni 5.86957927303157 5.335106634465479 7.673275243651779 0.27069525390187577 1.2934839481161466 0.8997158994207859
Ni 6.678283994333958 2.248965016054069 8.175573826541777 0.7428482675650432 -0.8829739040757567 0.3191536065135794
Ni 2.7705805758412145 8.288250350443317 2.715003685377677 0.6772645681269627 -1.8419933263528665 -0.19155772703876042
Ni 1.7857781464137106 3.916825119290719 12.276805794755282 0.742485999129618 -1.6527045978539407 0.35201821845208403
Ni 7.993948681320374 4.923698559850229 11.65778080037993 -0.9385089610285836 1.288167935219872 0.0691441630958293
Ni 5.733067348349234 4.794436035397628 5.391049684202707 -0.7062555560426739 0.6678774704851078 -0.6433319199352597
Ni 1.1829895949956446 2.8364892451054518 0.9307003215297865 0.47197920708946456 -0.5712759825092741 0.7532830897451219
Ni 9.103300602735601 7.199705867855424 8.407864531918404 -1.600558769088321 0.7878621132715722 -0.7181813609459824
Ni 2.535777482904053 1.0272381679224323 6.115393891330413 1.204568773040977 0.23083312759961536 -0.0765365989051585
Ni 5.482345089004282 4.85180406266093 2.935686127231218 -1.411891476223478 -0.6807939214364598 -1.6590102283569945
Ni 2.7245201372314187 5.297033448526104 10.72849531090516 0.8328260795767721 1.0835513181146241 -0.26882220524887895
P 7.152889130493925 7.021920322272239 11.914113505220746 -0.52016116611133 0.08452707330980282 -0.46424070079462626
Ni 8.218735427375229 8.018841978038003 4.773874854822375 0.9289583412256711 -0.1104551060294743 0.6455752074434817
P 5.390915948447832 4.5764928707301324 9.751584213330787 -0.3477188197457818 0.05865251953588608 -0.22128045091417375
Ni 3.190086580992988 3.39503431954891 2.1755966586145004 -0.4728968338077275 -0.5406276614957979 -0.27256316034854994
P 6.653602830193026 3.307303664351397 1.3386183541005934 -0.4630515655825315 0.7737411004891578 1.9123847315922353
P 2.81122702216748 2.564258587114516 7.575542076305222 -0.04591553158519189 1.4597952418832922 0.1933479861699638
P 0.9661347626781596 6.36395885460191 9.964976673070355 -0.3311650291521587 -0.9927327553691547 1.2239916576522791
Ni 8.94243954751064 8.251154818987851 11.530593485916759 0.7878708550223205 -0.1284165756039014 -0.7878646843747333
Ni 3.7024144231830043 6.433049512516605 4.13863739769406 0.19180403872161159 -0.4798611809407027 0.566992781752888
Ni 7.36703235509189 5.730364963785223 1.455356755688108 -0.4919456229090624 -1.3072321509401745 0.2171422603760841
Ni 7.497521559227132 0.2990894091474413 6.771283838273517 0.19137440738336073 -0.07238221041715275 0.02532408058708542
Ni 2.167340089803229 4.468701852301481 5.725312519197629 0.9317999244395243 1.4833275206772778 1.6412354208720765
Ni 0.50647667233538 4.411831875435642 7.537056615314614 0.11376051625362343 0.16618685237413958 0.10339897051364128
Ni 2.5419938897168293 8.333536043990394 11.135935584020622 -0.021112099388266865 -1.8963148226135669 1.1077525979511762
Ni 5.384985459455822 1.5185095460863847 13.28974530469278 -0.9749872584602757 -0.6688963986679255 0.8897773001508353
Ni 3.242206632771914 6.493156816965952 12.992537419269086 0.6701495543487362 0.23079816059662184 -0.2353361576762915
Ni 2.2831552535243356 7.555987141995954 8.881248522289036 0.8503193512655293 -0.2318767383727813 -0.9268595497151134
Ni 1.9147916456675802 2.980896190903124 9.886844555810612 1.2087804971294795 0.5669745269204429 -0.7172701619856229
Ni 0.9452719849177754 6.088204951206701 12.161820715029947 -0.2890405891782828 0.9928155448909483 -0.3806618503307057
Ni 4.3283254254610535 3.656104959374477 11.65448721154782 -0.5961925432452958 -1.2474720001624064 -1.1440298351156557
Ni 9.02412903585004 2.297515706651178 9.114268779266391 -1.5329937775541533 -1.5904121675726222 0.5220977210124105
Ni 4.580855423285685 6.675461708748335 9.699896727545212 -0.5673753619032873 0.7427809046622176 -0.47352881096477156
Ni 3.340958958802167 1.216211401137512 10.969155107590263 -0.6447072030162315 0.7348673062420956 1.4753280474115689
Ni 1.7332338294813903 5.327193167039126 0.8753438644829035 -0.10872501071224501 -0.7431943380505522 -0.33431257364220496
Ni 6.209517115610915 7.782775312796168 8.103340839545313 1.1317551315133605 -0.9030891867683932 -0.4209649208251266
Ni 6.79147978189063 3.1170207430541006 10.544192683639618 0.8284536615406893 0.8727527405683807 -1.4251025755971134
Ni 5.655223915856908 2.1935061819810406 5.376754715479975 0.6725720477472997 -0.6047897979960036 -0.8528058651328089
Ni 5.118122677970874 2.1309916339439567 2.85556918690603 1.5018204372751427 0.9423656157705126 -0.6155406087546044
Ni 9.295280584646473 2.2126534528168307 6.915642823662544 0.5745402550828428 -1.353443102278598 -1.4192422601615944
Ni 0.8753844463671412 8.694659474772921 6.283389057341251 -1.720674538136011 0.6055415885603636 0.6139953757546717
Ni 1.5353418048895238 6.486497698688765 6.846190618051914 -0.3856379633890584 -0.8800742139304586 -0.0933007057373748
Ni 1.0194722709842168 1.2286626610740807 12.615374921057155 1.2169977428329493 0.06899375356089409 2.341211314553626
P 3.4831339009667657 5.949746940712056 1.8681971863538378 1.3591851469686977 0.14413938565579693 0.5409945579169134
Ni 5.576928548744662 7.124398803127954 2.7652874068948465 -0.024619855431209214 -0.27476582442682357 3.274076961253503
P 0.45223806173613545 2.113421522700132 2.8630611561256405 -0.6633423016189156 0.2915016491242657 0.13888096547033502
Ni 3.7973299165216927 3.9081553531126634 4.317823940598997 0.449564072619058 -1.4301347387043823 0.1562845056587631
P 9.043303976152357 2.9345037186950194 11.835374504328536 0.03463584490631454 0.9230802851783393 -1.1769664379426763
P 0.4081255535697495 0.20546976915770704 8.384862904395582 -0.21051087110249553 0.12499572284781053 -0.23300493843995357
P 4.0952747320705205 6.149372918539534 6.603166926609965 0.31051984209798134 -2.19565062307027 0.1499066271568773
Ni 8.184268495239705 1.5955874566714996 4.711171232097365 0.49711122627040194 0.17668518080230214 0.07703899246287377
Ni 7.406904056355437 1.427172637085021 2.1123405688745276 0.3389490439729517 -0.6056187216552023 1.746009931577006
Ni 7.535991340853375 3.778514679284211 6.5982675864038125 -0.6314835052371061 -0.45588641529266005 0.21982983451057625
Ni 7.094976937055617 0.025476200145770563 9.912735797954266 1.0160331206579922 -1.7419313906322582 -2.3157648494560634
Ni 9.03948558977181 4.319028484708416 13.550181391419356 -2.152397725918906 0.7152683010642454 -0.20049719562023532
Ni 3.6804540899171 8.794297223731997 0.18672647253319216 0.008998603954184503 -0.3656566351711251 -1.1277894619973932
Ni 9.025134359800475 4.448991968979668 2.31991506211929 0.16212836603404981 -1.18226856688188 1.6711172960331737
Ni 7.353345192317174 5.909487866917151 3.94461633146914 0.7574590754996826 0.44521376607016233 -1.1856549668556096
Ni 2.4406314106776508 0.9412414659605306 1.488699385167137 0.3468395024646221 1.4242906212187794 -0.5556706718718495
Ni 1.4513741971395075 2.587178128553311 4.891694210235494 -0.7939432864686455 -1.0024031885793834 -2.0777418889762282
Ni 0.8388653621309604 0.15631957345254036 3.6806154951385004 -0.19151401828501854 0.14383830947561035 0.2559366075354625
Ni 1.8174596855856466 5.078758250260298 3.1936928347968383 0.5622074445491028 0.07550815764064416 1.7054232684038952
Ni 0.4846565310332063 6.84660658236535 2.111017046059048 0.7086186569582118 0.42959431436535045 0.5606511558055763
Ni 9.095193449043567 4.394676806189702 9.74087981904754 0.6202588401658802 1.4974277075240856 0.867818536491557
Ni 3.122794438402465 7.89204203610619 6.13746490246242 0.873724617563347 1.5869717744325058 -0.32549189002678136
Ni 0.21567519072793914 0.26300934711346846 1.188184076178071 -0.4017374400540823 -1.3152516788105413 0.3563574692573863
Ni 3.25603214287926 1.1882006778579866 3.6273084232456214 -0.35132710592233046 0.3243639470699253 1.6775831062631754
Ni 5.555632282675375 1.3075944259164183 10.943885506127883 0.38262668736656036 -0.6544010332652278 1.101074414600052
Ni 4.402839298814786 4.440100847069407 0.4767836454910914 0.47406334331200295 0.22619974259266204 -0.44112699759529833
Ni 4.424273912216702 2.114233160384886 9.071746343109682 0.4962205961353324 0.965364390658531 -0.011809076819786114
Ni 4.77153494026985 0.1936207812758478 7.246193338565266 0.12119357549290094 0.9979811482522879 -0.2989164535310981
Ni 6.430955856216159 3.515553292579387 12.821909964676102 0.3735874599824276 1.1863558495773763 -0.3875863453646809
Ni 9.126008011597698 4.444620193268606 5.061079305781473 0.25942430897374674 0.4757211906304001 -0.9144071828843735
Ni 8.487037021119514 7.15118284672484 0.06247765541504952 1.264216309500281 -0.7014655908531983 0.9411083463246437
Ni 7.178944544805634 6.072746942574339 9.718080178630357 -0.3956292702738154 0.3722862246725008 0.37437061800535526
P 1.504702482290056 8.012782364868873 13.294509986828507 -0.21153596993290025 0.3977002938702312 -0.20847712850191838
Ni 7.962304034770472 1.725569387253769 0.01114157185435191 0.5892752473001722 1.9929219670163552 2.2233815133266357
P 3.238711056834166 2.294140031735042 13.031549522439233 -0.3364689578635754 -0.5815372552259662 0.847919740685101
Ni 1.3642246007390346 7.204022304633434 4.468648357999531 -0.3529255607577019 -0.9536077643432352 -0.11232815468247108
P 7.762087774990446 5.949368791336205 5.990973523519811 -0.06761127139107065 0.3223296902487158 1.1856413400088548
P 4.28734694553648 8.627773151024776 4.412708075208955 0.6763063179787513 0.4415635709120847 -0.4923932519694423
P 5.004235153751058 8.871596490049319 9.43385757384718 -1.1602694369029696 0.8434899870485215 0.6373137387656379
Ni 6.06551598865562 7.575770810561835 5.642131646612493 -1.2604948947846355 -0.341966747753353 0.2633755803120109
