# total energy = -340887.25919065304 ev
CRYSTAL
PRIMVEC
9.09689640017293 0.00000000000000 0.00000000000000

0.00000000000000 9.09689640017293 0.00000000000000

0.00000000000000 0.00000000000000 13.31422741003495

PRIMCOORD
 96 1
Ni 5.540746800392565 2.8418613611257566 9.051038107734614 -0.5801496308498202 1.9133342399896984 2.5962745183451994
Ni 4.597735221359408 0.47934731427591015 6.053406949550926 -0.5397156912044898 -1.1361054380622562 1.366238968491686
Ni 2.896815712716385 2.1118536129971783 4.892672069723234 -0.18083802662841114 -1.1048027712942328 0.07050941887447211
Ni 3.8535181209407185 2.8632663585256486 2.75679082407313 -1.2748779029791852 0.34235215611722974 0.10740860589366662
Ni 5.194582598922912 3.095428253401402 0.7665163227418325 0.6939348296937919 0.39749563405859284 -0.5565427900641576
Ni 5.280639239553162 4.811421319499428 3.0542575193459705 -1.3819982882084716 -1.1442357804788745 -1.9593173915880318
Ni 5.002183238528641 5.035214069620443 11.603921997375709 0.5970757171811976 -1.4027704877588163 -0.3196408305626431
Ni 5.764676003960668 8.003194803441525 12.756867204753961 -0.7281474710197589 0.9137009008459684 -0.21522910251377125
Ni 2.4189739348066808 5.513074041323092 11.53965424317649 -1.8070150105054688 -1.2373405681553593 0.9691724515507116
Ni 0.8447660068193473 7.8203562812398975 11.12181377502038 -0.14996987629464495 0.9853606312747998 3.69992517831286
Ni 7.848156396859987 -0.06043796078427685 7.1085859911594715 2.174875081085816 1.1744768387516031 1.2985320520630153
Ni 8.78259869941601 2.846800975910347 1.6413384755064595 -0.461488849081102 -0.6381493472930558 0.08898099531609836
Ni 1.544480180004712 1.6272073565260126 2.603903833507347 0.9129748213132212 -0.8022620907469861 -0.09640659835620816
Ni 2.014371270397415 6.715156134997782 0.7725139065861797 0.564547405536189 1.279808250401267 -0.38383716273489377
Ni 7.7927653942386765 4.29853829637749 3.952980857902555 -0.7044681251249479 -1.0369467308822078 -0.2891233787000762
Ni 7.525161990705898 3.920835154837532 12.745683480230618 -0.44825538110996344 -0.4835962225031026 0.052015730945658804
Ni 6.994612794634283 0.8244790179959306 9.27973681412327 0.8979660066092149 0.03444995414775357 2.1265897637168667
Ni 7.050840711731068 0.9418380793881994 0.8984185925247548 -0.08212643428811017 0.6572978951970486 -0.8381968569703823
Ni 1.7111899047605232 6.845460080070479 9.471474830143988 1.925844456641567 -1.807553913728074 -2.612980775356287
Ni 9.285657074347602 5.323058067804627 1.3217699605639306 -1.1377530009680081 -0.5128137246073232 0.05343497989068862
Ni 6.480947438415708 1.8773538157279819 7.271472290327873 0.5756684551500151 0.929679792772728 -2.35993408777411
Ni 3.594911548019285 4.885651994715373 0.470755295557594 -1.0008060192955925 -3.082497636948188 1.8499719736829687
Ni 6.020908286902769 5.793995301291672 4.8567238639326895 1.723234585553703 -0.19147622306854764 3.4334802150469064
Ni 6.4229456265067775 1.8598695807077554 11.474294861400567 0.6246441137177694 0.8261671794993578 0.608557749678868
P 0.40572067298574144 6.321615296699128 12.620276394529089 -0.8702315168084239 -0.6682883327702813 -0.272567274113608
P 4.1365953453732915 6.522374704951665 12.851424895137804 -0.4592201076515833 2.5234778460984475 0.05363912548169472
P 2.406010857333308 8.820896633565413 1.6332831736800235 0.7626308495086092 0.14874705963113738 0.28738762695589215
P 6.448844490764106 7.867614658414754 6.269682934116679 -2.73341047609997 -0.6035363852048767 -1.8669487107466236
P 4.845370937134956 1.3134008158091917 12.910766679897137 -0.29958982544903884 -0.4865604473377491 -1.143157202702715
P 3.8966283133240966 6.387449536470918 8.336743428883059 -0.4209140129825331 -0.2215784417705668 0.5659941652850445
P 4.753082922421014 1.1853347072687404 4.084192673243211 0.7444145836108986 0.8011963684866331 -1.4384414587978644
P 0.006160418291205678 5.988978180284144 3.6012720980328865 -0.16092637530614864 -0.3083212917847658 0.38787070937431906
Ni 0.7540453873676243 0.2861920017847713 4.513203220577956 -0.05529388747629832 0.9660128228758073 1.528730117181793
Ni 1.664349984823403 6.7267728717932185 4.939445582316105 0.9343656282841714 0.0597984602148712 0.3556547867634068
Ni 8.301891399117453 7.322128358335226 9.666142046828863 -0.22951209479534668 -0.30754199041658004 -1.526287054957939
Ni 8.72696208058994 2.5047212809568653 10.415813646372488 -1.1334464031728544 0.06271743363387908 -0.16453697547554244
Ni 3.492325846498425 4.473908266575162 5.037065288052605 -0.1856192500671384 0.48385076171606994 -0.130707171410291
Ni 1.5805311807253977 1.468493803769566 6.962448897776316 -0.5907672584646665 0.19147622306854764 0.1653504725157733
Ni 1.4092730077333153 1.3852572010458035 11.47425483505609 0.5699557210359539 -0.47190053133272925 1.3714673067701606
Ni 4.338974001197941 7.221462101970072 2.0577270789855517 -1.3080834431968762 -1.0701777250211955 -0.8011189782814784
Ni 5.585212430350352 8.421188099458375 8.301860469669448 -1.5949789610076983 -1.2596716275523918 -1.545953680148931
Ni 6.8261928533416345 0.7714659441125429 5.010410471698409 0.49547883287330147 0.6066245372118972 -0.7767243514871978
Ni 0.6598315596704449 7.623990673983599 7.100197742922141 -0.7736282290603773 -0.6459199923774102 0.8508446276413797
Ni 5.336794381478166 4.8306521586423825 7.328150503800049 -0.9358632958756206 -0.24174488941611272 -0.49379347475107854
Ni 0.697806553995073 9.480421627824732 9.325870814894122 1.130528458195111 -2.5217302672797217 0.7388617721134695
Ni 4.766982980231059 0.37659695892889716 10.541127034040349 -0.0489067530030319 0.09946672533877063 0.018287999675910438
Ni 8.264066503584623 7.59193321081436 5.1756001050536575 0.11887084089699528 -0.7327651722974283 -1.3070609154696329
Ni 7.394757979772004 6.17477319383935 7.240356355943543 -0.07457459008278124 1.3586860958450921 0.562633733453244
Ni 2.0877286435519964 5.383561526243507 2.8797208248651835 1.6410510727754124 0.5549726173635604 -0.1739670105401907
Ni 3.6157707316308247 4.523177057870451 9.616866887706044 -0.4916741144152307 -0.40946386216406255 -0.7187374905597687
Ni 1.1082658003533616 3.502323335721749 3.8830011624082283 -0.7492390015827355 0.3058180657469378 0.7967969538673568
Ni 0.5790356542702655 0.4445444077512577 0.6961299959751834 -0.6677188334200564 -0.7849523958239449 -0.36545377513169963
Ni 2.227848139918566 5.590752440302131 6.969851952125671 -1.0821652364003749 -1.0632408886920464 1.9585889980624398
Ni 5.458256143179551 3.1539394915127943 5.077846674939011 0.5915699568716198 -0.14751035901055887 0.7347436361800378
Ni 3.86930123632058 6.941386853373438 6.167882294761399 1.2936744668603979 1.7280906280944242 0.4283601848479333
Ni 0.9712574425804014 7.770705420292761 3.0127829489483546 0.8718016895090211 -0.25959503022365615 -2.672535237881152
P 0.216098595084538 5.784425366202558 8.248297033549472 0.423722943186238 -0.7161046809226119 0.5184765793200554
P 8.73064632366132 1.6969259710915772 8.354505119245697 -1.2492596881904485 2.8538854282592916 -2.8805182003554712
P 1.7317216000990514 3.4217157360785513 10.58664790398895 1.4262739701973952 0.6134266477353952 0.6238637839083191
P 4.084715744790382 6.329056558013668 4.180387804992111 -1.465282747360425 0.45915377319002215 -2.410873554936454
P 6.88056500355802 4.141953417395619 10.602451942230699 -0.10719674699317668 -0.12829110576963068 0.2706371469704307
P 6.385839385795277 7.953243744910796 10.249438687406867 -0.3355294767684415 -0.423285084317871 2.009580401508642
P 2.1336224862559723 8.675282611729427 5.988939063629313 1.2310822459504733 0.18595580747095072 -1.6097376073741116
P 7.091822230339871 4.141553153950827 1.8226378028249342 -1.151516373300688 0.9804909618873243 -1.2497507688942542
Ni 2.7471899595360085 1.8418213381062316 0.38577208871110336 -0.304594734862798 0.24117770405873298 0.9644287662181389
Ni 1.4177604121421974 3.465226191906721 8.32161892880781 -1.1616326357990834 0.9196632890769905 0.3805710903891123
Ni 8.030385426997956 8.791231654168453 12.049548935807199 -0.44131700211891733 0.062845217460995 -0.7592094825318861
Ni 2.84584580178073 1.7978378436614892 9.5018184380178 0.45807313853133363 -0.37599426965170735 -0.32221013395171605
Ni 6.245092203572102 2.397104995686689 2.8782826055328745 1.6566255301749018 -0.8614409150999874 0.23719557948253342
Ni 3.8627878584462394 7.097616953392881 10.798504616248342 1.38650646049147 0.5571783667656275 -1.3740301824013306
Ni 7.2818109131689175 6.284390796333485 11.785395075416808 0.6326297030264073 -0.14293430960410222 -0.7327839413505057
Ni 7.668574563595528 4.120784939304013 8.468328216979089 0.6447563110866122 -0.7223987414614397 0.6495637597775845
Ni 3.023335348856504 8.664984924922509 12.73190350145401 0.8746556140180484 -0.3387914353491649 0.12743389997565796
Ni 0.052106113305075315 4.833081030000551 10.493728564659815 -0.051527735565646736 1.6980367461318369 0.21552220827415783
Ni 8.598441127225863 2.5405812468516267 5.822418554320131 0.1796432349893616 -0.08214983132687788 0.06805941467208278
Ni 3.7538889107734352 2.925589196259037 11.856027018388215 -0.1418649877993234 0.5866506651931316 -1.119259313039195
Ni 0.748691863793533 3.5090732329043752 12.845566493809486 1.4242687668419083 0.32820568941351863 -1.0678107674509159
Ni 2.6492891596985078 8.60226182374433 8.00342222585334 2.228612679818588 0.14110445548421505 1.416648017071857
Ni 5.665865514475914 7.908668952195338 4.00529256106791 0.08584862033470377 1.579536401200383 0.10729804845773133
Ni 3.2516947410067347 8.648646898857823 3.8626705084817434 -0.6443397923744838 0.01958949209615336 0.33377984106718644
Ni 3.7160913059300213 3.090597801374482 7.167155449408289 -0.5387078187652657 -0.3329275203692202 0.11335402484382413
Ni 5.7442716651727554 5.831265286139677 9.444633527412105 0.9519504312454702 1.0990404148891588 0.25178170482682444
Ni 8.011818661297497 8.68570765508696 2.898147498359965 -1.3540732796634294 1.1617159395415089 0.10213475908923701
Ni 4.608678787815877 0.6977774439263608 1.674756834387991 -0.9867387425692491 -0.32230912142342555 0.7055359042678301
Ni 5.996392150909267 5.581155214523599 0.42927344764280084 0.2491100715319323 0.30099776154015906 0.9194360035575326
Ni 7.953853236974457 7.420056448862144 0.7837312896264716 1.1604422150354077 0.3979782301219662 -1.5598931730481587
Ni -0.03091216390334615 5.146550985547888 5.784379881720194 0.6308083335469523 -0.25493336308192865 0.43810877959426486
Ni 7.056317043407539 6.311017412308616 2.5379176755644663 0.23735858742295896 -0.15900910367877777 1.4115603181363043
P 8.530778411263093 1.7104257654568298 3.600739929589243 -0.8687055670822007 0.5937623365372483 0.10497788496498694
P 1.8376913471076972 3.702254926395285 1.481514191690716 0.5551857618156311 -0.9215093411467936 0.4187393739287176
P 4.4900006764350895 1.286974331556456 8.118975553295808 -0.42626524999211746 -0.8600100961907318 0.20516400496828538
P 8.533771290202559 1.6902124614948406 12.599160678437025 -0.4845354464879204 0.9647496398926676 0.3361367713351372
P 6.1111585968068605 8.252931902302231 1.6592857425571383 2.1403896457144365 -0.8034329711266357 0.8765790562930064
P 1.713400450603351 3.648501365139032 6.047215601811713 -0.27862993536792013 -0.8103420395416432 0.05565461324982673
P 7.114300661523523 4.182289056354872 6.3744127741361165 -0.34331863379555716 -1.2049289845938733 -2.0144315589533566
P 2.6486614738419023 8.83173103726421 10.534736464268388 -0.7446428975716208 1.1556391372198098 -0.8588168472135791
