# total energy = -381170.4204378748 ev
CRYSTAL
PRIMVEC
9.20862541571119 0.00000000000000 0.00000000000000

0.00000000000000 9.20862541571119 0.00000000000000

0.00000000000000 0.00000000000000 13.47775411801263

PRIMCOORD
 96 1
Ni 3.3170573584581815 4.308135662912397 4.5194551976916335 0.3481813612044971 0.24229587682357623 -2.863137028764547
Ni 3.9291086430625892 0.4400719182289704 1.0591825350349544 -1.2827706754637005 0.7055004230442044 0.41756283712211306
Ni 0.35520522690399897 3.0407801803839853 12.734281105225794 -1.219752422759951 -0.31169509335300516 1.3556858755661878
Ni 0.5913060933916372 8.567677409795944 3.5577634584887474 0.007909227544747668 -1.3878712020494808 0.1175400379007137
Ni 4.4555197118117205 6.111129256801443 0.3940287914250579 -1.5977832632257127 1.386786196515418 1.2766401370859304
Ni 5.560158784215105 0.1834045078605605 10.990070771327304 1.083132999630283 0.6901522227229082 -0.915753669609939
Ni 5.024695636736325 8.333391563366916 12.998700336422912 -0.018841558186535292 -0.12713796600179395 0.2068953858370953
Ni 2.128997348911468 6.866853514284779 4.641118635095755 -0.4495807847896064 0.4025100565540487 0.9372866585857083
Ni 6.516815247070716 8.47335346022545 8.39403956999303 0.44834202728649875 1.2238885564155115 1.0103378700454277
Ni 7.4821554436415445 8.47983633247944 5.666708104814575 -0.11745879104081706 0.4275993954225087 -0.21977764111640213
Ni 1.920237811982529 2.9134341002697246 8.781160971534964 0.6627782015853295 0.7298084036619495 0.40388611096596894
Ni 9.300987873151136 3.1528767769007904 7.563554166655645 -1.8424473831711494 -0.6816871226746904 0.3805926876556671
Ni 2.7826808287719738 5.400904817225734 9.840202614601898 1.7951074604346051 -0.007802269653238177 1.4947511891331868
Ni 1.3758699237798722 0.3797176667518659 12.764268993713182 -0.8125076797343942 1.8944744269707179 -0.3180508603677038
Ni 9.34187416975301 6.77071546551821 5.95187068549939 -1.1551431714199978 -0.6048918707915066 -1.3679315257027602
Ni 5.471792815253037 2.7004754301762683 2.8216351557731563 2.2189995822088555 -1.6913616481045062 -0.7233513351826961
Ni 5.065066250317996 9.06859900354643 5.817538021323903 0.12090921148326274 1.3348779376819009 0.09088721119987572
Ni 1.3430872174954867 2.9516130610155287 4.884742027640617 0.47750090823864216 -0.020456725192455092 -1.4147736828672797
Ni 4.693378504880732 1.9668150390573669 12.484079991585727 -0.09179018263011933 -0.46163411640971463 -1.1171291540700696
Ni 2.6908247907981684 8.186633700992125 6.6214860080965865 2.9345985271396424 -0.13453888645155537 -0.1466485252308958
Ni 5.803984766517904 4.619700293369111 13.240586061362194 1.2233985041529705 -1.8330381740421076 -0.12338724071011008
Ni 3.6741678499493267 1.3634290709174552 7.36750621617473 -0.7190087419432842 0.6102801316866134 -1.673301705279002
Ni 3.547254575227022 4.572285081386442 12.439252403329437 -0.3712331008176381 1.1552115627640878 -0.733024339496086
Ni -0.011104681322567603 6.669227205417027 2.1038504347762434 2.510532084571057 -1.5278448863633622 0.30576998611782175
P 8.053311223018717 2.1655279657176925 1.4591416811923563 -0.09561675546506113 -0.5726337820887492 -0.2712428988752297
Ni 7.8679047600047225 0.897305030680295 9.674304624414722 0.11909246998949813 0.6970996005750187 -1.9272004564488292
P 6.739360096164746 7.599031316720596 3.7205747174549897 -0.4205674282763918 -0.7467995389033074 0.12764550176583178
Ni 4.348312895361491 7.347488506365461 10.725003252904786 -0.15409392576534753 -1.1343041231874595 -0.08417997438302921
P 8.680740911975633 5.459517717647114 7.397534622613705 -2.432385203755985 -0.9471000451317044 -1.512498742924595
P 1.3932465998356687 1.715465609834809 6.625556220506052 0.8223439490985256 -0.7905100924173805 0.4739838962243192
P 2.9746806675442885 8.459153759919122 2.9351986863099335 -0.10520311360191559 -0.32497458407073065 0.08029220929284882
Ni 9.066075840197575 4.117682873200693 1.5061388215836455 -2.2949731095216928 0.2009152569942604 -0.6927611211006649
Ni 3.3759004745135814 1.6754909671436522 9.896337473938694 0.9834101924166484 0.8260052000001968 1.2592985604836893
Ni 8.243828473107946 5.972631531375275 9.339558200474773 -0.3044579521746176 1.3613091352902362 1.5801928038374593
Ni 7.977828120936382 5.535175783611303 4.047854787952416 1.7689022627941469 1.310718052606246 -0.3198015245102234
Ni 6.22535304577659 0.7123470277213705 1.2482715273307259 0.4814917745655901 0.21720268130037432 -1.1754556577251047
Ni 6.526999986719741 6.6912450286546585 12.139453633496194 -0.43918375782599844 1.347582272622447 0.9641937673891976
Ni 4.64933364978011 5.1779547886158275 6.070568945537341 0.5158807935684212 0.9779643388107286 1.3227832113008962
Ni 1.9319327661907228 7.355150082665632 8.637812142268736 -0.3750702151755412 0.3146770587994645 0.4686475716130703
Ni 6.5266132244545885 2.6268064272900085 10.781367407013066 -0.6302362630935662 0.5356615757397742 -0.12167180068090012
Ni 3.9775828469617487 9.005022654055587 8.803965211378406 0.2991671360893235 -3.1250247116771215 1.2673630826593787
Ni 8.780166439996 8.179073419570923 8.328631624917929 0.09545837551032592 -0.3686365437350555 -0.21907624417400337
Ni 3.234409945845159 9.244170654675107 11.474905817435037 -0.2601511598374423 -0.6852537569800263 0.2815561078757796
Ni 7.907511057681448 5.753733297924114 0.15434208622193096 1.0222320503798523 -1.1601030865284343 1.245687654568474
Ni 7.669412840353056 8.046229790116275 10.748791894799298 -0.6155452367402947 0.00566696847779024 -1.3235972225617592
Ni 9.029968820157947 7.542214098244568 12.61257622900755 0.8780618114861201 0.5375929884345322 1.2094872933885168
Ni 8.349617161252615 3.8338177878292123 5.656303279019427 -0.9061310589185103 0.5734675908439543 0.10171566927394739
Ni 0.9103720700672454 1.4721737278029356 2.9192677644357796 -0.07180216954396666 1.708158407946871 -2.1543023991407866
Ni 3.0972014279694995 3.465813492536262 6.674655690067208 0.30268157700048515 -1.5614569179908528 -0.3565541586492247
Ni 5.991831515252507 4.276301445040172 4.377277705571296 -0.23095551211009255 0.28215826023615276 1.3252530129976274
Ni 5.698361833629729 5.214135477658343 10.841882809433985 -0.719621950047251 -2.2648724334815706 -1.0264388893723484
Ni 8.886572106039841 3.7759415774366945 10.035400608962014 0.5166894055126456 -1.295750632663136 0.19611706427466868
Ni 3.666174763136167 3.108822713174807 0.6693095962352175 0.20270705878736056 0.7179558751987377 1.2637195723695203
Ni 6.908016069647477 2.5491224637464476 13.048609244153281 1.0215653633301311 0.21209904152522185 1.3241099005321197
Ni 6.920355627630926 4.042356317749492 8.90828328205296 -0.37413921872083955 -0.6187768563037149 -1.6325584619233688
Ni 4.9787077616845785 7.702370510519296 1.9635736029303714 0.2698308490190514 0.04024856310740165 0.11864561226006665
P 0.5358830607952317 1.7291035839941278 10.483859743169583 1.5166729289069427 0.026437111145606082 -0.33663967911348475
Ni 7.497202337481063 1.3009393392191853 7.167119161423814 0.6598746547852894 -0.5955554238819292 0.14150631890832405
P 7.749518672366503 4.517972609008547 11.877432328343026 -1.6250058463870916 -1.4461629958118383 -0.11931821284705901
Ni 1.8451414721653479 4.141496378383677 2.2380486530214627 2.7367405689144677 -1.7378369088479104 0.2214933382559282
P 6.883530334813156 1.998142782534749 4.825871285709135 -1.1279534983790833 -0.6643653435667913 0.9288107599042134
P 2.1104051343080483 1.6498173196377908 0.9548184212335982 -1.1766368225173995 0.013238867287777201 -0.16388622926542099
P 1.9973968838805254 6.8349548360350285 12.028019137142829 1.2028186231190898 1.0562559727337808 -0.6409562206142316
Ni 7.469594878649437 0.43299877308935336 3.2095650746217674 0.28342401432245384 0.24324050012503268 0.5730485010286647
Ni 2.3898224536302712 0.6165948203574182 4.637357832498412 0.45245579234455624 -0.6379382597235143 0.5641892508658218
Ni 4.308227749166004 1.9842838013667714 4.9473330542178555 0.5306553807744345 1.8527109698806867 2.1436929990560563
Ni 0.7625524531883566 8.300848281341912 10.50010007485586 0.9779609963766189 0.3052467666245001 0.5929483252763852
Ni 1.5180142648489108 0.608143144001292 8.63409185762298 -0.37736749585015006 -0.6746713534784897 0.11644063418894786
Ni 7.376560136629451 7.602595054735218 1.5324607563149064 -2.15872392524725 0.7751811753697939 0.049186746137295935
Ni 6.057157503561897 2.9852613780838277 6.553921402961988 -0.8246551137302057 0.4344405867140583 0.3038761115292186
Ni 6.550537233141901 5.276616000731251 2.3116504329425887 -0.5603292536897834 0.41218408930870304 -1.5391086322026395
Ni 0.4295188335655137 5.4542872184421896 11.58871245568134 0.5087590949219755 0.013791654467453666 -1.1388107528085614
Ni 8.294779797229156 1.0182805837699667 11.897648944460087 -0.08568072729827178 -0.5381938552433246 1.2538167114335117
Ni 1.1634637712080635 5.06512150207016 8.41114274987561 0.9544521146214014 0.4626363324219839 0.8146198409813905
Ni 5.889855198007201 6.193905590169517 8.79036683430814 0.19845625393080663 -0.5167433986790326 0.49395288314707836
Ni 1.5821983836135647 5.374586565944617 0.24956111417749405 -0.00011312853909657937 0.44286609177359215 -0.22965787634459162
Ni 4.537264679139387 7.270320225842103 4.270089306371788 0.45284660002507165 -0.33776582229812796 0.852254620615029
Ni 7.989246816383753 3.1187496113137305 3.445493739815159 0.5321484203801932 -0.046706660027919567 -1.2193875832213645
Ni 5.008322700844855 0.4341093333078637 3.5411446523001433 0.15895871005681655 -1.3887803441273114 -1.12052481001518
Ni 6.92216051820164 6.202773496391951 6.092079373517593 -0.3210778201194857 -0.668459568240823 0.510095811455528
Ni 4.57332565605221 3.9209129664914935 8.256418505701207 0.13474611736635503 0.4059548205695395 2.1303998814915763
Ni 0.6768468560930179 8.783122408736812 6.320392505537617 -0.8155333539345955 2.3886923908537248 0.24296307809392995
Ni 2.2402375432697204 7.906286310508463 0.4505209454258503 0.6709401685708316 -1.2959264961193682 1.1172713360748887
Ni 3.332546266315018 2.0536984193363494 2.8620416829937336 -1.9238114853719384 0.19497729424327065 -0.40585711864941065
Ni 8.990887414126785 0.06571182971200776 1.1994013525410532 0.4649590670178896 0.7424492323544116 -0.5445406233969589
Ni 5.058933305827715 7.427474626249218 7.217445219883027 -1.688687700816769 -1.0636435234471036 -1.5509346783032905
Ni 8.99481949715584 1.2169290500527665 4.9075600804221 -1.096709452763137 0.3616943080892674 1.5390070736277688
Ni 1.575411626722668 4.885498055782737 6.1342650071578735 -1.0330522809238079 2.133458722922558 -0.42143080471795163
P 3.334765545026966 6.145689227780459 7.515208883511536 -0.6133829389816534 -0.8700785361703275 0.5179489889513597
Ni 1.8813497870839448 3.489848004727904 11.233021013358291 0.7550648642358933 -0.7370717700925822 -1.5752670844010677
P 1.03749898489792 5.059485823349361 3.876040255970936 -0.8560022605829193 1.051337709496557 1.2339397700039265
Ni 5.561291445134481 1.4748626464082841 8.79796763368093 1.178147602734971 1.0846864601603319 -0.2296434781668884
P 4.161064707275339 3.597413957567204 10.702792048534581 0.4956099591345271 -0.8726064447985037 -1.1405753009081518
P 4.529658354591381 4.442130370537143 2.3513561837732104 -1.6938275931464957 1.8180476141705464 -0.4279308106199985
P 7.242786436013365 8.701285355155537 13.04793517277687 -0.9421180185360807 0.02687085624891501 -0.09571214339234484
Ni 2.8634220559353145 6.2391107320655985 2.6077031339790655 1.032522633672583 -0.43760407204370444 -1.6162036747144295
