# total energy = -340874.5308670708 ev
CRYSTAL
PRIMVEC
9.15908767030652 0.00000000000000 0.00000000000000
0.00000000000000 9.15908767030652 0.00000000000000
0.00000000000000 0.00000000000000 13.40525062026196
PRIMCOORD
 96 1
Ni 5.603080934017258 8.939489213002119 1.5609209999398608 0.5722026080886016 -1.9189276749170756 -1.725845026593357
Ni 1.8024443053596284 2.9815302749122363 6.357962850340524 1.043424111076435 1.1143356504853326 -0.2946090844049959
Ni 0.7955528443438238 8.659129544786998 7.261020484154291 -0.7111257396507817 -0.5667901788237787 -0.10134414486714158
Ni 3.930613239296007 4.118163873926554 11.746458271168901 -0.14166572730432375 -1.7012226000589863 0.5867771634686668
Ni 7.856216457732372 2.14002079315462 9.886653348555733 -0.055235009213904875 2.5508305270797877 0.06243178407266022
Ni 2.8584412980699296 4.384015547549947 3.242207064101082 1.491133904095574 0.39265681790905277 0.5418363370919184
Ni 0.11735996761432367 3.7723808437362414 8.441835689425913 0.1084964396412067 0.14607979721161937 0.9275033539466994
Ni 4.759510657573316 2.100783262326996 1.3650832229440402 -0.04944976999069549 0.6786632482467022 0.21352934621384514
Ni 3.553039016411325 7.221290194419448 9.205600088801615 -1.3042581559135151 -0.11049701501100326 1.6701199651169107
Ni 8.45865543770132 5.740586314576342 13.167146314293731 0.05173728047329155 -0.128549758747656 0.01949873215455997
Ni 6.789146128240884 9.446133296863197 10.570964495731745 -0.2179930384121536 -0.911562514346727 0.7634057800014208
Ni 2.3503775556471607 4.6730030761851475 7.875464280102645 -1.2140067785254252 0.9370272342767346 0.8433493477055992
Ni 6.215503319355514 4.916735553508656 11.843069241972557 0.2444566319203209 1.0827499052592515 -0.8474957657738049
Ni 6.7216070170544 3.096458504796697 7.890142633721775 0.3790094023289473 -1.4185665742508085 1.1256608456901644
Ni 7.017024225110934 1.2890774512773837 0.3068578242462596 1.188852647857301 -0.5966391438644111 -1.6859972984687994
Ni 8.845251361768359 3.2015223974492826 0.5731390590731587 0.06295423223503352 -0.7039731877664005 0.45691537077780664
Ni 1.5177065933220044 9.121608508748261 12.512071890309798 -0.42483880195823603 -2.473529539204779 1.6252053639924076
Ni 1.2304867685732959 0.07595264895918684 3.681403627650623 -0.7094856329441975 0.4713415735054657 0.8996454511941668
Ni 1.1859278079112066 8.183983562820458 1.6004259761223323 0.4727834481583148 0.8479115131549849 -1.0584123569551513
Ni 5.621380790831821 6.523898954392146 13.457530603771886 0.08333690965644358 1.369958326324802 -0.314714082684987
Ni 4.834807515867876 3.0617821995414713 4.6808450868981755 -0.699843224758427 2.5447190148654113 -1.0512433500105378
Ni 9.118531055350017 1.7707813398901848 7.025584308283553 -0.9397094090945881 -1.463375503035383 0.7653621323968431
Ni -0.18907928633342463 6.950886454311149 3.159711163035626 0.06757887549123845 1.5749670366621458 -0.6896279747883219
Ni 8.823287869955884 6.214972092280816 7.246060946549073 1.899149463848884 -1.6924178572831625 -0.5947385844075886
P 0.9538548489685496 3.5629857854306524 2.6022945935560013 -0.3132786357900411 -2.0172248054277775 -2.319685010446076
P 1.8995214737167685 6.840491972736604 7.895987047452191 -0.535543047884039 0.05280608805743809 -0.40822587599190335
P 3.601023475796461 0.407131514139077 2.1911147627442333 -1.3524007770570128 0.1310972077598581 2.9740194521394265
P 2.3339186754190466 8.961159614014761 10.192722575368693 -1.2672903204399144 0.43113286249706395 -0.26432765981263506
P 9.091557542677899 0.5444967606594924 0.5833404507248412 0.48389627024202464 1.4839970359404766 -1.0420424002375603
P 5.221659894384768 3.84510399844477 2.4124093075230366 -0.23644738846259925 1.051647270317176 1.6166860136674868
P 8.295074135044606 0.44065469027870985 8.7338292305769 0.424580663200843 -0.12988081885425373 -0.7595223857866145
P 5.513523376493328 -0.2894473148274382 12.72675723755237 1.7937002956744332 -0.8264906242770476 -2.0112143375676395
Ni 2.7536704962171767 1.031881115336554 7.831253364765357 -0.4660443296622683 -1.2419721533900998 0.17411330631006788
Ni 7.597508872354904 4.8527318500951555 9.94775453714214 -1.2030109416355539 -0.5172324225003092 -1.153823681277626
Ni 2.865567068140866 1.9547324531352837 3.807171637585152 -0.28146946169924425 -0.23517314973586595 0.29820734327921544
Ni 3.4218076107861615 8.687513556933313 4.341934120055195 0.5267359911153703 0.06483782241099156 -0.9554579301780962
Ni 6.429523716845965 4.046081855342659 0.5301966773538972 -0.061963586186990056 -0.009269855337700163 1.1163066581687742
Ni 7.7916357318067 8.031503074207412 12.802550518389149 -0.6258162796489996 0.6051950038542223 0.14178399804974293
Ni 8.201230124573122 4.951329426976428 2.2663722369625665 -0.8234407817071303 -0.6757280768777781 -1.1238962975905742
Ni 3.6571870003144324 5.030821147343596 0.8306614585288025 1.3432805599232993 -0.973688337143194 0.18135173304003604
Ni 6.979710102657212 2.243665027245515 2.301547712486257 -0.4266151771323685 2.7579807092401665 -0.1243992269143922
Ni 1.656155359893052 1.4765731313829613 1.7060861253708282 0.021930995745136423 0.964236704811991 -0.7980673359393481
Ni 2.4526204493513557 5.684578494545781 11.109574710858343 -2.7564236491656913 -0.41460246894220854 -1.061826524843023
Ni 7.8223827885266655 7.477011917273619 8.885991898853876 0.29135998134007884 1.597703816138029 -0.8085630932643494
Ni 9.055653919698374 1.5381038811728724 11.904653114469937 -1.7761864551603863 -0.052553091506367555 0.9147103159470893
Ni 3.692431168994334 7.537553485614094 1.3267670963183904 -0.6416491329161982 -1.5278415439292525 0.8087736666132587
Ni 0.9679415255355164 1.6401177976896977 9.514175241953145 0.23214901819756145 -0.8726694368259552 -0.5031278647781271
Ni 4.382687479863205 1.155116637578777 5.975296174808745 0.44680347915478535 -0.15797217777383116 0.35487677094680176
Ni 0.42380471701456884 5.987093995410767 9.52393424967883 2.0733365608196808 0.0024224933985635697 0.36459091291077206
Ni 4.270076499114923 3.3005596105303048 7.32771237974751 0.42365815138657364 -0.37353115282319543 -1.2502490486869113
Ni 6.848432901594576 4.975637645187566 4.400045782483306 0.48683864069980026 -0.26931302884236846 -1.5414509071825713
Ni 4.904205921815801 8.361926314668983 7.8129819011220265 2.5955494672537167 1.4376151062418272 0.8457484440653951
Ni 2.1797895510569414 1.7693067268035256 11.548315151850645 2.1625702955765336 2.42813182779627 -0.37139148077237333
Ni 0.23377929694293376 3.8535761543774387 11.438405186004573 -0.5215084241678438 0.25600139933512683 -1.1827064257502469
Ni 4.151667815982448 6.160484680774389 6.985180825617843 0.5534050157661243 -1.0069908079500656 0.39875804571078427
Ni 3.3824784890835895 2.3553967355942986 9.408246731441052 1.3217190317024399 0.9375861921039982 1.9112305633831346
P 8.514342689669565 6.409978224132112 5.108700868311685 -0.41300555676873385 0.09872984717274609 0.1790112578323175
P 7.248648388766346 7.121236322626506 1.6322098415467072 -0.049117326351941215 -2.623080068573818 -0.9815677398912708
P 5.218628236423997 8.236080452490748 5.617416737764081 -0.46590240476776534 -0.11711889120289505 -0.538240135100228
P 5.04319507454904 1.3991513647896126 8.349085274001306 1.240731081894147 0.13190916213819218 -0.27660930539346557
P 3.08666744026478 2.6340528135353907 0.05857419634659716 -0.4631153289409314 1.437654187009879 -1.0425126550057593
P 1.9524609994365791 3.7151090696314015 10.011845251886841 -1.2079711138543066 1.3071922988411746 0.43920252687907585
P 2.0343340825523897 0.9556775073800102 5.848630574299729 -1.154331988372612 -1.4651403082452898 -1.7827047158948781
P 1.3437114081837278 6.848854219619335 13.152373622073407 -0.9742655498029027 -1.0660770725892608 -0.028426630771809108
Ni 3.2105440986316376 7.478651393935184 12.37258997866934 0.8826221771632928 1.4501271226659092 0.44203973921755485
Ni 5.34512439381436 0.6802747373170628 3.566279393293774 0.3609695141081009 1.2507552988993684 2.1770024118414635
Ni 7.008680296403192 7.321875293287087 6.322988874741718 -0.9212494026171876 -0.794440023599406 1.0716694790753736
Ni 6.994850074286079 0.4516474270899411 6.859372515698337 -0.4917517617307015 -0.5330591051199206 2.019476320466116
Ni 8.420626906423008 8.869266489179664 5.0123307815091405 0.8741681328586686 -0.30585123297771843 0.4306703210383486
Ni 3.1083195231024328 8.187097652568681 6.527471914423858 -1.7823694440426465 -0.35691822685686275 0.12011088395168346
Ni 5.841748435956153 7.278626082136751 9.917901407361663 -0.7566743748148581 -1.038892541754669 0.8350755377325811
Ni 1.5460722872933286 5.891665462802687 1.725040856941269 0.21709855162234223 -0.8168649282618254 0.9649764111914929
Ni 1.5493146042664794 7.115420302067322 4.962235152456459 -0.5075056821308485 -0.3853515424968912 0.5229302442160348
Ni 0.14668187032010238 8.526313617025238 10.696652821605069 -0.21465214696437868 0.0016647892969326168 -1.1398422793968692
Ni 0.24755639635257715 2.356532462443651 4.621245988660913 -0.6261014149895862 -0.15920245063650645 -0.8396472162636636
Ni 0.6168077564307558 4.851907532220625 4.099499485429697 -0.28937431836861777 0.6336036369039023 2.7515750628241387
Ni 4.403185517676516 6.131166441703608 4.482541683548761 -0.09815623405746322 0.009578387717054472 0.7448138759318463
Ni 4.288431310454456 4.784661511833973 9.154217607955916 1.2601148857373976 0.8287323691233728 1.4134539356145916
Ni 6.69472509525723 2.1624697166043183 5.5363551498003085 0.9283219931932528 1.888070837437219 -0.46980328248406833
Ni 7.828574331673135 -0.16007611987246415 2.151019941327098 1.5224825936101845 0.986082854152805 1.2254142490314186
Ni 3.7291865871108736 0.3895030184378799 13.549758951209292 -2.3227515651865414 0.8982472852950594 -2.256402705447662
Ni 1.5538391934888993 4.527263675968258 13.189519217317224 0.9025965634026906 -0.6966851387454196 -0.22275009348116478
Ni 6.263964051290379 4.765097700945129 6.5027927531691825 -0.6558223390927866 0.084019537545765 -0.3162330904326747
Ni 6.579632001797863 7.442958429968038 3.9612778642285202 -0.0250523149829375 0.7712445593195493 -0.1256194724747385
Ni 5.60849395472667 5.968601797758812 2.416430146933244 -0.6505850019532473 -0.8179442773689333 -0.47541985733989733
Ni 4.327018546069951 0.21695863275877597 10.684225771692155 0.5116672697077058 0.018946973416148014 0.3384263387002623
Ni 5.604995183303664 3.1075867961028507 10.364724743068107 0.9581092517580144 -0.7418033712402966 -1.1865024024575694
Ni 5.236653320613718 1.9212743065168638 12.349788430351092 -1.3649377331817587 0.473477646011862 -0.42150125294457086
P 7.168616282236986 2.922591546883347 12.119177261772602 0.934020843350243 0.010009561717202117 -0.6599685000506763
P 3.1057916149538745 4.6013973301509825 5.758627885123554 1.3602536974425283 -0.12163554812632599 -1.5087816990843244
P 4.436616187032452 6.2708150487364716 11.248600499941563 2.1131434084039737 -1.2875364722834601 -0.6669549586708384
P 8.050178453609263 6.725041674864942 10.929059171332536 -0.22249735404041038 -0.02984639393747118 1.936193403976059
P 2.8302862631109855 6.975579354197069 3.218064625373599 -1.1022368103392695 -1.707470123630595 -0.6281788663439053
P 6.431218148032499 5.860689428895352 8.239845753359852 -0.6883434516489435 0.20700440061113382 0.39481654456453297
P 7.4942951153762625 1.175349061854739 3.8637152642341572 1.3478141861275947 -0.6217644781771292 2.1882484170689285
P 8.699676825126376 3.7847089755042114 6.410122937714529 -1.056274227566226 0.27418475511237295 -1.1858331443046868
