# total energy = -381180.4508591433 ev
CRYSTAL
PRIMVEC
9.10180633773288 0.00000000000000 0.00000000000000

0.00000000000000 9.10180633773288 0.00000000000000

0.00000000000000 0.00000000000000 13.32141359996768

PRIMCOORD
 96 1
Ni 5.049527337227431 1.9099230085345154 6.27702331372233 1.282891517312281 0.5749081799452228 -0.7654117546878559
Ni 6.991224751131723 7.819753065770917 6.578673553734954 0.7400663339445319 0.09361232344052266 -0.6522824442603283
Ni 0.5597956668523881 6.668875183507541 4.8605838529448 -0.14536297365025289 0.4765002348882697 0.6144808000315224
Ni 5.458425979804695 6.833708893403462 5.100023247726138 -1.0995356093580224 0.006131823929350731 -0.4330542478894929
Ni 7.590888149407972 1.0056767682948708 7.093426202170284 -0.23987389764564498 0.787481847114018 -3.0783352780403823
Ni 7.600035464617547 0.21861355206389615 2.4366463524560467 -1.7477590530576288 0.556147611508268 -0.10103895492189695
Ni 5.402568195286126 5.899890884889281 0.2659138184132679 -0.8052018901016004 -0.6424132647757322 0.5731922256953805
Ni 4.7576506166894745 4.157213564888037 4.53993723325665 -0.7161039095916635 -0.2248586551837353 -0.07246911370400422
Ni 2.7944638383973146 0.46659954284701516 2.2347737524965994 -0.07273342310898442 0.5338150094493387 0.22079476952700683
Ni 4.40749503118942 3.0762648594954713 0.07632319571133331 0.8922810404092955 0.7359826507934615 -0.40694598083821526
Ni 2.3403110154996467 7.6627014001577685 6.359722324661829 1.0145362243974916 -0.5764166461699493 -0.15773229384888318
Ni 3.1425715175071653 4.005113281836092 9.574260003262593 -0.8507443546180896 0.4897229042261307 -0.38974247247573524
Ni 8.829216185436119 1.768098664658301 3.938209545339076 0.8505301817247547 -0.6362824692876462 -0.17607248691896774
Ni 2.7939905444760234 6.368670310316091 13.041370982960531 1.2218676693307406 1.9748332278354441 -0.928292168396582
Ni 3.7567431948322323 2.4326852464070843 11.04005491822464 -0.05976349321187773 -0.4776142938880549 1.1599742742600538
Ni 0.6021545626273538 4.717657280340348 8.323418804099994 0.46659968794510603 -0.9275138954696606 -0.4181341362445508
Ni 2.4643686337150745 2.8409558643580195 5.230812561791318 0.6055914679616926 0.054337437100299965 -1.1543600133970702
Ni 8.696420833289157 7.738282798665539 0.8708899409560129 -1.1555902862597454 -0.8124225762197557 0.6357116843858406
Ni 5.803102277985182 3.3436668232189533 10.138887819015244 0.9238719278416991 -1.9276195462641188 0.6419712921423073
Ni 5.0543148872774175 3.602613209002441 2.261442954780754 1.283411651481809 -0.6023058552318853 0.18088430648531428
Ni 1.1572491465884531 3.1408512761393945 10.667614470476702 -0.6250351785086009 1.0250250397439573 -0.950448649888963
Ni 8.944781818486836 3.355453662220346 13.010784363297073 0.49162294946232105 -0.30144899014496473 -0.4239625700008699
Ni 1.6492199741585427 8.542299949265544 0.4654918530350697 1.388641247446286 0.5836738419529948 -0.9015154145233701
Ni 7.915258318003821 2.205786320178735 11.0138244229983 -0.18594243773451202 -0.9270557248863196 0.5486777854937841
P 6.6292823266302765 2.2245087354882824 3.1724545675530123 -0.26876512675869846 -0.21007918288171565 -0.20791688512307419
Ni 1.6077612470146485 4.868710855681745 6.2372056422324516 0.7766613594597463 1.0630197738201757 -0.15639480598438227
P 6.591027435261279 6.837859317020941 2.105488966992754 1.0732504504092484 -0.5796397810929372 0.15320021030648454
Ni 3.8457588592597367 3.8268180006019006 7.098195548607913 -1.1634048972081577 0.5310258767399758 -0.5553991633780178
P 8.191907716804844 4.576524673733713 6.4135540471250225 0.6665317550904908 -0.014511563352613718 0.14622866408465782
P 6.006245490087174 6.7329336953931005 10.058319540902172 -0.0973314241633227 0.27407368345580546 -0.2700231675355156
P 1.9468399343952474 6.829540266173626 1.7752517741341267 0.03990146418062806 -0.5416049378074027 0.5084659891615888
Ni 0.7987107975978333 5.404443167358935 0.34888224281565655 -1.3024552983768214 0.45131396543062924 -0.027637816321926592
Ni 0.47569588794198947 0.3369907330432092 10.166423513247608 -2.3537472422371075 -1.4162875484086448 1.082300990647291
Ni 0.5434169666338509 3.626614671895624 2.116573146557153 -0.0010361545739982153 -0.23360734791064283 -0.7406304339781179
Ni 2.5749555787860543 8.362839636840482 11.485908714248588 -0.5290666961310759 0.3172561323805504 -0.719947965928102
Ni 5.459054004431024 0.14557883892492043 7.847937718783822 -0.5567731609074089 0.49123574132623143 -0.6385180434863842
Ni 7.218223797228039 6.6767482458521 12.32093480831874 -1.316420759417978 -1.4118925046647426 -0.37317634058693794
Ni 3.80369941290805 6.561200816413739 10.399881201008315 -0.05698875868021799 1.9419683587866234 -0.8484758702988872
Ni 5.7472809006913295 1.4870257880544393 12.024933149220605 -0.06383869172251587 -0.5733742597991996 0.2593641451597727
Ni 2.301073129063351 5.520700537679234 3.6986773121347163 0.5303471055053963 -0.7464781510081466 0.06441924681633422
Ni 7.084290719308741 2.9061703056282724 5.30903621463276 0.23834897636068628 0.6398200501272594 -0.974621647590741
Ni 7.1232009407226045 4.9825107383338 3.6389039305980795 -0.7504877863881719 -0.1590085894581455 0.6991302578518024
Ni 7.052179547110353 2.223634962095129 0.6644436833917782 -0.19915765087320542 -0.861846120958206 0.6835568288935776
Ni 2.4466656206975395 4.234760953530404 12.495911571020185 -0.040766383284084634 -2.260086839167469 -0.950712187962995
Ni 0.050265634802386175 7.745992028498883 11.954529768247887 2.468297087161246 1.11222323212802 0.06911048164441647
Ni 0.6225398779257466 8.34165973386269 2.8855383313824374 0.9046290204516872 0.08432292771879671 1.0343589155503734
Ni 8.45348452457397 6.840426026363329 10.002942331749841 0.47552527256951005 -1.014573248283014 -0.22339492615401527
Ni 6.510294414456374 4.03038899759429 12.43767093364404 0.7196453470860187 -0.16450406535507797 -1.0301582472054647
Ni 6.67005841831077 0.5052803987451756 4.756543837058146 -0.3155478914401921 0.828051026785632 0.676237669524345
Ni 5.254909593649377 4.910287906305962 8.710871770959049 -0.5084068537888793 1.1168453042810635 0.5902795201949705
Ni 4.879350867104623 -0.18893984356015886 10.12407462945944 -0.4054727387267985 0.7800048220106824 -0.7496930584010185
Ni -0.13913476015041398 5.915764434864902 2.5241147098331758 0.48087239581403635 0.5755591832656604 0.4481656496096346
Ni 2.21203015921731 2.3566305539780226 0.7769101514386555 0.6029787129291937 0.7420805361610833 0.5584235520266383
Ni 0.8255520240187649 0.37543039107763454 7.740393507518376 0.7676419295699555 -0.7043735085286127 -1.2710875826988173
Ni 0.20555610091995974 1.2976445068946143 1.3252530155764086 0.31981849379108795 -0.06612028866784096 0.06530730584824236
Ni 3.1016588987339926 8.350588605723976 8.67615657201294 1.5551224911323926 0.3409331642825161 -1.25032618178175
P 4.197989656568531 -0.1435172798254491 5.214893502784804 0.5093044259024841 -0.2726608622686788 0.6832732362148878
Ni 4.280570344027708 7.774617208930836 1.190030211721592 -1.706938419496841 0.5019706112452322 -0.043011727674835604
P 3.681580479408681 5.628274784905069 5.811852754445367 -0.5766778702511359 0.4753609790775039 0.16106932864191617
Ni 5.254099532899475 8.303732507516125 3.2541278049361746 2.3598271298826003 1.6736752865683369 -0.558315308583548
P 8.91217004694862 8.861709633494012 5.593581430293789 0.27513529195110037 -0.1029189455534292 -0.173943613501423
P 6.688999276968606 1.212933996789626 9.287342856911401 -0.6132590118092792 1.180532815137696 1.143680936416669
P 1.478888773330698 7.520485678615871 9.495956254526778 -2.0930080711066794 -0.9153394648906559 0.8769647217671993
Ni 4.859527133247456 7.024755805093985 7.534445118752115 -0.3710258699028384 -0.9306956356317521 -0.15021130288148968
Ni 1.4161591251472256 1.4162501432090122 12.03373914669848 -0.14331200465849514 -0.8697975145947987 1.429782497571286
Ni 3.2046913446766667 4.765860445862645 1.400293766797166 -0.9680421946010103 -0.22213868514941096 0.11823037909951896
Ni 6.891168595809479 3.0853302584494378 7.648103013227781 -1.1512039842665915 1.1815825965584488 1.3556604216448909
Ni 4.554562015424555 4.887952073943478 11.439457646415685 0.4009787075111868 -1.346170994097217 1.2537210663959117
Ni 4.937793564577937 1.1672702351911812 1.5320824591807662 0.343222474537325 -0.32206255263025824 -0.25621274401498456
Ni 4.807956299439047 8.147736651419704 12.24445688190237 -0.7072778266596013 -0.4610628172872769 0.37102124191714814
Ni 2.320041293139723 1.184099474815563 9.624334500135227 2.0466173996572814 0.9284834584717816 -0.006603364249130562
Ni 4.299174435856933 2.205313026257443 8.613172983437082 1.1516873516609134 -1.205326220032292 0.6666603102485551
Ni 7.238375196107639 6.110597697925757 8.176204370604765 -0.47470329088884694 -0.4574308769616445 -0.49331344979086655
Ni 4.660361410445548 6.007465132115118 2.729291265435484 0.9322668367736137 -1.2422315776990736 0.7269732482059996
Ni 5.89583147933359 4.898728612459037 6.390681208197996 1.352260651934723 0.42880961368052606 0.20793154041109352
Ni 7.935682771068782 8.688192800503629 8.646783223113099 -0.2988948562645433 -2.142157793358453 1.2551588272837026
Ni 1.5126291688350701 5.619937530445398 10.807649399258187 -0.6018607972746668 0.5226031998939192 -0.09773251625648328
Ni 8.807025981972494 2.317328954898476 8.779277305475548 0.5851352569898697 -0.5903841640936348 0.42986633707981453
Ni 3.0904818807465717 0.9995876599613329 6.904155963045839 -0.9556343078549606 -0.3717653191720242 0.4940968649241104
Ni 2.086461641176221 0.39938543475930627 4.7532134861773665 -1.441969012335149 0.5563026490288936 -0.5193106451855766
Ni 2.672654366308021 5.943233685912163 8.441207098219547 0.026127036104355003 0.4127147650011925 -1.4776055305918359
Ni 7.6255387255302125 7.583242632217879 4.091179050881086 -0.29408123692598387 -0.8819354355089133 -0.6402131718006199
Ni 0.2731033351138084 6.909062746756765 7.426808069063646 0.3766139055135772 0.4874276804340508 0.12727012070428403
Ni 0.42972266493346944 4.124155804847066 4.346856978065809 -1.2535470027118927 0.22131490369653498 1.0015380123656108
Ni 8.048381335173216 4.325360332232998 9.672864420499339 -1.4880478089710822 0.27592796305572476 1.8871030742073114
Ni 7.246921792109421 4.556273154986147 1.2279183003015894 0.7137963445044093 0.8671796173559775 0.7442544038839505
Ni 4.371197028148838 1.6693895766505007 3.9960779188425146 0.04179868120334092 0.1731087763049535 -1.1149480872583508
Ni 0.40172550912784527 2.474699183727878 6.395650794371556 -0.3993622549536864 0.6442567457423743 0.05900938865467257
P 8.474600714908512 5.0975757720446895 11.71053491947412 1.006247244915822 -0.7937805356385361 -0.03596896189544128
Ni 6.444916140674906 8.3200520459945 0.4884912070679798 0.4350386253093734 1.3606123663335277 0.3549955559128532
P 8.329699960543904 0.5190687249252601 12.878475957780669 -0.40738255415500163 0.3577067841964291 -0.6675972202405277
Ni 3.217415669714463 7.6878496906294655 3.5084868804056066 -2.662948622633982 -0.6759301655862553 0.9016311141656279
P 1.813325539560169 2.5779591748250192 8.15655448124561 0.4490192558591816 1.3051567564683846 -0.9128892035779504
P 3.544689314481312 1.1163183242029224 12.83411648500763 0.43312443900579606 -1.2755875274517 0.12223924314859594
P 2.010133894561798 2.2694443525924326 3.091913594858478 -0.5705200781798561 0.1661266885601655 0.8057775600994123
Ni 6.995557210872776 8.596282761711304 10.995654487323796 0.5933262774410942 1.1905570321429173 0.35364187009843606
