# total energy = -340894.0030364888 ev
CRYSTAL
PRIMVEC
9.03912099740502 0.00000000000000 0.00000000000000

0.00000000000000 9.03912099740502 0.00000000000000

0.00000000000000 0.00000000000000 13.22966726805766

PRIMCOORD
 96 1
Ni 6.338891434365996 2.032238435693665 11.174266116482286 -0.5518417850440626 0.04102735025495515 1.5562915717398293
Ni 4.743314851347897 0.20392979891204188 6.331745105378554 -1.4407122571099125 1.1460985447192262 -1.283183851741719
Ni 2.5739710297681877 1.7048685938796595 4.819395324180547 2.0309452403376635 -1.9468290293130341 0.7432532163129458
Ni 3.57746711527128 4.1900844954822976 5.012588455281709 -0.801896222767135 1.0806539419621712 -0.7469833727793393
Ni 5.286114061689202 4.649253759211151 2.5998807659300915 -0.5846166654822383 -0.5737354997933602 -0.20598418687673556
Ni 7.397200749036609 6.155433436479449 2.428517111814347 -0.630264031007708 0.656766705283927 0.7746422721471884
Ni 5.055553204767043 4.4443549665381 11.554328609699516 0.05860906789246035 0.47334883374348163 0.032854327525859546
Ni 5.4047796409291795 7.590872953545731 12.1887040578408 1.2215352256919867 0.20436053523038353 0.6027470565343619
Ni 1.8827404150469567 6.440364605644788 0.3564161529299216 -0.4597309858497308 0.465733740400385 0.5769414083251676
Ni 2.502001549123101 1.6035762050189657 0.3723385644039634 0.6183752499899221 -0.37870164128054135 0.7312312521514052
Ni 0.6543708874950902 0.009971054270233034 4.7600345132857536 0.14119367276391168 0.24324641366230368 0.30479939467443634
Ni 8.487553747315214 2.192863614174348 1.3875276567096781 1.4554930149635128 1.4493203104938974 -0.6062167602505173
Ni 6.821634725414917 0.9509878321663284 4.862511026984994 -0.13374750089851162 -0.9008019333961131 -0.6784894416729993
Ni 0.6034806368003099 7.421732923172601 2.5040977212609556 0.8387902675800071 0.4252272956459064 -0.4300308876821368
Ni 7.79325887060721 3.9095011434722315 3.661773188127421 -0.15666451470600115 -0.0724868543158171 0.2846452883240646
Ni 7.742477089363289 3.9170849659114717 12.635165221489405 -0.7201623959317532 -0.5664633916119792 -0.8559408112173646
Ni 8.015621244868594 -0.12448134963021229 6.668678337109981 -0.1501133438510447 -0.11107217078818289 0.6408801159606575
Ni 6.604768136663733 0.6669732298607496 0.22494575501601413 0.5095556226813417 -0.284216171206446 0.2876105415999756
Ni 1.8853527209884828 6.274487697918338 9.152905358885619 -0.5820386203424169 1.0090381773973978 -0.1235456206648453
Ni 0.0653013211535169 4.823537049379189 1.459602895069353 1.2954549557995885 -0.6167647109696927 0.12474349762768841
Ni 6.220126424796064 1.9943735582228954 7.0805838454511125 1.2289572291876705 0.48139047310103544 -0.1776442022814618
Ni 3.3993150813559296 4.277881476831924 0.6333612587757514 -0.326466852345541 0.5077334818709384 -0.5285876996121284
Ni 6.084042459572277 5.634915659168806 4.591792971530574 -0.23230225594597415 0.6346554752071843 0.8823946345335191
Ni 5.330279206430712 3.157401088577173 9.171506061883793 -0.43447632504800016 -0.28541199128676004 -0.4129147968271405
P 0.24224392069178693 5.598695901702735 12.530849246686012 -0.17215386859085188 -0.4227004154589946 -0.7498331835233086
P 3.777050904852229 6.114052340976659 12.58371544921061 1.052093356715659 -0.4108712840345505 0.2908529597966733
P 2.386264645056322 8.403779174768284 1.5186862049523657 -0.31495550927183175 -0.19444147634445869 -1.4613510164061865
P 6.230693157133932 7.8404521208518725 5.65003358888231 1.0511209655000606 -0.4866630343538844 0.06319822992503954
P 4.66447563881506 1.1254880612360851 12.792082552574886 -1.1903557147653887 0.3902754621610698 -1.9718875149435586
P 4.151903248779855 6.123145696607024 8.392569760934075 -0.29889279938201424 -0.010173855209208285 -1.9184322233378959
P 4.700080736059595 0.9718230058522019 3.8985972519246093 0.05028152186337147 1.5349886964969952 0.1984158876111744
P 0.3623792609909068 5.691482477791886 3.6502239033471864 -1.0706376953767498 -1.3767393538023773 0.7641894522449807
Ni 1.6694442790532218 0.925036516048262 2.737853003510918 -1.3870602761124111 1.9538396563029126 -1.2383569252350155
Ni 1.69100258241149 6.611511320858814 5.193001173335383 0.5868357846207441 0.08094166995138964 -2.031758480267578
Ni 6.242642874970255 5.686203631183404 9.020211967913273 -1.077054654646687 0.6978981852169142 0.6576385663659191
Ni 8.494197501180341 2.2911730931364134 10.17312472197493 0.6703902096046326 0.7056212648927848 0.26034887767054515
Ni 2.4076421659964917 5.263037186018904 6.9600218586452804 0.35819092292169924 -0.6657231431462663 0.9996726770220976
Ni 0.44173551123950605 9.017906088170426 9.295772280436466 0.02179087062284634 0.7670343778929435 -0.40575221764043023
Ni 1.3711623283112946 1.0738385243852906 11.41430539558536 -0.07401897468962737 1.0213974702936988 -0.3882656308198926
Ni 3.942756069281485 6.768837220209195 1.5594472167610764 1.0472519694629578 0.8299870674660803 0.46011022356602044
Ni 5.901877055975136 7.846481214495464 7.819063752966617 -0.5542619644497809 -0.22580662091930145 1.4766801905640892
Ni 5.470973123316013 2.9903490951330816 4.681039827873351 0.4496478905821159 -0.38227958843978677 0.19710076834417667
Ni 0.8474239122222247 7.483668979613211 7.254885213860962 0.11698005163218562 0.2570843479866604 -0.30340559965070324
Ni 5.145835944365527 4.692831361093838 6.888052378000193 -0.18200505035331882 -0.33588300345311833 0.7258219082103757
Ni 8.211381486306756 7.079159279996495 9.01417925862132 -0.3676908919923345 0.9379952546169588 0.6605128025899205
Ni 4.434222112003669 0.20137263160803598 10.629111311233157 0.7773907814266031 0.7967506740104536 -1.06191239968861
Ni 8.077629614276445 7.3635029063030135 4.588114953234356 -0.020713835508583682 -0.26600941839043224 -0.35469962193898913
Ni 7.371339824127592 6.263694987557846 6.757013146153451 0.22268735856402938 -1.064214051238593 -0.09377944514600624
Ni 2.3328163231454453 5.181775489083545 2.7799635560707356 -0.7136230521513387 -0.3123234709656234 -0.41976781519323186
Ni 2.2057985961893087 5.013964209483439 11.485493896184261 0.7540472216046562 1.4859150788987958 -0.29231848859860626
Ni 1.0873791275008822 3.201240824966104 3.9309310913136497 -0.440036592744597 0.7478236092924476 -0.8626832721475207
Ni 3.817654635957194 2.7171416657814422 2.6960741866883122 -0.6451543178559792 -0.13172661381374087 0.2559222093577592
Ni 1.0263741005134805 3.3928249925461866 8.259307809256809 0.11461952181980906 0.023091334601824748 -0.5724422349032334
Ni 3.8832876928479223 2.451762115133476 6.954531496607623 -0.7776574048244285 0.935448319825389 -0.1730234156799988
Ni 4.161150269465603 6.855070433642269 6.0672441572825475 0.013444555540680072 -0.2287723884158447 -0.6000623106133472
Ni 0.8741525927381153 7.344891356359755 11.169742036469367 -0.24232544450993107 -0.33710453456504524 0.5680536189172345
P 0.10112245338768105 5.531869680852555 7.955197433355379 1.2615894134003949 -0.6607657991409911 -0.17661498968599906
P 8.46673665187115 1.6733853357677733 7.9793680426551745 0.06769406091286406 -0.2910769028820213 0.2667285559446439
P 1.5979629109370013 3.1427305953484646 10.40760674954565 0.37291485939543517 -0.49265216205778384 -0.007496822597677411
P 3.987770891388058 6.072029467889619 3.749936253873698 0.7244299129588556 0.5142877380496885 1.1979592381442594
P 6.865836026640046 4.12785918717273 10.387670064477728 0.8300374610880413 -0.5455232990252025 0.668221741198404
P 6.427420584508922 7.856162112984649 10.12463797352877 -0.7615083058683917 -0.9869328608579262 0.5446421819718298
P 2.526072728092941 8.445060839941117 5.93298971012992 -0.25384192978996284 0.8983601567238398 0.29988653075385124
P 7.062671923465895 4.057815039280394 1.4784684443100413 -0.5987968136373624 -0.6016206562394026 0.7570374145812316
Ni 5.28147699266497 2.9625899548340286 0.6222666417770351 0.5733616613937093 -0.3862534854858703 -0.6355111383392603
Ni 1.3887795749550116 0.9244218558267265 7.152275825084418 0.1969696420829511 0.6208195977653567 -0.7928281990275959
Ni 6.911212413582816 0.6910751418416664 9.106482241742057 -1.1387408188025743 -0.031411167321429775 0.343298322080583
Ni 2.713182530825081 1.5616437231409754 9.00569875538831 -2.373552192778177 0.9900572654195208 2.223799060480028
Ni 6.469000540671621 1.9255406525318206 2.564597461389771 -0.9978402517990493 0.37087494614727096 0.4366553349771899
Ni 3.8775749684360035 6.683751975131049 10.470196334427685 0.2477497008492959 0.8743820486416877 -0.005255334861668369
Ni 7.9827821186209675 7.107957919199616 0.22000316370519607 0.3317206445453125 1.0198650928095727 0.5089938366406008
Ni 7.6005809693976305 3.8726486475428143 8.204946536134534 0.30251934039100803 -0.5585019706730574 -0.7030686736742602
Ni 3.1016025952310136 8.473922752990573 12.464952247464861 -0.3571869071372171 -0.4946565940823222 0.5761685347148852
Ni 0.09268804967128687 4.896121190245811 10.199067902884181 -0.32443336685527996 -0.9076166423251013 -0.17284395267934105
Ni 8.685962451178522 2.2673550095519115 5.877623286763017 -0.03234344932771204 0.6571096904456426 -0.4285568742397716
Ni 3.468735529905825 2.7065387769599543 11.567108118834913 0.1065971657359648 -0.5291140044292435 -0.21080989040015305
Ni 1.1054754475525608 3.451868530297218 12.652826759825556 -0.8141009923634431 -1.4086565142259482 1.1030983870086164
Ni 3.2214613384304425 8.311218576701755 8.122340721920612 0.32768401258209373 -0.6926539060988394 0.3110623448650127
Ni 5.556266268174973 8.014581745964527 3.563371510132125 0.22511987926492194 -0.7922872389224613 -0.5044689521870538
Ni 3.0556386654294223 8.373434845890419 3.664406284047028 0.8998591098668696 -1.2463332585722728 0.8587379143465275
Ni 3.2755966335300934 4.403452944443272 9.401040978583243 0.45457052469471393 -1.3576383713068683 -0.11876568277769868
Ni 7.471366736061595 6.165249921782207 11.373200897182262 -1.1888487912025592 0.007230199199852064 -0.727667960280179
Ni 0.6619411512529726 -0.23577552577221594 0.043312755640173714 -0.1196398578525359 0.15375685414090293 1.0959365791528544
Ni 4.504645902974011 0.4663607883208186 1.6778524693189916 -0.30626415214542096 -0.9453059293457591 0.0058654576418415115
Ni 5.9282622498966395 5.6233636626523005 0.42348010265990077 -0.4846915124498104 0.295165214018782 -0.6178245196927746
Ni 7.949735092592528 -0.20342180031718457 11.334080485817795 0.1141299837779002 0.26651361172036037 0.2900168370486231
Ni 0.23644984419172405 4.7942954932517265 5.806434786164116 -0.9771495562189171 -0.7153804011620776 0.033810777901857894
Ni 7.916218032277032 8.965958260329767 2.1655510064479984 -0.18702024417972307 -1.2202576445311435 -0.18886526780826185
P 8.544690030555303 1.4643195083575478 3.43020175748809 0.19340352199824754 0.8405332184130427 2.4097299282503144
P 1.810590151983771 3.1474490164608397 1.76534031273367 -0.09192233733260943 0.10880677179277391 -0.13058735800297508
P 4.5782785818656055 1.1192691460534905 8.557345703734303 4.016516937636535 -0.49817154921411627 -1.4127299129643733
P 8.377466293814019 1.6313534235598286 12.552017060021187 0.4395977054349655 -0.3277269500048872 -1.6031270440361294
P 6.182939481393164 7.785232131243629 1.317855016686535 -0.39292601241003944 -0.6882894584825566 0.1522710136239958
P 1.940871001586589 3.2053084293733245 6.156491917537417 -0.6378919798666111 0.43995046078869393 0.2613917171127627
P 6.998855729877059 4.0237465925896965 5.955665248832039 0.3861838085901994 -0.167335364156286 -0.5436397088492444
P 2.369415723689525 8.596448036856957 10.164988609248399 0.013999399602885567 -0.9083280665698292 0.46305130847221543
