# total energy = -381169.03948613047 ev
CRYSTAL
PRIMVEC
9.22112347947599 0.00000000000000 0.00000000000000

0.00000000000000 9.22112347947599 0.00000000000000

0.00000000000000 0.00000000000000 13.49604629765448

PRIMCOORD
 96 1
Ni 2.694974765907271 4.2251925420663 13.56514586195191 -0.5075049107999002 1.2270060189985705 -0.973580093700104
Ni 4.562906967961605 3.906842475453982 7.723044995666033 -0.05245384692434192 -0.9693567996473759 -0.7466249609986562
Ni 6.8902355411961524 5.801165532873989 5.314283758972441 0.2919402793235811 2.855862349480004 -0.35271498740879254
Ni 5.235975212144385 7.655210722985379 3.977257740593353 -1.4007768543675552 -0.4711412845692015 0.1460078063231034
Ni 7.447919867422731 1.319699527382548 2.7692536817797713 0.530988338633821 -0.33960853193382157 0.3624802943256725
Ni 5.948048808597184 6.487263224517179 11.192513909118638 -2.056824679207587 -0.8505903455387286 2.029392808248879
Ni 0.2664591164079917 9.280876348162602 10.520950552285852 -0.8683276149174918 -0.5226808472093902 -2.6647705063340683
Ni 7.047077630264885 8.687948888040987 4.753064976120545 0.4395969341040171 0.6965594118008327 0.8279013885816451
Ni 0.9807125864486463 2.0047275687034403 6.026078877496503 -0.05373991272561712 -0.38912926437176854 -0.006824993341633407
Ni 8.327808689871288 2.3629589943152447 10.373681833601688 3.0580310192653917 0.5021490458046255 0.018795278329632143
Ni 3.2314689504041794 5.824541080865595 8.110327570764053 0.6321687042295887 0.4223836555495242 -1.2012114265329699
Ni 5.957555786892784 8.64488624144501 12.708296016488376 0.7347624052331152 0.003629369222471169 0.741122286012872
Ni 6.665424551044134 4.0259609484147605 1.4811374243877762 -0.34744756836226615 0.09078462418374043 -1.1084313691857557
Ni 4.5540639105557075 7.406304937211243 6.100739547880583 0.21313905275396197 0.34068299594492296 1.1197856178563101
Ni 1.1436498381297857 0.9742946845148561 8.419670443972741 0.5179595304743209 -0.3752000558851861 0.2459800105433828
Ni 5.932345235331028 8.552499805418222 1.8013307935813652 -1.3459599065276755 1.2786191151891724 -1.1414016534641893
Ni 4.698549694177201 3.5499020071277103 11.844494366042246 0.571931356705086 1.785682053355647 0.8978135401917505
Ni 3.504653954269796 1.1332852953516532 2.1509192601665292 1.0642618737573928 -0.5388294319447947 -0.1715645717462852
Ni 7.3729705758741 2.9776851903154236 12.622244492284164 0.7992544142689139 0.5978881857801639 0.13135020431092861
Ni -0.05818713330833763 3.0696751180330835 3.68116838814535 0.30767491645001854 -0.5657277989975354 0.07641395728436517
Ni 2.8440618901393404 2.3050411178121752 7.554466260647116 0.9124588009087511 -0.4630999023219637 -0.06484553572047541
Ni 6.721747173187223 1.495361929449651 8.541795925296464 0.1185697647168087 0.9376684674051594 -0.17574518548653603
Ni 1.0618308095974287 6.737321650724827 7.745502119760218 -0.9891370675980965 -1.730742206784658 0.6383408944785716
Ni 2.543112083511307 6.841796979618279 13.519934693587867 -0.6287846182487042 0.2770726181831293 -1.4197464534915225
P 1.4011036053588413 2.5266523781207675 9.978045842753927 0.030795645224617932 -0.4832892327856452 -0.06485890545691411
Ni 0.05212701096510928 0.9740457141812178 12.530214913735591 2.6453314237728502 4.203888137397773 -0.7857710350704983
P 6.759175713344199 3.961449968632007 8.801406513304705 0.35815235637427995 -0.42056125762880475 -0.14516602714809837
Ni 3.9495823827285763 8.092476397842178 11.757876664857095 -1.6197980769339073 -0.26459608298267334 -0.08312607919721812
P 3.5214363989817183 0.1876240434299083 5.889917924142002 -0.7426798603079791 -0.002988650314678724 0.9398726741453298
P 4.77716899286613 7.145863525978527 9.433776406948727 -0.44568839171373564 0.5242021689499229 -0.8722593458717302
P 6.217508478581692 4.7938500052199045 12.747231288220036 0.6746430713437156 0.8528529163206602 0.4823003865098146
Ni 4.651466637749136 6.36756382077791 -0.11907882212986587 2.749975322437187 -0.9975589731132046 0.2954079261572074
Ni 8.107303964378866 4.762276878465166 7.2030289588066 1.124073703708703 0.3724978264626746 -0.014249053719846428
Ni 8.120951227111638 9.308263084862826 0.41552410994373734 -1.4227759843464658 -2.8412191456455322 2.941129129169309
Ni 6.080832986537671 6.226047238913142 2.604116270039146 1.5776337848610316 -1.6905877460529595 -1.0783404633376463
Ni 0.015541281493117846 0.30870661568938995 4.326791802550055 0.9833004063116615 0.9847687633270717 -0.8790611992849118
Ni 8.664665551284061 7.335237738642679 6.04973751397858 -0.7663381231568672 -0.877235973150715 -0.3093949844649188
Ni 2.309052306520794 6.5792992578521785 5.660862450857621 -0.13571568036847595 -0.357350686408591 -0.2227328670899841
Ni 2.604174363116995 8.223001400532985 3.6741234498157294 1.3546630907286283 0.4317131604805662 1.9597727339578959
Ni 5.185056168353595 0.013845516887336208 10.104462834939698 1.9033462755390511 -0.9002499175473851 1.8385166806581756
Ni 2.4679507061229105 4.482738520530036 9.919148682938546 -0.35504080732849175 -0.6348904740361259 -0.4243721467344627
Ni 1.3445227917586449 8.37398807619948 12.15202897693884 1.593424214926069 -1.020044041589598 0.9806326296715112
Ni 4.149487118393286 4.601949204725496 2.0449344333613504 1.1081426343007432 2.17770663699734 0.5402695068254308
Ni 4.524298124000715 2.8215070221363936 0.7072195970591961 -0.0694660652116223 -0.5103562642057662 -0.1404827627398161
Ni 6.284850343269149 2.088252505077394 10.74811661737162 -3.037580978941156 -0.2691564486598461 0.23220918201153556
Ni 6.421654931041723 1.479271068997835 0.5985984510544904 -1.0985501055163016 0.7177877250519896 0.33625427074960795
Ni 4.636030477063555 0.5096487277442597 8.143838055559437 -1.4507141055176307 0.9340938626800235 -2.7559433670951634
Ni 2.3668226450483743 3.3235049837391797 2.1216053086614735 -1.839568518961458 -0.9971928480230374 0.7733554350149648
Ni 8.97055788009099 5.301177776187246 2.1568170907367197 -1.7436512015368422 0.0784078477859424 1.3004318401888895
Ni 1.8787116953885308 1.687041422980825 0.34438683083681504 0.5427408511840589 -0.539114053064749 0.42094923709584275
Ni 7.954058113462689 5.041483275955445 10.919894160121617 -0.7671120252084143 -0.1886212701182558 0.0028009597839048534
Ni 6.6076449913930855 3.91717935486171 3.8645387273194283 0.6670973977859737 -0.634194733520682 -0.6776641175582264
Ni 8.840696798289887 2.9750110645096774 1.2453597520951585 0.4310282185983996 -0.3851702797240205 -0.9026253597580971
Ni 2.8381142655024227 8.226256457117218 8.106926820429022 1.1239865433115352 0.8244746222882832 -0.6412292717699601
Ni 1.9110778387615246 8.546635170892516 1.6058134684627723 0.9825689274622756 2.104066128693054 -0.33257836455991757
Ni 5.520806494950199 1.7961365347317906 6.2353762495258085 -0.864559149013995 -1.1117923152381883 0.3371595561726968
P 3.816143505021855 9.277003476306003 0.21153165024562362 -0.5194037191200152 -1.2040599517253587 1.189814754660254
Ni 0.5175973361737528 7.303664611887941 3.803739249732581 -1.1962337708127204 -1.4950998307218575 -0.5125463298785495
P 7.567729924643616 7.93127271737304 2.8080008425926835 2.257123642774087 -0.652017877745032 0.35355188148779104
Ni 6.209375447682837 3.9109274331503454 6.185575728011698 -1.8279011099258584 1.0302106977099548 0.3918592617084219
P 0.5288139107603367 4.9333656032920965 0.2740536336963101 0.729815345640485 -0.04880699420037401 -0.19141965879899936
P 8.708327570905464 4.967151799679176 4.622152686244079 0.9800649300934992 0.30349327426850314 0.050716809628577164
P 9.427861056243948 6.824286066152378 9.740663694977862 -1.575807787395886 -0.1376038985301243 0.7695458314608876
Ni 8.817809969842088 2.5791482340246006 8.080986878000939 -0.6076696906469599 -0.05812904293224827 -1.7256280254865444
Ni 7.805782448095812 2.5601619408038045 5.753567015644058 1.4233773653758905 -1.5515831105205666 -0.562207958769735
Ni 3.018110595599527 0.8170616198110767 9.95954273640286 -1.5566759516624415 -0.970045341073968 0.5805304112280066
Ni 0.9124135691452019 5.940469045106415 11.854198676380063 -0.08050741062744844 1.004111686630058 -0.5591396042570563
Ni 4.0578936989847545 2.823572553793246 9.791381718277048 0.623781508607158 -1.520144175284995 -0.9371748155981924
Ni 6.189347167510147 6.179609661127845 7.711424535871546 -0.7021549036107391 0.23717732465008834 0.3853119475082074
Ni 1.9381510572638352 6.0359168941246075 2.0059041840579686 0.16029208415625942 -1.2621334588293232 1.4840415160251668
Ni 1.2630726081650112 8.650059291710607 6.481880854748855 1.2633968989227788 1.7702965720385124 -1.46552880193296
Ni 3.428127850608122 5.60351997245896 11.517647034154084 0.4197549596774255 0.7371602160413304 1.2813377996719157
Ni 1.9752568580994267 4.377479396141796 4.248217687366119 -0.8196172941959821 0.7949714706228439 0.3278966428135321
Ni 4.861505388105275 0.6014652983407194 4.240755032143395 -0.29226835208696117 1.196810212141481 -0.5180744587856304
Ni 6.548011985924952 8.79469261330759 7.185969880390635 0.45416891838092105 -0.9043413140079394 -0.5755692105679894
Ni 4.102938887126371 3.2861317703230135 4.118750347537104 0.7506831902284298 -1.3656360448003642 0.24092984971398504
Ni 2.611827895595509 2.461975418115588 11.88943627760102 0.07236986912197858 0.03623635662421502 -1.9347625850668035
Ni 1.4830240662493472 4.147347817748689 6.849445901535059 -1.0726436700631847 0.9744326715083863 0.4333872057488794
Ni 4.796883754840905 5.364010511498807 4.461887716143993 -1.1294074572167905 1.468807986904864 0.5041308521213447
Ni 2.3759146727879106 1.8576506493874148 4.0776139936336095 -1.6369316512904 -1.4825171089608404 0.6193995774893784
Ni 4.48257254030761 1.3202620159141016 12.215042446270377 0.7477991838124154 -0.8322828054787924 -0.6910407959754485
Ni 0.35710552643635074 7.430528828561914 0.7233750053752888 -2.4914902374482577 -2.0423424264310115 -0.8113812794394349
Ni 7.136633181386969 6.760826294444986 0.4044052792659152 -0.29753808512633273 -0.7294047404656278 0.36955314201205386
Ni 7.079766512959263 7.550698509598055 9.625312973066144 0.4885527951774295 0.547268049630451 -1.825055412946947
Ni 8.70998737312972 8.557894162647054 8.296046530085453 -0.127857874886954 -0.046314309685507336 -0.34038577641947826
Ni 2.322284618697503 7.075847535485324 10.004942937797997 -0.17318642362042433 0.2930931619811017 1.1137854344088174
Ni 9.526066021179098 4.368507243007345 9.215572351761592 -0.23209785324465187 1.5008328765508927 0.17893232496526604
Ni 4.920345376955154 4.955523962985915 9.684438816743535 1.1448867837993122 0.4446620073317503 0.5886774658151732
P 7.526981780038129 0.47642870833812095 11.576759968258619 -1.3983235077310563 -0.17664584292393448 -0.8211147046771149
Ni 3.9914555043971705 7.097480291141462 1.9329033158981452 -0.13679400103431924 0.8519401746984037 0.7846145528685519
P 8.512867416752373 0.5382563411916603 6.380458639835687 -0.6166335847084671 -0.26446495672144776 0.5806615374892322
Ni 0.7213979965037304 3.6394483371263258 11.940235446786726 -1.6283927605814534 -0.5467394308204907 0.28077809205917453
P 3.3574018336078764 4.583894244974977 5.964982479733983 0.6632880513422125 0.2585779018130514 0.2583783842077356
P 5.513272837076769 2.2236739243297547 2.8764261892876406 0.005209312115081351 0.2870184165419315 -1.6019859884531509
P 0.8668409327412105 1.3769073773785747 2.1878443269821464 -0.09546840281265492 -0.2916649141750074 1.6723591388600747
Ni 7.878684650234526 7.454780383282989 11.784194673347368 2.596994941450992 0.9647054169182933 0.37369184677077577
