# total energy = -340874.08758396754 ev
CRYSTAL
PRIMVEC
9.19572082918638 0.00000000000000 0.00000000000000
0.00000000000000 9.19572082918638 0.00000000000000
0.00000000000000 0.00000000000000 13.45886695121979
PRIMCOORD
 96 1
Ni 1.7238941997207733 2.269338381664463 7.639427853786692 -0.6908980997499972 -0.35789396050657074 0.016188179724088248
Ni 7.230319429096601 5.385740589001065 13.445852440878015 -0.7786472795415235 0.5841806063860843 -0.015414277672541195
Ni 1.094539065062995 8.890882699355245 7.11711642720164 0.8939476294784411 1.6946925122499525 0.37348821540040195
Ni 1.1268528281136587 8.08707554453977 1.9939982689679385 1.0509422738303513 2.1237633500116653 -0.7727134305555918
Ni 8.611976486114882 4.978039109600317 1.9044163152085043 -0.06097859656590143 -0.40288466628464814 0.07865570213069034
Ni 2.535057931212551 9.111736326898727 3.7224130850563 -0.3120465631551529 -0.19328653680440905 0.1021383586336628
Ni 1.1664955806780901 4.779834542499005 3.9511869869639074 0.32206589506436795 -1.8288213077472828 -0.2535681073032859
Ni 8.638073941874069 4.9252464762269925 11.556631134794415 0.6848596068654011 0.5210083446029737 -0.5663824018623987
Ni 8.69479314804837 0.7167816114510556 8.467175148251028 0.11339644804598535 0.9517611980527996 -0.3092358331792352
Ni 2.914969942218563 2.5205470837185424 12.331983051025947 -0.6049047263073131 -0.3946453090939913 0.3245266979000347
Ni 6.078362283075055 2.205998256481488 5.759412383841403 2.1432409991203025 1.2900867495091395 -0.05053169020096459
Ni 4.645687366806608 8.463493181624537 7.472188037488028 -2.529419151283547 -0.9814124452603292 -0.7683397269679283
Ni -0.010562204963002983 6.609488727662489 3.332065770034952 -0.9282502594150529 1.1332268309628806 2.1459244594897364
Ni 0.15876871825590108 2.642151296177842 12.185120032548557 0.6677802827856112 -0.9357661081761238 0.5105773790776368
Ni 6.166153829985894 5.3346583597049815 11.219687968582608 0.3993568556370477 -0.4235807611814189 -2.0275048471975468
Ni 2.7211609296813433 8.29153320181594 8.98052350572809 -0.5838630751456654 0.18374543008319322 0.47371573016459706
Ni 3.094562370328826 3.6503793253861043 9.158274030953024 -0.06677283465017533 -2.2281599085518855 0.14236969534988383
Ni 8.064371309772529 6.523968523800459 9.39667125472532 0.06724797451438096 -1.0610148275750049 -0.967875844226475
Ni 6.888680008249058 0.6575731236439101 10.141848332574822 0.5727435681937362 0.18737171398187086 1.3495046864561404
Ni 3.3625164800423417 7.608530231746217 1.5855491774624604 2.7123433710170253 0.1926972399598423 0.9965464726882902
Ni 2.3793651815794297 4.8416481780216465 7.1311674886533805 -1.6172436859431694 -1.7543750157122495 -0.5383092977752665
Ni 6.930897562650196 3.3516103551197216 12.120705847170843 0.1686862217572256 -2.021103571656893 0.07327875408949315
Ni 0.9469017668904258 0.2768261411851377 12.444054979256926 -0.0075140489888580264 0.04240211911529472 0.13779338883311107
Ni 3.126692218962582 0.3054983987810313 11.029474482895932 -0.09626775878549873 0.5485880539934552 0.2774130322416835
P 7.576850973433884 6.631742372108307 4.86054906264724 0.9639952782251461 -0.42867977297088106 1.7531449999598905
P 4.670938816248021 3.5372259803837083 4.141131957601899 -0.08134687580960828 -1.493919180150195 -0.3977596863532569
P 4.814667933061303 0.595917654519809 9.353037559313993 -0.37653163021241604 -0.509815818321264 -0.8820017699704745
P -0.04330172988880789 6.309717423823961 13.43095353396433 1.0900135288002002 0.2221782801380948 -0.17314065798415343
P 5.62882027382783 8.555753848866232 3.4775420738088565 -1.075689398868044 -0.2656003558774716 -0.5499705361632786
P 7.061118165541616 1.2512433439891084 12.81023042246411 0.03150938346219089 -0.6562344869295409 0.052455646696554815
P 0.12740487316856497 0.39546197495554875 3.090546599035649 -0.16534275920628944 0.9477813874694451 0.568082415272641
P 7.497353966725577 0.8229296563134411 6.5190984700407455 2.6027405856855172 0.3541766595559836 0.8098650999052245
Ni 2.841339805409609 2.5255587515792737 3.3970988274255607 -0.5615052762757556 0.9433457202955947 -0.36894713299693876
Ni 0.743935655535377 4.833270876331506 9.338111984809856 0.4852820948459578 -0.8681221837749049 0.1462345776219288
Ni 4.955013024603486 2.4298496890205636 10.430594886691825 -0.06856129400916579 0.5788111145440549 0.5116335882562931
Ni 5.858225921757513 5.137318190363136 4.971530378385957 0.12350653989679374 -0.24640578522689177 1.3416373678929217
Ni 2.104872914344849 7.173774941618361 13.155948145506576 -0.8948115201406331 0.3901435645688958 -1.9610896529971067
Ni 7.064161949141437 0.9196640417464116 3.6685105281769386 0.7975304895992716 1.0388141231082497 -0.4794960842918001
Ni 8.488266453581991 7.668385178728792 7.020872173689728 -2.0563153436713355 -1.1287217440036754 0.9706130406519801
Ni 6.52386737087116 6.161261706496152 7.2751366137807265 0.4737581533667583 0.6471014142800211 -0.6482445267455288
Ni 8.665826627385425 2.6571219297141195 9.957448381606595 0.7813366534482286 -1.1614847973673093 -0.4140877340893191
Ni 0.7152808698090896 6.488509824220675 5.618350026073281 -0.7981514110127221 -0.8153294654539055 -1.1816473883581133
Ni 5.303080254321949 6.842600251092861 12.568159508214084 -0.7398922702605129 -0.2620236942698068 1.4531918776341617
Ni 5.164114520906573 7.119575362955694 9.492969762990219 0.12550762948722255 0.5900712608389064 0.9772940522165814
Ni 5.39709730424511 8.865281812521708 11.774247868600323 0.39797720168070166 1.287568096852344 -1.0537756295140883
Ni 0.2425601265989998 1.5662611529892765 5.317517536049195 0.6729070624892154 0.15703758177470373 0.5316822793770521
Ni 6.370188484103176 6.399449267833174 3.1148122672024363 0.48271202012593645 1.1438436872467785 -0.6212476864417107
Ni 6.066674521880578 4.348012687320826 1.754821248067954 0.4390346338426439 -0.19196730377235327 0.5928866188005144
Ni 3.245942326885465 4.820543998681501 4.996846197873287 -0.1908103073497746 0.32877518876374345 1.143908993267075
Ni 3.5569508015970475 5.024817741540763 11.159526804095881 0.18904344525733893 -0.25539950408506984 0.20113560053518265
Ni 8.166030003718198 3.9768366111179247 5.064867864538645 0.5854890407848626 -0.17368264653055251 -0.6919738493126792
Ni 8.502041643408369 8.621071054030963 4.931060010945441 0.12788127192572168 -0.22692196547066723 -0.7295165834531436
Ni 5.3696204903591145 4.750803651790141 8.846782780897058 0.41168760928825876 -0.7665978045761572 1.1420251459808008
Ni 1.4834169038932519 1.612837479071124 1.2709736826349547 -0.51731804023558 -0.4910827606881349 0.10391421958716299
Ni 0.2625727738747994 2.6969945752996853 3.094166954332475 0.3896350003635935 -0.4449965078530337 -0.19018218684747246
Ni 6.672111586619524 8.730215064744772 8.065468359269381 1.1769684948252053 -0.2437773464651092 1.147414178206856
P 7.04534750429179 3.9343247936497345 6.90150528011211 -0.9897333064211986 0.11680958749259238 0.1387603807320707
P 1.7785259772631734 3.6309579629606623 10.943740938310288 -1.479419186761807 0.7327129789032542 -0.7531205960253288
P 1.5252666294605743 1.1545595350207876 9.60510881998337 -0.643786233863859 -0.6607388025577976 -0.07617381624910108
P 0.9334668187353263 6.901176992877929 8.287405242728449 0.2598236012946945 -0.5563543282024354 0.3558044249673937
P 7.00162185167201 7.575949792791038 10.842099716234223 -0.6072809398489735 0.3171178070304732 -0.06536824099316484
P 3.3759790153599774 7.230889563789014 11.089514263867498 0.31678227806792536 0.42473235828735884 0.18875548170327494
P 2.1911103844328186 6.7453003288279 3.769936570385222 0.47379620569354536 0.3977663712214763 -0.05266801981767704
P 2.6043476877824863 0.03853466820256312 0.41339271103195435 1.0915001406480558 0.4199033123298317 -0.7736922495290933
Ni 8.357815957669436 2.955854117097121 0.8658240157687987 0.04028712965482094 0.08128619777500194 -0.6127388776397512
Ni 4.144630929383565 7.263056195306152 4.705892670753393 0.3077592486337087 0.3592422470043491 -0.007511220775380611
Ni 1.750341092872085 5.886705069215654 1.7012543349994487 -0.452345234908621 -1.7284786075614618 0.3197369898208752
Ni -0.09919148204285588 8.508533822325207 10.400770405274006 0.07425577329078178 0.24769442213132825 0.08061565407053858
Ni 6.015233659471525 8.907784434269052 5.620059510578436 -0.6082669579113266 -1.1408311256726997 -0.6201976479106416
Ni 6.240556407345861 1.960794360139442 1.3226867383810315 0.6901473376269017 0.05140817926864695 1.5466334798247752
Ni 4.713790875387489 3.720432326786206 6.843806729667775 -0.2957123447715036 1.5604549590888996 -0.2825174433477844
Ni 2.5220827690997205 7.184331629148857 6.6299859894268405 2.445207038111002 0.4736805060512874 0.7097869662347002
Ni 4.300148960320625 1.3321840788701393 4.889795133223885 -1.6004225006207728 -1.0816610430704467 -0.7514097839818091
Ni 8.242887838543883 7.509179663732736 1.5479451162094493 -2.335114971847901 -1.462031844523295 -1.0682296001558893
Ni 8.826402304787443 5.129557001969636 7.311677649704012 -0.1729113155821667 -0.41511926067762706 -0.4442999960066413
Ni 1.4536503555167581 4.585997942799249 13.027025978398523 -0.456260253692311 0.21441663391480492 -0.5521750000137652
Ni 7.826303292806496 8.15974013065996 12.704336179497057 0.09826961970687592 0.13543157346915385 -0.3992828078660027
Ni 6.020557981840999 8.59896454111867 1.1126160131008422 -0.4853836534208286 -0.49008877220598174 0.24128106240581673
Ni 4.001168488474799 3.337430553576146 1.0763113072032837 -0.13420772836438175 -1.6912999416286354 0.6035245581303348
Ni 6.498119352504097 2.3232804801434592 8.434469647492351 0.15516710422486824 0.7198680046197861 -0.767507203764304
Ni 4.758656797392096 1.3386578663452866 13.244588457451446 -1.0633257350963685 -0.4975197745627302 -0.5425806714571108
Ni 8.314991485692504 0.4949339264841887 1.0556365680266167 0.5442058657653596 1.3949527914866107 0.09754225462254813
Ni 4.342522841976134 0.7744111939890495 2.366701754403257 -0.11647405853004458 0.22939613804277267 -0.37146732831563123
Ni 1.295401195488621 6.484849927324214 10.920363576777165 0.36928703283486075 0.3742104382784071 0.14356422987861728
Ni 3.6487976614006987 5.37675636973513 0.18172123748596852 0.978556978089405 0.8520530461271841 -0.09354418920674858
Ni 3.1181401985763793 5.850381971876405 8.898814008584385 0.04473205280005199 2.617205612070912 1.7608811922618837
Ni 4.079635574448423 5.424371812272505 2.9264020623735387 -0.313012526612848 0.026864171380695665 -1.0784355941546138
Ni 4.001517925866923 1.6276517853530306 7.361273850511481 0.06940513006669982 -1.0208678230424741 0.4975143752460915
P 5.347210518658925 6.43142278921256 1.2996634121004544 -0.5272203869509565 -0.12287996205638839 -1.731740309031869
P 1.3795420412238442 3.4436687165028164 5.790570244781802 -0.9373591636948566 1.004320203096438 -1.052017252062085
P 4.833270876331506 3.6235737991218224 12.390260012311455 -0.5299002477759648 0.5529494162859444 0.9049020716074156
P 1.809386816420267 3.7028960871340666 1.5094389547415072 0.05582944826479417 0.0606428104930375 1.2697408388629359
P 7.392789424992767 3.0936519939651337 3.0578144306865203 -0.7794260666890771 0.6334982216742896 -0.3337394747475543
P 7.463807977081633 4.267688065736435 9.605364461022871 -0.7294445925646277 1.049304224006296 0.24222388593506025
P 4.419785288519013 6.119917745575326 7.139497892167209 -0.6010100192385971 0.11301849588127631 -0.5909881162262208
P 2.343327151586387 0.5689208572619437 5.748484189188753 1.5009604032676924 0.8374661494519446 0.08385370139186203
