# total energy = -340855.5109639141 ev
CRYSTAL
PRIMVEC
9.38273818580019 0.00000000000000 0.00000000000000

0.00000000000000 9.38273818580019 0.00000000000000

0.00000000000000 0.00000000000000 13.73258575662891

PRIMCOORD
 96 1
Ni 3.396063214447115 4.062350197616848 7.625951579859247 0.8715641195769183 0.388032431763164 -0.14634744905070923
Ni 8.850764801511838 2.9710814843776916 8.650965966023312 -1.086666209594522 0.4429596799286629 0.6796130137544811
Ni 4.244825684135816 7.452530435405829 6.931165468617079 0.3711081452039996 0.43643319166405486 -0.4079947338177038
Ni 2.80648949628042 4.668024694005805 9.772038946175647 -2.0320927236785455 -0.31347789628504075 -1.0111914762949747
Ni 1.6287494706307941 5.246827029072758 12.235307890375449 -0.5715526332094286 2.2985016915002414 -1.3688884902993907
Ni 6.421020379799297 6.535236448155706 3.7059853680236623 0.5355965268297939 -0.006165762491079704 0.5290163025091148
Ni 0.9302487334572781 0.9808151227773457 5.1030562746310935 0.7347240957960121 -0.3987544461663584 0.33436348148479833
Ni 0.5978183299521853 1.7829922988334534 2.3487939122775825 -0.006538572449466158 -0.6365537206711618 0.8201502838813165
Ni 7.816749554888208 8.353892533715742 4.8137376751910645 -1.5129180898502008 2.867876600332061 -1.701989817242314
Ni 4.326905875212941 4.962689577496559 13.351684810212957 0.6115700541426307 -0.1870950632817165 -0.1038172889979825
Ni 8.72951167973661 0.17959780080756507 0.581901453392602 -0.04426976845165279 -0.3364473605970206 0.0037427548718838768
Ni 4.3188554861018105 9.05153662691974 9.558250448490504 0.045703672684701935 -1.1408522087186224 0.4559108407726922
Ni 8.706186193337693 8.897059230269788 12.040415288530523 -1.8841902714358907 -0.6655115413560926 0.0028066162108596826
Ni 5.976879098954899 3.4816337840199756 3.7362522039149044 -0.08330837041135329 -0.07476536593734866 3.3261379436148006
Ni 6.988441453803546 6.008527073863808 9.593858877063528 -0.17099224418258294 -0.37960872647584304 -2.3560463226839294
Ni 1.856815680565829 5.504589604435217 4.0778364065072 1.0233525371375407 0.6667824376487161 -2.2328776257425287
Ni 5.158666823841771 4.542108351498372 9.917054789935548 -1.3104218615220657 1.5547499382843222 1.0107029666943304
Ni 3.1358142135433393 9.273231957826269 5.763909714287708 0.3072152032047806 -1.6274962169091134 -2.2354068199222854
Ni 1.3869187842085458 3.2662155047630343 4.606678477121893 2.224040229956557 -1.8550915542977215 -1.978933880267379
Ni 1.4448384252143864 2.361053397606957 10.201731748940524 -0.2879342434879815 1.2886605585855742 0.0679848526804055
Ni 4.639519936290635 0.794079873255518 7.268217808807654 0.8258367927431326 -0.28283060371282903 0.6269115695957074
Ni 4.09965596347449 7.098454055584443 3.188198039193041 -0.1289472512963908 0.5386898210431368 -0.8000560842346028
Ni 3.5553070419460826 2.72923203247966 0.34408376396665985 0.7392045001648688 -0.8762697525827039 -0.1815808183317066
Ni 6.571078506902232 7.474289004576822 11.291123914601329 -1.01269402898243 -0.4351252714859087 -0.967539801043295
P 0.24085206686013766 1.7095442266167482 12.809892684760056 -0.1990884881981668 -0.9980364269702555 -0.8424548609157878
P 3.918297022764641 6.3685333440327865 8.738263897642046 0.10014961033840818 -0.7396989233027842 1.513382431081129
P 5.5700904976576 3.184735808910981 8.438838212945011 1.566463884287141 -0.7430323585513913 -1.4220733018524863
P 7.190620689895212 8.36085452523143 9.23148346557688 -0.027970002850364734 0.7965262167044734 1.1733427251471598
P 6.768838473446879 4.457081980723234 12.796077541488227 -0.5803617468606262 -0.2588177857379994 0.5138092557513732
P 8.958366039654553 8.46033031235988 2.4395249876909118 -0.4097502830562298 0.052629196159941626 0.6922445864755628
P 8.859059141808155 4.4660331126719734 10.14691122626033 -0.26604592805532246 -0.5853627996196435 -0.7044298156878448
P 9.190907815563959 2.3369866749145904 6.591915691212255 -0.9448888964129986 -0.7045948805107994 -0.23446892457998975
Ni 5.022654655362804 7.237008946032078 0.3972754433488422 0.9756745143352873 0.28576243264764334 0.36768986355107
Ni 6.8375857939798115 3.159871553497815 10.422455028201465 1.3230863443636116 1.391034944489443 0.20254122263345764
Ni 1.7324756380242121 6.825726013284626 9.791621658429541 1.7985013166075026 -0.7366161706124024 -2.038718199414863
Ni 7.1661598922113905 1.7691809086567811 12.380584574248742 1.6997246753572208 0.23500937046449202 -0.6573979111100228
Ni 1.899535286187017 0.8559899926867247 0.41774763915487556 -0.5517942196355787 2.044308291908131 -0.9087345579796284
Ni 7.42626815204679 7.525415543349029 7.312780184150784 -2.2735522206437553 0.1186075599332796 -1.7154755104335746
Ni 1.811553352975974 0.027681891602062515 7.515885496472366 -1.3989739968308614 -0.34174100489579207 0.7455114162195031
Ni 0.4569252612219236 9.046451182982405 9.945111052779492 1.1097683428296243 -0.692899189340426 0.46676732387122194
Ni 1.1883425194673156 6.6869647026033725 6.523788569653967 2.5261232541410945 4.4911888610668145 -3.5682044780363906
Ni 5.417630389654375 5.0882493759641045 2.034867206168832 -0.09795028869424421 0.5841798350551358 -1.2105998097264055
Ni 6.371929895149605 1.337171507906429 4.555634506443135 0.10250782615793959 -0.7656665510111395 -0.13036392913825937
Ni 3.9335627373145363 3.2868481453870166 2.5824259623300105 -0.17994482539018042 -0.6492485425300109 0.9782260771125477
Ni 1.5098420333285067 3.4226914245839324 13.385068591631843 -0.5839767179053942 -1.812966085882581 -0.326216941118264
Ni 7.52249751186469 0.9356925979820778 2.5364636824934297 1.0646696507187727 -0.5010558127404467 1.8924607389747987
Ni 8.713645469961643 0.5616854063310137 8.241927384179569 -0.15009020392259315 0.09393525399758015 0.15301406243760746
Ni 5.0305455379297745 2.960300718540058 6.3273984828415175 0.6810859987555818 -0.15535248076279695 -1.2902006493791844
Ni 3.086601753301053 1.5739918122944767 11.571996173391193 1.4693204077649082 -0.22153524723745718 1.4251113173478618
Ni 0.036657418669321096 6.3647896316139745 2.99621690091593 -2.3061011011140544 -0.3660099047454858 -1.6654480135625382
Ni 9.329303199467434 7.399949572260399 8.30629202784326 0.09407435067860573 0.33604164051816965 1.097399022630994
Ni 0.5045745573314429 7.075194248350767 0.06344513535029879 -1.248677076214101 0.6708455519744962 -0.7726900335168241
Ni 7.98374352388577 4.1175113136825106 2.6587798684717936 -0.2810164333222257 0.06857312108370772 -1.521563938450657
Ni 4.188435429406333 5.087095299203418 5.2517388923590955 -1.5578972256640524 0.7099132073999194 -0.5655977011775744
Ni 0.2484164301484754 4.954986349687424 1.0694557241883904 -0.4730120192293531 0.2047048059436797 -1.3044142218754051
Ni 8.690151094280674 3.6148780448208733 12.109339004535821 0.8030511623071848 0.9890077411090838 -0.5129759612168004
P 6.19528108886142 4.842534236054668 5.431594718458683 1.4829385127689751 0.9722498049244546 0.380420423743861
P 3.181967901232912 3.814786658342734 11.626129879657707 1.0020128951195002 -0.8989211714336326 1.3542694548346355
P 4.108241168645451 8.448282876906857 11.788408084590872 -0.3178634269472461 -0.1397289152929271 0.5797125433124016
P 3.074357280352305 1.9678791489906042 5.943724256340572 -0.351824100163407 1.3570693861772756 -0.004804106256862693
P 1.0334710478259084 5.573993716620572 8.03606167037023 0.4541082403463147 -3.8618401427845237 4.065103331185671
P 1.0449649017433156 7.478023334257743 11.508400914234628 -1.881967552752959 -1.5429272346177814 2.944148632721923
P 2.7273085712118488 0.932816788818253 2.364984764783605 0.3949682396510488 0.738073214773903 0.23782138599199046
P 7.072351278769564 7.776084768865315 13.576637827715505 1.2728940397799369 0.1451122910920275 -0.49306199590169275
Ni 3.8764218635537118 6.19197836512352 11.246658181458482 0.176368935113464 1.8877291378270844 0.11235386571408391
Ni 5.6885287980653 5.5441284619110975 7.682228303460241 -0.46767569461810427 -0.37598295679779764 -1.1897260516011898
Ni 6.422643593454573 1.1489725512734865 0.6793852852666313 -1.7337262291136464 0.11200908078015549 -0.5085744897149951
Ni 5.184206636383145 2.781831661100872 12.33401804609193 -0.5660946954186509 1.0719985802800183 -0.5344863244847504
Ni 1.797263443166822 3.730623499453637 1.8636763385122848 0.657336461744468 -0.49368497419767227 1.5735174486998127
Ni 6.266768168858747 1.1154949424756833 9.785414977314142 0.8427749632593678 -1.9879134580581697 -0.6192982760248238
Ni 4.114780936956008 2.1254153181932716 9.506602229491516 -1.178900935961228 0.29893907923891744 0.1253209673977132
Ni 8.656664102744978 1.6120575799213512 10.572498142923774 0.001072921349204604 -0.6802056530331576 0.38437272352338964
Ni 4.2609076968822945 1.0249139908686224 3.8511663479704583 -0.7078750939239681 -0.10797116326535598 -0.3887785659005692
Ni 7.328959777371336 0.8194658088954666 6.5079683352946684 0.15937034367293842 1.0465860537441847 0.5254170151936307
Ni 8.680486874252159 6.501890197688386 5.354019179843393 -0.5992554984413357 -3.1352402187575423 -0.004390158647895665
Ni 1.2960469677268405 7.962519770774607 3.9353191858478738 0.6351426992562481 0.8518540427425005 2.0154391742822644
Ni 7.5773959112693845 5.87693417493186 0.7618436006807947 -1.0252284140040149 -0.008880333208765351 -0.20940272563998127
Ni 1.5968106308472396 8.49336693247677 1.7697316753710275 0.8496115265652271 -0.9095915066632851 -0.4857317807888667
Ni 6.104352975952364 9.251032399974363 12.37143921962564 -2.2813701740262773 1.4323867679633524 0.9372262376614182
Ni 1.582698993058031 9.32576590728224 12.147529562576658 1.239461214042788 0.526669656653809 0.09814569253450194
Ni 1.7885844106169428 4.693179814293616 6.081530404304445 0.48396697557896 -1.496312620083036 3.5214823913895024
Ni 1.5229591009011887 2.597489009741443 7.82512927809934 1.8757668232588856 -0.4957194881291979 -1.087026164037102
Ni 8.709132373035706 2.51195597112015 4.454411653519238 -3.274880173881089 -1.3143638768889492 -0.1741593290566549
Ni 8.357176491977858 2.737939213243214 0.5217177577334793 -0.3931584401358197 0.4913758664485215 1.6914935456966804
Ni 7.302537987468137 3.8218237117615543 6.979833730061644 0.20396432823322935 -0.517187942415619 -0.08817983957104168
Ni 4.213027585420638 0.24251750283592524 0.6267912862881543 -0.18509268813970703 -0.35556968324876825 -0.11260454827230928
Ni 8.386732116336905 6.16890621264768 11.214825366613105 2.7019458298327854 0.4202624954414633 2.632443254956273
Ni 2.7798894343572775 6.682423457463759 0.2573187718601782 -0.17733978366716552 -0.3199676177744425 0.6887735972078267
P 5.951236076296716 8.679698724269251 5.99857198896065 -1.1209143321441146 -0.04259495185239116 0.20228334098638068
P 5.907681407003161 8.668129808448711 2.807503770246519 -0.3878773942425384 0.27675945781808464 0.22580250715424335
P 2.345487435444526 0.5300956043970327 9.5012465627029 0.6766467320373056 0.6814649793615555 0.5255861937816432
P 6.00271915910881 2.925706563933135 1.8172195883888085 0.6394755223036471 -0.5475472714337667 -2.0649141410839404
P 9.003450095224466 4.560460986814657 4.42131592215363 0.9314358562318862 1.7108130719608985 0.062284716971834665
P 0.31079568647427014 8.487061732613506 5.889096079787161 -0.7942291931401806 0.9596596269642699 1.0415567188503934
P 3.1741333150932918 5.389425879551742 2.214571970188363 0.2765627684262463 0.04179739565176027 -1.3326223088785047
P 3.0310184140302607 7.062715206954726 5.048825926164293 0.5469484615075031 0.14306569297564392 1.178643568534783
