# total energy = -381174.01794921944 ev
CRYSTAL
PRIMVEC
9.21908778948210 0.00000000000000 0.00000000000000
0.00000000000000 9.21908778948210 0.00000000000000
0.00000000000000 0.00000000000000 13.49306685957733
PRIMCOORD
 96 1
Ni 4.146930039725774 5.103585553692036 2.1792512857622275 0.0064948636957242985 -1.1241564932304962 -1.3836656486085654
Ni 3.8258015570576673 2.394436778039697 9.608196837000303 0.99632201538231 -0.7210429987644937 -1.480095129782909
Ni 3.099927466070498 1.2607102461706898 6.761349001385409 2.6067777318693683 0.5976123064109579 1.0473468431696091
Ni 0.8599270017551313 5.63498298915474 5.452048631459932 0.2787124677793974 0.6009665675951714 0.07229839245409485
Ni 2.3302627083973264 8.708147443564298 1.9366463827779148 1.0317137646180425 0.07401614647614996 1.4337656505887502
Ni 4.269967984481855 2.9256590508356566 11.849422518074105 -0.5883895022611092 -0.269200157413588 1.6576205470983196
Ni 3.4650309971790745 8.875169655848572 8.585085529180136 0.5330007410781594 -0.00037512395123161197 0.013799367776937525
Ni 4.9193697428036804 9.142108340878716 6.740029861025119 0.19366911695480837 -0.22814683901670385 -0.5332264839357205
Ni 1.1299928013410427 4.423834558584881 0.9675607728342348 -1.0722366644327532 -1.2982610577898157 0.554092271641136
Ni 2.222085933051316 6.951505592402704 9.528142888754429 1.7657333781478624 0.01785785411702731 0.858761054274979
Ni 0.42430021528910006 6.454781145867591 2.694565100782742 0.0961487167091312 -0.30050539528477277 0.6436947025913172
Ni 8.011774433291908 8.797646347182763 13.233743214348495 -0.5046332456790599 -1.674585714197748 -0.10301099104660323
Ni 2.8014410628509845 6.4790734420186675 3.573341449297073 0.09047017826711515 -0.549569186959802 -1.8028266834557338
Ni 4.125034706382773 4.157144788923267 4.359111031314198 -0.49094366400710937 0.3425658147899326 -0.1414006465683952
Ni 5.102165814182637 1.8940246964152359 4.768031964463174 0.2994085626761682 -0.19625461829379748 0.8694676420592058
Ni 2.658600517665108 1.2295958251043198 -0.21256819327280482 0.4833301133259096 0.18360530496090316 -0.912938311648331
Ni 4.704288426217484 6.468241013943709 5.231005330843034 0.7519345461370276 -0.3456452250462047 -0.33206722925145393
Ni 6.493280056200379 4.190056932095694 12.042953295198153 0.8757730154519434 0.7247685272451969 -1.8993577232049483
Ni 4.901669094374812 4.6626089306201335 10.410845646730142 0.3561718356091414 -0.3147513636808257 -1.610692515088213
Ni 0.20468771708686914 1.2414146955656786 0.27890137325998837 1.4370628332827833 1.9846671832067304 -0.8843476444948317
Ni 7.930250040554158 6.766128176461203 4.450417798035215 0.5097417705502189 1.8263661613385707 -1.9821241050699023
Ni 4.564397989103086 6.617710083202688 8.006664292966844 -0.151173666794759 -0.32890734346623357 -1.1614788838300383
Ni 7.347364000156439 5.302782382130867 5.886310071034132 0.23426477898898362 -1.8827226857514285 1.4696693064638948
Ni 5.209144108124609 4.515739644099145 6.487844482078681 1.151356707794372 -1.5280091798553683 -0.22662294617300968
P 3.179644917614468 3.8472820314531164 0.5819290990920329 0.2617838103448588 -0.8406244925752684 -0.06277939722006606
Ni 4.369995086280407 0.5394752001259194 11.393343185493778 0.6173169839287368 -0.2597161291825527 0.06061658524079238
P 5.522141355420705 1.2776733675816883 -0.19683950770796524 -1.0872174541123019 -0.6085590352304487 0.11769121876659731
Ni 8.925008044081103 2.7001417269466077 2.1908157094024214 -0.38554180413082634 0.9057137688754336 -0.10874609375816756
P 5.512848514995549 0.8485718514062578 9.377560153698466 -0.6687678435098612 -1.0149892527745101 0.24681279085732333
P 1.4429255150230749 2.516285460479463 7.422279228905306 -1.3334072666736456 -0.026305470663748245 -0.01761102821354386
P 4.02648265861996 4.4306105880615565 8.282962195853754 0.7897377330277302 -0.6745667095798253 1.8751047641948544
Ni 5.090983060774191 7.784920341682971 9.808056517846444 0.19012485124697578 -0.1287551898902428 1.8150710480407257
Ni 2.2311482962833877 3.0907729119611926 5.473192609153479 0.05478352349878307 0.2799957053671952 0.1377036573327822
Ni 6.9498553757002215 8.827202742423882 11.011462758546218 -0.4248994799928424 0.18175256802288053 -0.2505935980559942
Ni 2.2763402643033417 4.104052062724386 10.07533999675744 2.833758318492113 2.3282655530262355 -0.5629589780031465
Ni 1.7803441256983747 4.26245442798731 3.553129521372359 0.34240897749709415 -0.2118948959342157 -1.143336922813689
Ni 0.3629757656620229 5.63509361820742 9.762598118191285 -0.3718751052770112 -0.39689219614663906 0.4451327763205818
Ni 7.0155321566415 2.476422125163616 9.695685979495073 0.2724263776603695 0.048867415124664235 1.0874511673896625
Ni 8.779005351806111 4.51277109785222 3.958636626337372 -1.1187648899012796 0.432670639297829 -1.6620338456746666
Ni 7.229562497227231 0.7097609694642655 6.211533672468959 0.8085808338761622 -0.322779890412257 -2.417666409488572
Ni 6.7765549646763334 8.662780312877599 8.14415868918194 0.04841412963732953 -0.7468864421901589 1.6653742229018094
Ni 8.194561285583143 6.403476922687044 7.993346398841666 0.7144272932201889 -0.19325979733153167 -2.372216504685889
Ni 4.590810675430538 0.20762215270921744 2.1865647880531762 0.3816311562225105 0.039200324348545396 0.593391840571707
Ni 2.1559850740747617 6.303707955344746 0.9654938533666555 1.980000116748364 1.8393422618832647 0.8287354544471662
Ni 2.9958347465859405 5.192872418292864 6.677503242358914 -1.1244611689551085 0.4690712894140503 -1.4110790076245117
Ni 6.553222564577723 5.694003588759746 0.4154296090816746 -0.5010696966975178 0.026047074796039012 1.1285037144555985
Ni 5.707131569677824 8.371143691836549 0.44817857440139774 0.3352983345942419 -0.21552452226700303 -0.4280357116289789
Ni 6.128019800600506 2.1741282387143515 7.565508819593109 -1.790570234685884 0.3150069313350575 0.45452270217591395
Ni 8.50047827350769 0.9712216725691846 8.180400766840048 0.8968223799230749 1.1137419827653916 0.09051954344781185
Ni 8.8420823500094 0.9926929278769105 10.70011019649997 1.4648641717657676 -0.3170327035158347 -0.25914097340537307
Ni 6.031689552979024 8.788058495950459 4.160735623591519 0.6298331141178765 -0.16575182171925001 0.4324796063329455
Ni 5.805536112037063 6.517517037825116 3.0867008409137804 0.45296487077049086 0.014576355152278122 0.11293802035232808
Ni 4.436271107923705 5.255801911092579 12.916494123794381 -1.3758520661014175 -0.7784971271169044 1.545807384379054
Ni 1.88645582539435 9.045538396976427 10.971171657560006 0.4177075902300935 -0.20519177288242726 0.7170935271984423
Ni 3.630043448339653 7.834316213704782 12.845197386976938 0.27007998891538004 -0.2130575487837492 -0.09091035112832731
Ni 0.4149797176007742 3.0726666236724958 9.822629129810773 -2.4350483524104454 -0.6730158201529377 -0.4766943531769468
P 3.563573825854164 5.952368522207159 11.181839796853023 -1.0752181156585805 2.516990438601891 -1.2030201976069343
Ni 1.1871050497873128 0.7954053725055896 6.070706576041866 -2.803307972422056 -1.2168846142938528 -0.4673465934134597
P 6.9121585259993665 2.919998530973508 5.69520760161642 -0.045238817233141444 1.1776297825582878 -0.44296507924530165
Ni 7.352711071035992 6.718382521141876 9.983736375411732 -0.8018255174301997 0.4260245947362211 0.8828301794090408
P 7.714597140529113 4.976657153916694 1.9775035357503408 1.2896206085059985 -0.7384961612439346 1.1876591417698321
P 4.175260296299687 7.317531032283617 1.8753744819508607 -0.607556047887231 -0.07554672418806345 -0.946609221538215
P 3.2183835242280643 2.069639098457689 3.6972349253938823 -0.07793065103920772 0.1067545172494355 0.3517407964209813
Ni 9.362997682730633 8.209496207695 9.260008488046562 -0.4586531794045198 -0.6153999694116821 0.37760866532667875
Ni 8.52704768432644 5.783631559606339 11.929179611695286 -1.0099277790912027 1.0987753341532303 -0.1351767771458704
Ni 7.226446445576734 1.7905865321590375 3.644072134128303 0.6335105629694637 -0.6132500129482148 0.3269779876540046
Ni 1.120128377477038 1.4020296418822107 3.674553203868078 0.14742782659908157 -0.19929571911296645 1.5714235422852612
Ni 5.846809967774585 6.818916672765213 12.134490539112253 0.37717671999558267 1.1497767649017618 -2.2341204970106943
Ni 7.280737653179652 1.7266429397097511 12.163068789145925 -0.418250350107441 1.1106723427011322 0.8578665674851678
Ni 2.044268169042978 2.317180822917866 1.8343827302976734 1.1440092662903654 0.25046221468445257 -1.0768605363580097
Ni 0.9415269910122135 4.518394741363475 7.776485798324861 1.0304757784458833 1.2518415899850117 -0.3111381924082706
Ni 8.714020002444084 6.437891777158379 0.6111572948102015 1.0547734746509834 0.7561465273358461 -0.04413838508011108
Ni 8.830927253864123 8.076778220829382 6.320206434734486 0.08999529551322565 0.23532458771206569 0.33459565210026243
Ni 7.372089593430514 1.114698334807974 1.2231258693400595 -2.268890553502028 1.7810682087327196 0.5410084418739843
Ni 8.379920263349197 3.7086085139182026 -0.1539329515346343 -0.38852222691538896 -0.5079607673903962 1.3697894048471053
Ni 6.484024092126117 7.5274127833938325 6.1765186553868325 0.4926902143845708 -0.6056048376981312 0.27751767614034784
Ni 5.661699905377063 3.364718103661098 0.36948167586840425 -0.3733948843556472 -0.9161519334896222 1.6584265879393827
Ni 1.3943040463700276 8.403567223359637 13.484093994837982 -1.8094403321175097 -0.3036064028075997 -1.4925711507627326
Ni 1.7887334955266403 6.389178117628099 12.17460555552295 -1.1005537662098916 1.263032830715141 -0.9136875311095296
Ni 6.414954686902637 4.927851303509179 8.573912916768187 -0.5338013826025839 -0.23008133703525538 -0.5619325936211612
Ni 1.0529304470614025 4.309213640920236 12.06336804305278 0.21265234292553054 -2.295561377924995 0.031639481282151966
Ni 6.403808809845085 4.206476127331014 3.6777918693852976 -0.02427224228380336 -0.23492092451574378 -0.06109198221531414
Ni 1.6507698477464254 0.9252460820927442 8.839902035762824 -0.8733813752913152 0.7438224585528543 0.3367034424718846
Ni 7.313474633685336 8.16396313342928 2.21669461055069 -0.5361531706642121 -1.2206389391299624 0.09725094863437445
Ni 3.731942024946049 9.124684265081548 4.513984329796616 -1.351387762411466 -0.16532938946985073 0.27533429533578385
Ni 4.921840458313542 2.4416569453587917 2.344595624080848 -0.056051077357297016 1.11357871771465 0.5899794724560484
Ni 8.185259226070263 3.504497911722816 7.736748764510825 -0.6907206936318685 -0.466225592435139 -0.7010274748745152
Ni 1.5773582522052394 7.0997946184330925 7.291801480356467 0.009906203370118423 0.5781541976863462 0.05930249441505915
P 8.571889327012906 9.068235790951361 4.187856335856125 -2.2023411477165684 0.47143233344705904 1.3634853170059484
Ni 9.038808462938368 2.7525061452153428 5.282630378276354 -0.3152925808962764 -0.6170331341397309 1.2121144465987188
P 2.096752435452117 2.1033717404374954 11.027249524363713 0.11180056431377519 -0.7117872844941806 0.6708931173829801
Ni 1.2127617709214482 8.093805875854445 4.282618416655862 0.3164462348847453 0.23087735057398948 0.051746793554988305
P 9.144901724458897 8.073487006512138 11.657429484782314 0.6240468464534027 -0.6691452814539379 -1.2991277766654854
P 2.8237328169660905 7.249641670288729 5.452184152049465 -1.0034534842207687 0.9088664555718025 2.6572857679212496
P 7.692563520870261 4.498057433845723 10.293860954973226 0.6312978715888611 -0.3180485463748587 -0.6481241991175807
Ni 0.05868871244696607 9.164114303274397 2.2008672807472105 0.6235369966965196 -0.041505061222322066 -0.8020507460671285
