# total energy = -340873.5615781214 ev
CRYSTAL
PRIMVEC
9.22557787908123 0.00000000000000 0.00000000000000

0.00000000000000 9.22557787908123 0.00000000000000

0.00000000000000 0.00000000000000 13.50256576173867

PRIMCOORD
 96 1
Ni 7.888579629476355 8.833002057713221 4.310032322445451 -0.14660095982241206 -0.1802821541249411 0.6197374204447713
Ni 5.376011890046309 8.88534798774952 4.513138036705964 -0.5127769578321169 -0.4078556371366782 -0.4704110912713963
Ni 8.79673631027355 2.1765445089555784 1.395787526121597 0.8324368145581534 0.08094886904024123 -1.2226266589839525
Ni 4.861861197967879 3.5683244439584287 12.479909053214863 0.2626145337762703 1.374529233524936 0.36836220702774625
Ni 4.742076292153407 7.069357521387995 13.29334395617249 -0.8249744447428373 -0.7864004411243811 -1.08118333210308
Ni 6.562596517353111 7.45968250445211 6.179179647156669 -0.40818036746594866 -0.8588402442523467 -0.29398482055743563
Ni 3.630098914794358 2.1843862503251334 3.8800705657105636 0.0007949850974695986 0.21810668117188242 -0.3185486259397288
Ni 2.0637249145928878 0.9540354805981319 11.601526080561158 -0.8329433218809269 1.557376834384208 0.05108627715285395
Ni 2.722800212758773 0.23037006516574318 4.621469387331845 -0.8662658472924566 -1.8380348559257504 0.6097237449625112
Ni 6.4614380536858524 2.1497257534717007 0.485077205311352 -0.3711084023143157 -0.9680589067715586 -2.1879447697855805
Ni 7.698495818678344 4.643067388179215 1.0728627714077097 0.4616459434842566 0.49758045259733663 -0.7014303667398888
Ni 7.160949060584396 0.5762720446502347 6.481947436319568 1.0152077965432194 -1.9822817136936894 0.44882462334987216
Ni 2.0901192934850013 7.001881643297494 5.8534161820670025 1.2110492385589984 0.9104975634173224 0.4056601721472562
Ni 5.347920004787137 8.407767487187462 8.152079668091755 -0.588474862886064 0.48975581434659526 -0.01170777535523145
Ni 0.7756921404670569 3.7530205171566515 10.83869900872921 0.03186059615402255 -1.0938367592010323 -0.45638135265120755
Ni 9.169154446280835 8.651867057654584 10.875033948004495 1.8622795874057283 -1.2446728401507146 1.2529816171267258
Ni 5.092316138451975 8.412204990244822 11.203416554711593 -0.32624625169430266 -0.3427761310285258 0.8103687790145204
Ni 6.644953252889601 2.0862999041591244 8.110654054830917 0.7730885545068233 0.6493303036105397 0.8051137012631683
Ni 8.47014162059871 2.0488625083030607 3.5553468232707193 -0.11474679142629271 0.2251695015559348 1.5237300928640403
Ni 3.6581169954288733 1.4736938427914128 13.52025442955755 -0.1708462055230219 0.46382469630313017 -0.47794622330617687
Ni 3.564154482665442 5.839265067847284 11.574602153487147 0.877235973150715 -0.04981589508086259 0.6385303847815583
Ni 6.503156117771884 6.167769452185063 8.666662117224414 0.09427541094581829 -0.524362091566555 -0.23006411064407478
Ni 5.766927310107661 5.342366206781876 2.8472182038859395 0.18682226923630404 1.1940789292532468 -0.6445794191891158
Ni 5.301690633019091 3.7396711056722447 4.428842084656673 -0.04435872862103328 0.2613598354335628 0.9873028426028351
P 2.6644023035007938 2.851921403592056 10.615906833399881 2.0405025450087955 0.2347586879062667 1.5125817895567046
P 3.3193537682641012 4.411800596823918 3.617351011000886 0.260450436245416 0.8230373756211246 -0.06813114845028266
P 5.870982605292613 0.9305287076456308 9.694194088169247 0.9123083913738159 -0.7079550552322839 -0.0007373923866567946
P 1.6747560915068007 5.3071798519777795 7.172711672638728 -0.4549664745815519 0.21607422412288593 0.21879085172310064
P 0.9500684820229454 3.335802973984003 0.21654184617888922 -1.0354678323438362 -0.755096488804777 0.6273939085487646
P 2.4019346070727496 0.8793239816180537 2.4785576458313834 1.9186145145520312 0.906497955339626 -0.9389421919112604
P 1.8487966220205103 8.886953238335758 9.857642732487209 -0.48022113538328265 -0.9563830130955271 -0.247675910188567
P 6.069489368879335 1.5559398713909212 4.027748084297638 -0.15193908420587382 1.3149377471145482 -0.6085880886961712
Ni 4.788969905543346 1.3506707590702192 6.309397759223881 -0.5347424063596146 0.09853881420786256 -0.20766568834421656
Ni 1.7126916685792828 1.7885259204119197 6.402470926260224 0.6990765217957315 0.7486247650375042 0.6159075051757199
Ni 2.5170052424874068 4.212509659100242 12.779625021148293 0.398917454106784 -0.05714379620084352 0.07860145185398722
Ni 3.182160196609218 4.638694464168428 8.743005620967168 -0.7680139681973934 -1.1638144739417504 0.24087945609202385
Ni 4.698328600889372 0.9239600960513684 2.0636778641446702 0.12992838426273753 -0.017712843898730787 0.35837244280488606
Ni 8.712931158978213 6.953622644351446 2.621941580379174 -0.2751242362075068 -0.7716698197824259 0.3474095160354791
Ni 1.5556262017361389 2.6918853006065633 8.826384550555124 1.5271571162677182 -0.9500511573402284 -1.579264635596235
Ni 0.06416297300131461 4.153788854609398 5.940372790835093 1.5967103418765083 -0.9551555684463291 -0.01697390885017722
Ni 9.130886748397407 5.211252291082918 8.745814809493083 0.4534958035732964 -0.6054536568322476 0.7206614470553588
Ni 0.6950578203584442 8.865282355421542 6.616810626950981 -2.25267846251854 0.3726135261049324 -1.918207766031916
Ni 4.954495227487527 7.757742481119851 1.9606539885892664 -0.020332798020081113 0.5026195576831408 0.5233326218607761
Ni 7.12722957269531 6.944147975661407 0.30846089339719546 -1.5546779473958066 -2.9890192679823686 -0.035955849269318725
Ni 6.439001447790844 6.697871168766974 11.445017838634154 -1.0493852137558766 -2.0959381002692807 0.09788266868110239
Ni 6.976981808054638 2.6571879014408033 5.711274932886834 0.7213402182899383 1.1717985205884915 -0.7821306101044336
Ni 3.6549618477248877 5.587397560635263 1.7680801942669697 -0.48467531449989426 0.5753879477951187 -0.1716756434028527
Ni 9.018426951579908 6.4416030608099195 6.095719532481592 -0.763126558198105 1.184426236654831 0.673254418526305
Ni 2.5988361200732326 9.096512244464511 7.822428544398406 0.9333047911198248 0.7994138226649135 0.19850253378770974
Ni 1.2841266643659843 3.0592939477154153 4.398015738054049 0.08223133529709063 -0.8205362064658256 0.19122914005474806
Ni -0.13264536166054172 4.883864201693043 12.54568004447584 -0.8224089980085062 -0.4890765288913834 0.649185036281927
Ni 3.0352244144999223 6.998366698048319 9.555090821851424 1.3334280926092519 1.7407725944374666 -0.9376712956186367
Ni 7.193570704681745 0.39360190839878173 2.1508641898069984 -0.8241838305207418 -0.11574695055603292 -0.6431956514677116
Ni 0.5426503478888159 -0.00021495596930662275 2.6211721671671495 -1.1375483411563698 -0.17865567426511167 -0.07019471584753072
Ni 5.53972899868645 1.4595049037015595 11.814353709004301 0.011730658173366893 -0.7494030379644255 -0.4461200799345156
Ni 8.024841417744973 1.488168774801803 10.520105662924742 -2.087293794330721 -0.10904151351139929 -0.9352020081425378
P 8.759852449102397 2.824890459812296 8.630813365914042 -1.3279644983915193 -0.39353407830768355 -0.5628921293209532
P 3.5980861588504105 2.4618362855580678 7.83306840360018 -0.4996090529915912 0.07217600794361764 -0.3462561191573263
P 5.903991723669399 5.4097959569819665 5.813974990651565 0.15211289077957674 -0.8910353409276526 0.4202316422035279
P 8.437981255405454 8.28919113210171 0.9019091193201799 3.243848501386265 2.6178000511218014 0.3162302622191973
P 7.912326267458984 8.037194466796544 7.733838085752024 0.8358018743756445 -0.0800330420941912 0.006479437076756583
P 7.123982169210506 2.958532183905675 12.004186584078486 -0.224540095502052 0.4617511016035532 0.6402237133235813
P 6.58851116618497 7.403858531478962 3.1093713081013927 0.5547820986193092 -0.3420505657164109 1.8395965439859159
P 4.764845018859362 5.674385536368831 9.889441455019659 1.4724928919556188 -0.3034791332011161 -0.8430001918962966
Ni 1.3073658955541123 5.5387787641440225 4.069079596662041 -0.07443189385732987 0.21602125939776345 -0.8733194117051282
Ni -0.010248694691104173 0.5283110318762287 8.848461358904942 0.598040395087312 0.1993250296890051 -1.8481801718898685
Ni 5.211261516661001 3.359116009796786 9.827019348602384 -1.0397078385671126 0.16996945934502342 0.4476851104287903
Ni 2.59282104316388 7.718681383521386 1.971509726318155 -0.6803673754220024 0.6243512650676989 2.008627807787386
Ni 7.641989152927139 5.265000508987655 4.482176996663345 -0.1898991083894149 0.013011581768319526 -0.21863427154057832
Ni 5.237277646851759 3.8669195041549163 7.290872876710798 -0.17245494477103848 -0.46281219587821587 -0.25220722240001725
Ni 6.707594928065221 3.05266075707458 2.407088937547068 -0.6285146524167693 0.31442354802776173 2.6636137670218063
Ni 0.9488230289818983 7.155791962436653 8.271779698587874 0.24418640897806979 1.1028896134319202 0.2635946383013525
Ni 7.673734367106714 3.8194908072362317 10.118323434440802 -1.27607166617697 2.0082161741712636 0.37120893244792197
Ni 1.1452355863440442 5.519626464046145 1.4104644982919794 -0.8944279115489693 -0.6776445771742007 -0.3924007360341887
Ni 7.449063864079926 8.825612369669676 12.492412479189166 -0.8104952772900558 1.2522645364550433 0.10524733657628972
Ni 3.0409165961764115 4.2426680738497415 5.760181567414227 -0.1494127182395943 -0.4254448109733512 0.45195211323526036
Ni 7.651048670603496 4.250491364063133 7.325209555773558 -2.068153988177477 0.39464196665988166 0.8892913616533524
Ni 0.38289193480358613 7.134932930393638 12.827113684324509 -0.3169730539224928 1.0355933021781067 0.8008618679653497
Ni 2.6283579699350867 8.001832826008892 11.994694386790092 0.2623754211822707 -0.08781859957688103 -0.6773645840399367
Ni 1.7171752995270517 0.0038203118836855144 0.41126889042548487 -1.0597287617737297 0.4853229753862222 -0.33666744702762663
Ni 3.8532656485938084 0.509345088455604 9.953672697298778 -1.844046352227153 1.6064167705309946 -0.7214201795982543
Ni 1.9666718331720434 3.384698537817698 2.291330996565315 -0.6092843434322474 -1.0112724660445551 -1.8009986291080597
Ni 4.389862172145328 3.3866266836368006 1.696921465406204 0.5440842525858308 -0.5709998460297521 -0.49804350827668414
Ni 9.015576247952623 1.8760858819865616 12.461936704553652 0.7924273640447514 -0.20248003037821904 1.308384519377063
Ni 3.8698624635630194 7.063914430319715 4.257912419072157 0.07042714357331097 -0.9853367200154 -0.28963322845695927
Ni 7.172250393734637 8.26311042286438 9.790913203663528 0.15676607328087197 0.6901586504808114 -0.086366954732019
Ni 1.3384007402213862 5.983968260060777 10.571320537088209 -1.3989462289167198 0.4797110285160835 0.8172441659781151
Ni 4.222980690223118 6.009892134470717 7.072508978860747 -0.03666084575614331 2.026978799490748 -0.2835759665192858
P 8.80990121019632 4.2892664687410615 2.9014581451024384 0.7909494939476442 -0.3035362116912966 0.39663071495513624
P 4.021208071995429 8.407582975625825 6.3234409341800415 0.5070315707079074 -1.2872225405874669 -0.8609770880896914
P 5.554277735321496 5.090387992632873 0.6112720427770787 -0.06455217284977269 -0.3733617171248667 -0.37762794860038834
P 8.389888316864877 6.3571521190488545 11.067972152661024 1.8691140938290585 -0.02114243840557004 -1.4258605368090604
P 0.5993627440312452 7.943702458515285 4.392451791912897 1.4670922897653378 -1.4960994756309653 1.007055085529098
P 2.431871607948286 6.693996425972606 0.15055128615956423 0.4744567220956797 -0.35184055522363916 -0.8708565519869325
P 8.97511286248572 1.5093322509215195 5.523224439498058 0.24499964890798448 0.1695493410884693 0.727004101443935
P 5.272491678390101 -0.049782141887359105 -0.008581632731717618 0.36105436051242334 0.4795824733580192 0.21485526411412031
