# total energy = -340894.0150482739 ev
CRYSTAL
PRIMVEC
9.04192874503583 0.00000000000000 0.00000000000000

0.00000000000000 9.04192874503583 0.00000000000000

0.00000000000000 0.00000000000000 13.23377669052855

PRIMCOORD
 96 1
Ni 6.458948067773601 1.981312630595101 11.471276151376358 -0.061539611275694024 -0.3314594204641259 0.4701681220226548
Ni 4.692779089123189 0.394871877482007 5.999188597223986 0.22297377945619665 -0.3209513218439505 -0.09682183151675583
Ni 2.768249770884675 1.5697059514395955 4.763087318457958 -0.2938066431083585 0.084217512489184 -0.6224273085721086
Ni 3.630460967761604 3.9905105693602207 4.725437631464073 -0.7093313667545204 0.9383202420565454 -0.13475460200678727
Ni 5.103065646685692 4.356898562990998 2.630835059174605 -0.3526584231392443 0.11248807729910304 0.20417438736150642
Ni 7.40918244073196 6.048968935787552 2.9126222467441707 -1.173182802530528 1.014357532727782 -1.19988782262554
Ni 5.0724677598999115 4.462969428795955 11.55137950209264 -0.021340413348989052 0.2728128144655108 0.01623471669130752
Ni 5.533569956864329 8.005470513977164 12.587201155535475 0.04494802546560001 -0.13278667964713906 -0.16058004771032344
Ni 1.9339690918213603 6.344224076184369 0.34394683074259036 -0.3263123290455477 0.8163311672455424 -0.40926125923495327
Ni 2.593812882033833 1.424809043714386 0.2523059789806079 0.6445938173668189 0.8182931760679197 0.5935646187041455
Ni 0.5973080028047292 9.06742695818998 4.59572031367266 0.2506856435491683 0.1599583549659245 -0.021121355359647494
Ni 8.553248639643849 2.268375783572321 1.3062304779121576 0.14709281185716605 1.4697500391031593 0.12299951835338817
Ni 7.127092348550302 0.652172617887102 5.0393824385234804 -0.3125037052972296 0.3248884521148276 -0.7779721078513698
Ni 0.5444552168623786 7.566213616798338 2.348465571395523 0.423031059325536 -0.887861314075045 0.10848204146350349
Ni 7.471047317028739 3.804644682608308 3.700997957892969 1.0624800992666217 -0.16900401010796054 1.2250825767236126
Ni 7.647175046550072 4.09394119197917 12.406334551172408 0.4324071012237972 -1.5209918679972707 1.4096121932709982
Ni 7.818827021355399 8.838865084025997 7.172190776423065 1.0692819526798034 -0.4996972418300232 -0.12497232580904284
Ni 7.055679195526046 0.4582413307176611 0.61095950678498 -0.2951474734069691 0.5580592267086841 -0.9686204357019834
Ni 2.1406404565561568 6.4962912333839045 9.219071857318331 -1.280228111547505 0.6055495589801636 -0.7594316258450211
Ni 0.1004449777558693 4.934243795569474 1.3809448391117942 -1.0990998073721845 -0.21365327338621912 -0.3252589480803688
Ni 6.446596793143172 2.080430253214992 7.043492483998306 -0.17761669147763604 -0.9105667260923609 1.149975768286445
Ni 3.5683248336032487 4.382903149987423 0.42885867915174286 -0.1391085081001088 -0.352829915720102 -0.01520421854426414
Ni 5.7249695039923925 5.477953053312518 4.7548691094450755 0.7769243833131458 -0.07988494655210113 0.2808778508618324
Ni 5.085370592182213 2.8397804689822808 9.464519533365422 0.8262908495614157 -0.15092067024368847 -0.4052025157845473
P 0.10999506286909028 5.771725317399386 12.482984789310827 0.6607164339602943 -0.4176600248216098 -0.37975502224572016
P 4.076083382758747 6.271074872846026 12.546665284894422 -0.9644498492640615 -0.2870415564703831 -0.20535889458791082
P 2.2551836095710054 8.465505763352715 1.4103238739062247 0.6304555781932238 0.1828874529582721 -0.7998437111134805
P 6.336574604487923 7.850464729943886 5.949363049016824 0.3501413131443453 -1.2476643186788705 0.03894655646652648
P 4.831355688673677 1.1709749787802333 12.784477052138149 -0.37846895644444495 -0.8597195615335065 -0.4593041827249574
P 4.1993610389163445 6.10869087497788 8.263302919790947 -1.7176766318499515 1.1027160639685334 -0.5619986709724063
P 4.76583787317434 0.9847112471646754 3.728947463756894 -0.31027121642228495 -0.004832902612269096 -0.13929054220392786
P 0.2847231018246903 5.7348794578686375 3.700613675922403 0.8923700005786761 -0.684259511387557 -0.022961236781863684
Ni 1.3178068592513517 1.137049662225788 2.413364014777594 0.3377791920345667 -0.0907465718569534 0.51866555540241
Ni 2.123279953415289 6.446904218719625 4.836773612362222 -1.6132906148326924 -0.3572936079184105 0.06443853009004386
Ni 6.042965095118002 5.568724975724585 9.111759534700226 0.22639308955039075 -0.3555133760895361 2.076299757213063
Ni 8.41434653065947 2.4023048317611386 10.036006500326728 1.6228780014108115 0.8808663708144506 0.8936308695689708
Ni 2.4878957290171027 5.307774912888421 7.010964145430977 -0.24295613611539446 -0.33640339473296255 -0.2623702789759481
Ni 0.5687101906516375 8.91824417625187 8.924329394279892 0.5731063508497937 0.2919539061703359 0.942802446197615
Ni 1.3428077921599448 1.223029362416678 11.227152213693756 0.5279528942416069 -0.11417240698006144 -0.6322820898790014
Ni 3.778423089322623 6.86406264210872 1.7241231059132522 1.6076272458993284 0.44081640833341496 -0.37889884489301195
Ni 5.687391248235389 7.82686529598677 8.089437480835159 -0.6943698603486815 0.7400017992551836 0.5610357928385047
Ni 5.453738768202495 2.5869229323498013 5.005636152157676 -0.6639303129119016 -0.0024739154617892875 -1.1907264678412461
Ni 0.9472595784097414 7.312587516224727 6.821839547568663 -0.12122057207609448 0.3567179379205985 0.9403367582659419
Ni 4.906213816539948 4.483883409923469 7.094667087970372 0.2521743122795528 -0.9124510875992673 -0.322188022464529
Ni 8.072407912285415 7.137897453369748 9.092385394033593 -0.5727193998240202 0.8907520053592788 0.71508138186442
Ni 4.540106122699466 0.3966015984459903 10.568268676311263 0.8281554135739801 0.10607651734580441 -0.9352858261055956
Ni 8.362445859811253 7.107326692370126 5.078581007906964 -1.3824466885998 0.813684730761631 -0.06385848921685776
Ni 7.041148816074289 5.956017908554157 7.049924007896274 0.5087593520322916 0.5519158328151076 -1.3722332384019078
Ni 2.1767629617893682 5.198141527168098 2.5533909396946415 1.1051758383629355 1.381635505552414 0.16700266340721562
Ni 2.349933980619521 5.2490475858572045 11.351391026874206 0.29989295851175446 -0.66758976404136 0.33596502164396336
Ni 1.2706260751945566 3.4008954395097883 3.5639358814029487 -1.5134857894282128 -1.0314803084509978 1.0758382657410825
Ni 3.5925391187132716 2.377909708076732 2.340578296973763 -0.14073061708456408 0.6786290525746571 0.3962021120581499
Ni 1.2156963582254052 3.367377009747708 7.944963735374009 -0.8862597739158801 0.1200052116117546 0.38700707582244315
Ni 3.5635868629543874 2.438147037204055 6.967080952778074 0.08231052527445824 0.6910084000756164 -0.4590342168930223
Ni 4.180137898459321 6.905393298284192 6.0249942617885885 0.35278029342908923 0.5624735537262958 0.6907461475531652
Ni 0.9978943792372716 7.517875465865486 11.34339796188643 -0.34944171597415946 -0.8561033049371579 0.044616867378426385
P 0.11452416496453847 5.6088259295942455 8.16954083155144 1.0991800257908166 -0.15200978954280916 -1.6906319690273337
P 8.60885650126694 1.7407249912345788 7.98278612320643 -0.9092472359499889 -0.5092072382029876 0.32520752601714314
P 1.6518066642099483 3.266704175388114 10.260689387070173 0.18513459712123598 0.12434857618211487 0.768031194588574
P 3.8716905840611897 6.0246009378893035 3.770263652846415 1.0974962103304904 -0.21045430683294725 -0.4021567869796881
P 6.846693097039133 3.897559542126826 10.35851401388322 -0.29306308007411463 0.8286467513881018 -0.3213141045000079
P 6.409705723968829 7.910928107289189 10.421982928334783 -0.6455153007398238 -0.3175320117497563 -0.09842285745528856
P 2.567672666106621 8.58959719309504 5.616255682422814 -0.9354395780746406 -0.44980884164001245 1.9793591407302553
P 7.010541887359791 4.127767047317705 1.5568609875010975 0.9209185016403302 0.422341232347363 0.3379630259105986
Ni 5.604286881377206 2.9111845800778173 0.6199761181037681 -1.0358972065717706 -0.3431476554353316 -1.1909411549552134
Ni 1.2011840626310863 0.8851288694086179 6.870646070409171 1.098757079320785 0.2950407726257757 -0.5303913284797703
Ni 7.0023860676550695 0.6862570723870052 9.280304702797636 -1.479096770425382 -0.1565506148359562 -0.3848064686266986
Ni 2.720806770895023 1.634726460859376 9.047814110605158 -0.12895187928208116 -0.2173330362306515 1.0020398917026936
Ni 6.516038805706642 1.896056284701747 2.653200269861551 -0.7120603356499092 -0.14588259359914876 0.3913805222997905
Ni 4.158337808317326 6.989004013150651 10.342077595857454 1.0814322148890922 0.12008697269228352 0.6452671892847596
Ni 7.891279996182364 7.1270561808354245 0.3490012688966242 0.3826765667678893 0.8268822032885114 0.7250894009197254
Ni 7.58999388932984 3.8806330515644802 8.1557247644685 1.000869011323044 -0.04280192565687467 0.3445057121251228
Ni 3.0582696345530733 8.438000216188902 12.310443088719529 0.10182211294482464 -0.6617983541705634 0.6200472383757063
Ni 0.08871397943557684 5.186323726332102 10.294634595867802 -0.09248772291777621 -1.376190680387759 0.21489177377901053
Ni 8.631777790570117 2.505192938656936 5.952631706248816 0.3284293753885505 0.9843789840878209 -1.259042221498509
Ni 3.7083571836775278 2.4661498904474226 11.473869376533026 -1.0414572171580514 0.8861898399098932 -0.033304527689400704
Ni 0.9645748719070129 3.1376577687076654 12.571969122415108 0.52050517971431 1.701655830941663 -0.6252449805265619
Ni 3.1431552613689404 8.551449295828728 7.856072534135535 0.10990514706327523 -0.5258826419761394 0.34116430645671564
Ni 5.461731833190271 7.774250312769734 3.976233363912601 -0.07420126590376253 0.7864426072162262 -1.287272419988796
Ni 3.003466504585991 8.313673696299878 3.5765475635804913 0.4281614385735658 0.6697214656723821 -1.1876624842039418
Ni 3.2681870516980633 4.2633959781057325 9.190474045165239 0.14447517172866084 -0.03017343825958674 -0.08115738550662151
Ni 7.131938822343794 6.1011860741409425 11.523443559121793 -0.8179111101381527 1.5210911125792965 -1.2909197869333962
Ni 0.5531318516613247 9.185062450826797 0.06438486183082047 0.2741510736609601 -2.100253696925499 1.2693307479087106
Ni 4.72210206395956 0.32062860076864075 1.5689699384418525 -0.38161958625828474 -0.6292672143120775 0.2075451036059522
Ni 5.799257990349355 5.721000097284664 0.5671377992473684 0.46736819068001445 0.33700657553460023 0.0810051761994734
Ni 8.221138597787565 -0.08531240585141311 11.273430613264376 -1.1835137521428907 -0.7018018911466946 -0.3236800336290232
Ni 0.1444194938888355 5.013957439157957 5.883922089911601 0.28145969150723144 -0.9369483014096832 0.21040802697604408
Ni 7.769910186984517 8.856108042093513 2.8313398285229057 0.5806898196240063 0.015094946659909486 0.6349020440003517
P 8.584370958295342 1.7978518968824961 3.671194856641608 0.09372570908993536 -0.38776143748996444 0.1802692986091347
P 1.766268439866324 3.4747679971456678 1.28905352592429 0.7443145676979245 -1.4956202220017016 0.8273827970740137
P 4.810685839621581 1.0981512848757815 8.212801939508463 0.24539071369881607 -0.8422977665126332 0.1611958269174514
P 8.480895126032795 1.6587689493237336 12.418271705467498 -1.5525706712448164 0.9984346908499386 -0.24189478473041567
P 6.2803609336406465 7.747766503551192 1.847819403370549 -0.7434661036547002 -1.1271929660639748 -1.4403039659279002
P 1.8610640205584361 3.3952894437038834 5.822742591811738 -0.33134757747661 -0.14426048461469348 -0.08307697112683758
P 6.7494561955928365 3.99731914168578 5.936990073757469 1.6558135757965675 0.45352665681123183 0.7311057823171344
P 2.419258448109642 8.667981673161801 10.149208735312518 0.549387409966299 -0.6378667830556305 -0.7487486922098783
