# total energy = -340858.7972442394 ev
CRYSTAL
PRIMVEC
9.30241588302929 0.00000000000000 0.00000000000000
0.00000000000000 9.30241588302929 0.00000000000000
0.00000000000000 0.00000000000000 13.61502594742065
PRIMCOORD
 96 1
Ni 4.41874977021979 6.1080219439653725 3.7170248348149277 0.8852123064879722 -1.1652383508724706 -0.6105835218596452
Ni 3.3226554341407777 8.837108838981404 2.7124262685495637 2.611193344438561 2.452387615019841 1.7703798757809381
Ni 6.393689826801094 8.494147378028998 0.3530657448540685 -0.13334332348155745 -1.1809177092809404 1.5866691555904222
Ni 1.9535538029540513 1.7807986415309438 1.3750905263956108 -0.9740171812375226 1.202089201152233 1.8696923349300316
Ni 8.989473105254037 6.958160409707462 7.909567763166983 0.8592863306508298 0.48628045420348515 -0.45288568079312325
Ni 8.205205044877141 8.68463294372072 9.501599925422175 0.15053294788696658 -1.7226527449083042 1.3275893744402878
Ni 2.425837446562428 9.099576497134061 0.4946057202521165 0.034699094044082175 -0.5564623145352093 -0.3249270186622469
Ni 0.8298331528157887 9.033352599973375 2.5001683989802483 0.119182201489827 1.0781815691622787 -1.724199520570134
Ni 2.3390831180162057 9.208796159525354 6.452514582537197 -0.6375626215516504 1.1850751830927397 0.1290997177138551
Ni 2.830269270267723 5.469364596084081 5.474642786735714 -0.6696088513539178 0.5814614076827083 -1.0638911206815354
Ni 8.127501966778642 3.6302398082969916 5.111311826188878 -0.45774943664332773 2.446278931018942 0.1425411879307416
Ni 0.8552585153273194 4.777795107867072 9.025809271105892 -0.21721039460985817 0.9292992695048576 0.08380536465242987
Ni 2.4327956534842143 7.154292541711382 1.781757720586607 -0.5348326520805756 -3.708874417086348 -2.440581109303216
Ni 7.639246075463439 1.628052976215806 1.594496372166397 3.5368709580304314 -1.887850493896297 0.2996371337472065
Ni 4.3103208131605175 3.297343561100431 12.031012328546833 0.8542495395578708 0.5475400723449151 0.6440173760380586
Ni 5.328460905917918 8.416481509593183 11.374101780636227 0.578549633352552 1.8268713831097632 -1.5123776439656986
Ni 3.453726470942866 4.302795158882811 8.534265906092616 -0.1927790010403712 1.2802278544371888 0.42039850679869534
Ni 6.24909307761361 1.018930798089422 12.87308839062701 0.36288035797756857 1.8568555881766795 -2.1028196578804628
Ni 5.607607795368385 4.795479000057332 7.02139171974684 0.4930373133113444 -0.16120482577851591 0.006322342673602015
Ni 0.42015104570587414 7.982793588603108 0.33499952337973665 -1.1697614355538049 -1.0525119323103165 1.3813578264109951
Ni 6.434741387156497 0.7860820314327097 9.135328471281786 -1.1721507617215878 0.43947892046891407 0.434054149908917
Ni 2.235416997780402 4.481503866335253 11.80057846899827 1.7327327548521252 2.277768572717948 2.7501028491539863
Ni 5.02716496475519 7.649246172309589 9.005767216543076 2.0332872582072787 -0.14236789557767093 1.942375364417055
Ni 0.46132353746499716 2.8828000115609376 3.315626528859893 0.561160234231511 0.13896529765402518 -1.0654055004435328
P 5.209148122523767 7.551868485067271 2.1219424104612683 -2.0557219330617116 1.0388434336842884 -1.054304505434365
P 0.18738693103176646 0.8664967636992571 0.15540987716326546 0.05852627837066695 1.9782029156386256 2.761365052331367
P 1.1418529187638575 5.321242231357349 0.5539914116531707 1.377468775769234 2.021950493038221 0.17411099231722274
P 6.762977124101968 6.879043364426997 10.66297489371285 0.47028613565775784 -0.49324762954993767 -1.8682342623272663
P 0.6473560367750898 3.0833042789301506 7.877871642251741 0.12032479973470245 -0.9820359377769409 -0.7930778531445567
P 0.5172561721690367 3.9875362917981563 10.992336222954494 -3.7764995724344894 -1.2970369555747274 -0.3219864479766842
P 6.6201292290606 5.189799097928428 4.4745782178683156 -1.518696644205191 -0.4612139981531605 0.756444261081923
P 7.867108747320582 0.8081743384093797 11.153987090791322 -0.43924777829471445 -0.2488467905682166 0.2864291196973648
Ni 4.128039978090474 6.680464697101646 7.341221793892144 -1.4931910437349185 -0.593139615351585 -1.4641990273779426
Ni 7.3301454075528785 4.499411016501615 2.579394282524063 -0.11284006132188308 -0.4259130088590214 -0.10791022812043351
Ni 4.04449498295069 7.423504451225396 12.92752147592491 -1.5300233820719198 -0.779140160017542 2.024442149111823
Ni 8.08299921020936 6.410210917032501 1.352154490317596 -0.39926892390893176 0.05212114617527152 -1.6784925054513222
Ni 0.9039566613641493 0.07542584674227774 12.093941310076907 0.16742046767092456 -1.0538162529440367 -1.3598940001102644
Ni 2.4289072437338044 2.8922233586354946 10.239234045799602 -0.5949015923480142 -0.31624260351437145 0.04272607811361674
Ni 5.6612548265421 1.357836405809343 2.9416080229488326 -0.299112114481672 0.3610325061355524 1.4094275880640177
Ni 1.1449506231822462 6.900838924343767 12.043429192984267 1.5350570878410854 -0.14958678192361335 -0.3125353298661133
Ni 5.945983165395067 7.113064235458235 5.593243005089479 1.0145598785465753 -1.5915043721955364 1.2259222990160887
Ni 7.239893370714421 5.052365208807487 9.293875123009258 -0.3468965809548025 0.24740131637094165 -1.4595234762791445
Ni 6.8066984777549 7.077473193101613 3.3500045362130373 1.5950514661168467 -0.14704910310342414 -0.37912895862594703
Ni 7.317429005330845 9.115865026973696 7.009573000637043 -2.242017640370584 -3.173234438613129 0.7747633711060851
Ni 8.764540694333208 2.5631876139423317 12.452465712446624 -0.12124268356328154 -0.16735721853315694 0.08360404727490117
Ni 7.247428327407799 1.878911219611258 6.31424068528118 -0.7840805347419528 -2.0971796859858656 -1.8661113024469924
Ni 2.6508163695616127 8.283261614771131 10.611360440363214 0.9576356545557055 -0.5006246387402992 -0.49360552710998856
Ni 1.8910043599833457 2.4747774554067 6.169662540925037 0.6897112785307477 0.9298553991186438 -1.1478852043060037
Ni 0.41473052809447764 6.702716075386289 3.0949406706928 -1.861155501103614 -2.376278333460088 -0.7115150046694004
Ni 6.592073143397357 4.511652995524435 11.60245282931609 -0.3907829979251076 -0.6832416116460039 -1.649217924856921
Ni 0.04092132653601044 1.6017643495300218 5.24777547335535 -0.155220583170623 -2.1688142196037163 1.0366464260329695
Ni 2.020112587078888 1.093712917667278 4.136816807275908 -1.7167050119653016 -0.5491840357062413 -1.1554164796860424
Ni 3.9194984235816572 1.0678801093493644 5.164206291934822 2.7041410377118913 0.5027370570976115 0.4766197911852695
Ni 5.139789311282009 3.7110126835668664 3.1600882783603708 -0.957266701252061 0.26325550979437884 0.08109670747201517
Ni 1.4619490419973467 7.129957422316474 6.30577176605445 -0.27189518774724786 0.5279451809321231 -0.3315818049746031
Ni 7.97470048696948 2.713905352641227 10.079189705149124 0.17308177972175998 0.7387501862362696 0.11970439254188416
P 7.839015451994657 1.9979914426136383 3.8353255153840915 -2.383372521302708 -1.4285193145881463 -1.3191540991887412
P 3.549411118533092 0.10137028404824118 12.408680172125562 0.6860222597149346 1.9122651752952358 -1.664818093288023
P 3.9914526087955786 5.284944205409745 13.111433024462052 -0.22736342388346004 -0.4647412945801287 -1.2561772412458883
P 3.34658124724617 2.3292690694834732 3.0091928635221623 0.9974404452574692 0.09880389494379113 -0.41956675492601936
P 3.569755501605212 3.815078807676516 6.373356606627779 1.9368449215171288 -1.402576112359823 0.6413927939310179
P 2.356087933862495 6.089351995714003 9.772702085800503 1.0091453923992233 0.7710830940410204 0.832608050028695
P 4.982755232342616 3.4287122752039862 9.992571191871695 0.5302437471583126 0.9282726280125562 0.7125071933793407
P 7.8811646973992175 8.715405334759849 1.7629007937802543 2.0068740583210727 -1.1276835325471481 1.6511483091104144
Ni 4.688603546415091 0.4928494241734626 1.0185782365354974 -0.9400287401072197 1.056738054576522 -0.574166930903824
Ni 8.965389151082242 6.497672229169707 10.215952890100198 0.024369944203932223 -0.20557589569472337 1.3394421600138158
Ni 4.279715865603465 1.4325813157245155 10.57815360714303 -0.08854622177152494 -1.7075899370379108 -0.08286356956445083
Ni 4.895107871891993 2.388264989667919 8.141145819843059 0.3218854036224456 0.06706414063834902 -1.4927184749738744
Ni 8.935184207399034 8.527366304389556 4.256941691558123 -1.2202347617130083 1.0532714361841602 2.445788878756401
Ni 0.9456091577718876 0.7686437230161594 10.005178755830382 0.836084695723386 0.20107749360373758 -0.8441983259694559
Ni 6.445783354557779 9.029278141909549 4.504653857973698 -0.037419064078406526 1.770455723324196 0.3898232051149996
Ni 0.513757533635235 4.96433644931436 6.533401877519823 0.607654006917676 -1.262753094691193 -0.18631550480321463
Ni 2.7010122045214473 4.6637195844956025 2.4013776747975304 -2.3743638900461943 0.15360618749565158 2.54725335125149
Ni 3.347260323590141 3.564099632877343 0.6533319086020353 0.5229245877890801 -1.2822022045547403 -0.9946847368892031
Ni 5.550779338035244 2.94075406119025 5.399555547923855 -1.2190142590423458 0.9771274447317301 -0.40609623124341027
Ni 2.3939394632271296 1.7816265565256484 8.23911886168831 -1.2426920622752597 0.8474754540588307 0.31452896325737445
Ni 4.2748413997919466 5.87550806427281 10.990851557413428 0.06380912403616107 -0.14922682748103333 -0.8793049398646017
Ni 2.3733346125162265 1.9877401805443762 12.755413762632493 -0.10378103644340836 -0.32136321257038847 -1.7044254232670002
Ni 9.158767768047595 3.885349255654016 1.210415443224192 -0.3515150535634204 -1.080911566498932 -0.6493151341018882
Ni 6.055547017166182 2.770129152955764 0.9585423062790518 -2.8188942568960873 2.7436619786246492 -1.484903864025462
Ni 8.777768729417138 1.2007558147915953 8.351565532075817 0.347465308974079 1.5233685957595635 -2.1624828780690497
Ni 8.031640573290671 7.995742551216912 12.25152144081618 1.3223746630085678 1.0644097121891667 -1.4626154849409068
Ni 8.859546265579462 5.322646896123645 12.645554094043048 -0.8128496364548453 -0.9594349125479735 0.03669735542103357
Ni 8.34019239867665 6.464453302809149 5.378152549948394 -0.010258958723846849 -0.635564360174699 -0.17527158828422718
Ni 4.662956786410594 5.368219430495074 1.4721658851286266 2.121177848672676 1.4803890068742438 -0.4751627470237687
Ni 6.2692607147879835 6.740511790256897 12.690701508018318 -0.679494485898746 -3.908896729952694 1.053371194986818
Ni 3.9720942817845675 7.795935965023012 5.052767073164467 -2.668452068950714 2.240319169622239 0.8470198545786509
Ni 3.791339042884541 0.17825288908457193 8.410723314292936 -1.1359522003138436 -1.6650785460382616 4.780432824505154
P 6.795758836925996 4.732306295236681 0.025235593231845675 0.9557746900875669 -0.3858415947594323 2.320013340319772
P 2.0717502964677017 7.527579877750716 3.856919212880805 1.238089530506242 0.8936802347496673 2.362531673297957
P 4.962689921740621 0.28641207608938973 6.96807492432944 3.991074072083397 -0.0051753735533523765 -4.651178840601622
P 0.48885496688440533 4.797106922799729 4.22357113582213 0.8887259760681856 1.0231633039448702 0.8017483843353611
P 7.43045335573151 2.9936662015259685 7.862527307602695 -0.712181948829438 2.665210679195281 3.2021328668150337
P 7.085752343048658 6.492583807797758 7.280934698412586 -0.8317331036229094 -0.5246608537538965 0.8413945379720735
P 1.855729599759533 8.481310044403244 8.522502071235277 -0.843752753791605 0.11291899418893456 0.25978914851233326
P 0.0007674492928440239 9.061901713667172 6.556982571003827 1.843564270384412 -0.624655426571679 -1.0832569268026568
