# total energy = -340871.29070051713 ev
CRYSTAL
PRIMVEC
9.25302652479202 0.00000000000000 0.00000000000000

0.00000000000000 9.25302652479202 0.00000000000000

0.00000000000000 0.00000000000000 13.54273962928802

PRIMCOORD
 96 1
Ni 1.3148735722183476 6.151356501451943 7.914281973634199 0.2588830917582961 1.2798018226433636 -0.703824320893362
Ni 5.923926363019305 4.566294555327699 11.987721474667431 0.4467726259168499 0.7011472882818311 1.2092286404104915
Ni 4.609802285947752 2.23372686310798 8.421268250005005 -2.258296837146582 -0.17124138407891154 0.35099260540104715
Ni 2.123995221801472 1.2420800127143168 8.245063791599094 -0.899190108824303 1.4345290111173359 0.795789595648765
Ni 8.195720177163205 2.1738967937355302 1.8521866429547902 -0.7351244165582242 0.7869833102110446 0.5274268465348078
Ni 8.067584266140983 0.3390373682114312 10.092577656169553 -0.8141778683479655 -0.3111716167493673 -0.33772417042691516
Ni 2.808894990573409 7.654362608542026 11.797215538497513 0.3773435845907501 0.5161314761266466 0.08576917324702003
Ni 5.11898708141582 8.519094947411947 9.997304794077612 -2.860110069012765 -0.6535299435141841 1.7845649090320683
Ni 9.053596023393938 4.271465371842645 4.143265614937548 -1.014956599764362 0.6686143486511323 0.8471568943771474
Ni 7.382897316978629 6.4816895476314125 3.212797925180564 -0.12116812157160424 0.1596742480666024 1.2084537099176802
Ni 0.4275157329417592 7.440367864592654 3.0208300108230746 2.588203054190975 -0.8915647310685614 0.4667320997579123
Ni 0.4027629617419077 7.993985693331138 12.578807583627048 -0.06775859560221234 -0.623983340205319 -0.7999552969906805
Ni 8.467500071627725 4.808825633014256 2.0040001234971414 -0.2596436240734044 -0.8174683661737792 -1.994268196631604
Ni 9.33935724090544 0.4086802721909768 0.6320881200024886 1.2259240987883016 -0.10808712001792997 0.5709898187274232
Ni 5.898684106717412 2.5108272478120854 13.246126602042095 -0.987006908628971 -1.4202797002871732 0.6859793222921412
Ni 1.5703311279304706 5.557330705972123 5.477618658551331 0.7029879410349957 0.35653641803741176 -1.5836643073258274
Ni 5.466826853740151 3.4541177816977964 6.758707580399637 1.4853741187936613 0.4893035573005251 -0.9313764637488604
Ni 3.7823781499404534 5.53714060214121 8.529258471723532 -1.1976180527547569 0.30548305100502227 -0.6464123586327964
Ni 6.159295598192055 0.14790222623926833 8.396525657134308 2.1008244818273045 2.154565680104502 -1.0756197219723735
Ni 7.175139112892702 0.3054812675960294 0.8125980116405371 -2.5605698658547387 0.10547590764732803 0.008578742807946516
Ni 0.4618935023106831 4.307237572305665 8.843841941491178 0.3667573244344716 -1.2824184343306042 -0.13782758450515617
Ni 4.091345957923049 1.838992752463269 3.6778698420952427 -0.6442696012581807 -0.06912076605706159 0.6658627540479242
Ni 7.125274553064657 5.334193971837167 5.46460335147133 -0.5857808609936686 0.3765552843614999 0.5161389323258143
Ni 0.40948158428619097 2.7765093978107167 13.836481721907926 0.435547703735308 0.3445144538758712 -2.0780787034903567
P 3.9452499224572883 0.7620061639293083 11.218615463501887 -0.24351252283949673 -0.9201147747921122 0.6610835874917259
P 6.722721635024382 3.395185255896198 4.3589342313814265 1.6342013968434308 -0.8158655404630336 0.13161579926748945
P 4.958576613948948 5.649842464955381 2.477115696351423 0.9101327238787357 0.7024192130157192 0.31166963943170845
P 1.1232804054342551 0.8663053533755369 2.495263657232986 -0.5146734035238814 -0.06166071023459058 -2.9954179724198604
P 2.5839816753497575 3.4592347053543016 9.502913737383542 -0.7121151001472446 -0.4694001335083787 -0.2785466316254945
P 7.628047001165712 3.6556672049997907 13.609641001263569 0.1568519481264589 1.031163034320895 1.409096172866528
P 4.276249186545019 6.373290342141428 10.488512809654434 0.7952283238286562 1.278715017337088 0.725844533918195
P 1.0908855596450582 5.467983482053104 2.85877713115181 0.4401654050129774 -2.041973216017051 0.31161538915500525
Ni 6.452746080728069 5.532051437564214 0.9446303721234354 -0.004775824122088549 0.7751348955128909 -0.8144138956181716
Ni 8.333886368915357 9.091561191138318 3.115886352094831 -1.0299559013866715 1.4572459930988775 -0.9279373561603245
Ni 4.44339585730653 4.253560765558127 0.5864577451025044 -1.7762535609528958 0.30297365431960727 -1.278140890001173
Ni 6.891496838450531 7.301156080845592 10.742277061516393 0.4524640198746724 -0.11840598544543478 1.3640285911039283
Ni 8.202132524530217 7.531917308819536 1.1477648388655013 -0.33746680300047044 -1.1137772068787013 -1.1596312890983385
Ni 7.508599682030396 4.680125287375313 7.919238819932191 0.7020160640400297 -0.27115522425742977 -0.9731016114017887
Ni 0.9831803311428446 3.9153718998770786 11.23974289891762 -0.1950405433810383 -0.894127349589415 1.21615956320237
Ni 1.1631239375588711 3.0634642557411844 5.707153860513544 -0.23989240958840619 0.5150904364566419 0.9832543835650743
Ni 3.9051565586170747 8.968579215878616 7.696108562915788 -0.007277507498019725 -0.5943236083573571 -0.12323631695454258
Ni 1.3161597429023515 2.9539824461502744 2.5226738976446788 0.009289909942358194 1.5866861248712867 -0.1690505470751798
Ni 4.487643830046872 6.916331961586265 -0.15763363421313242 0.24752267244015433 -0.35682618136368865 1.633194552845471
Ni 1.7423819027389036 -0.14931146217577068 10.241453300797003 0.4335209031132663 1.640644324255297 1.3463214036321522
Ni 1.9920285578067494 0.6271118423488383 12.816239318407456 0.926512707898656 -0.008189477789327831 -0.9475659290245293
Ni 2.9946032325011953 2.069559666880637 0.9817266806791248 -1.6826669485439858 0.26823856483126707 -0.5498854326486401
Ni 5.97014523040492 5.950695368694297 8.947213977681743 0.5397545148622251 0.9592222823165351 0.43764572391491724
Ni 4.854072932616989 6.763194372951245 4.390041981183969 0.5196027225046986 0.2497081101272474 -0.16916933204123122
Ni 7.690134809005047 2.8259668244726006 11.628229366067082 0.9446793515053538 -0.5323589937291026 -0.9558423101007085
Ni 6.4223683947166625 0.2543712504005975 11.909783232427383 0.8703343609348753 -0.0529932643675797 0.3840143117427064
Ni 9.12812915188065 8.789477634874421 7.847896134983929 -1.0611336125410564 1.6023927369732662 -0.6450704998929213
Ni 0.047504112766968615 7.553328812148927 9.931825752024698 1.0275616901228821 -2.069819548805358 1.0313574097198883
Ni 5.698309817781378 3.53554441492971 2.301967933572226 1.6651767621790223 -0.4323271399154812 1.1844676314157279
Ni 5.793005291019492 1.7567333468460284 10.244649296151355 0.18110902090161066 -0.7289311432633188 1.5679430399358287
Ni 3.3281008137449057 5.311311237293698 12.263641173189672 -0.3570521813315657 -1.3465157790311455 0.5078679505662738
Ni 0.2992345494034311 2.1198683719808544 9.878995597202243 1.6088552047691582 -0.6192692225591012 0.6825373864901277
P 0.7333291841892687 5.990409358447862 11.688332399721387 -1.178375916695693 1.42891089359961 0.7101836874524865
P 4.820678759965402 1.6412000579217467 1.6876687570229596 2.771790618540065 -1.5744571869052626 -0.4899705014605626
P 3.1026878350900575 3.4669979945908445 4.756806043313517 -2.107551516138493 -1.0013984014639528 0.8289501415611336
P 7.60933738157538 7.60880070603817 8.681816820899424 -2.186126742740235 -0.3552747777161688 -0.3891943132817491
P 5.214496820986253 1.1953614818975062 6.604644689114253 -0.8163535358430456 -0.9436478249170459 -0.27088422998423023
P -0.1165233627601698 4.869756812540637 6.4051466617881125 -1.0661878871355122 -0.35630116209815405 1.0945353279299537
P -0.06675966092101557 1.3248390817627533 6.207842527045982 1.2802520228069048 -0.6357605353459052 1.011541917655858
P 5.108956800685889 5.600588604876577 6.761402061717492 0.6311068386239777 0.6583505048312791 -0.7268143540306321
Ni 3.286462194478586 2.769032952395786 11.735379412979078 -0.1902104689822466 -0.062259520160854065 0.5315421542547619
Ni 2.2256304649173067 5.68831654915746 10.30334309386916 -0.7065705161799315 0.22401790444999486 -2.454506718245373
Ni 7.911115587964657 2.2064026758427704 8.384905706451054 -0.8204292485743161 -0.3547371600451439 -1.2137226716261031
Ni 4.856127104500795 9.277176902801067 13.580794691138514 -1.5977192427569966 0.7432714711453908 0.4611399503821154
Ni 7.937107339413345 5.1680373749115445 10.505536527815808 0.4410637484575307 -1.1902569844039954 -3.03268739829428
Ni 5.857138017716128 7.934997649370518 2.1807199754793047 -0.5748603574264229 0.13020837739700156 -0.021604465643653117
Ni 3.5511912827473426 8.92970725153688 2.2415132849107815 -0.23186413996729097 1.045718820647883 0.7345896271006768
Ni 1.047053973097379 5.9345765965249795 0.6150310909457034 0.19257742655252638 0.5168254168698777 -0.45240257050911764
Ni 4.88004617801267 4.415683042928169 4.632713704873381 1.1798514727999552 1.2185835992628304 -0.14426099883532575
Ni 6.33183678340518 7.887825720255029 6.7505001458909195 0.052651564757444806 -1.5189691811402872 -1.5030381117323275
Ni 3.033799052770558 1.7429370843291212 6.187244364746259 1.4694533337983466 -0.8741262238771398 -0.891940112130109
Ni 3.007622240791798 4.0530014160920205 6.9562282359619525 -0.1550894569093974 -0.03548250917732599 -0.06876004028353319
Ni 7.987305008195519 5.66211197809919 12.579769898383425 0.8637531081729317 1.223373821562622 2.6945544224647207
Ni 8.888947669788406 7.648311129208655 5.580109806618751 -0.6340396960000564 -0.7343152903933676 -0.6702400571800136
Ni 1.8048953497974052 0.26658894659598603 4.251688878296443 1.6491644459111665 -0.025523598192401204 -1.1101560651863462
Ni 6.531702155883515 1.4373188719408383 3.311186281296276 -0.4716663038347361 -0.9864559212215077 0.42248032902838856
Ni 2.951567406232828 6.487204351427574 2.3414718796241587 -0.2755230143078223 2.6034957186839875 -0.1938148985040533
Ni 9.27486364617516 1.8836293523167638 4.039040449703349 -2.504321584884971 -0.506796828989282 1.4760857515131998
Ni 1.5613927043279674 9.021210430631244 6.263327375172329 0.5376521238072418 -0.723387073516638 2.374746213086278
Ni 3.2686686245121117 4.311456952391318 2.780256873544685 -0.6237367714121516 -1.6724966928792038 0.04000842207213755
Ni 4.181303881591307 8.864991584170516 5.0624658943210665 0.2838690722796724 1.7014514282403406 0.5593038977490625
Ni 4.626420721548264 4.153165427993779 10.298048512103785 -1.1179115407620488 -0.5783244047156234 -1.358635188002499
Ni 3.222958673584196 6.811828280254306 6.5083697242519705 1.0129272280391586 0.5730076204884003 0.526051563453836
Ni 7.141772699320624 1.6518595444539248 5.836582419338322 -0.4074463175134015 0.06684508264900746 -0.7287426814015966
P 2.145934147641571 3.924384347691611 13.66638518629706 1.7825270526664334 0.5882313794166901 -0.6822612500106057
P 6.946487574961584 8.367271288540442 4.530926712122887 -1.2777935339640831 -0.7404018629070798 0.47152155072675567
P 1.8689910643880265 8.256188705364405 8.359364577393093 0.9823933211163598 -1.0733370965857836 -0.34405242663778807
P 2.474472106679337 7.96628213197928 0.658401876773502 -0.12362429642158065 -0.18204515956263487 -1.9814594749027101
P -0.1845312569565246 1.0463692491361107 11.849910599133016 0.8586435548605085 -0.33368213914705763 0.8895258462616615
P 6.486482615360291 7.504435820103764 12.9523439358546 1.1128181853995414 0.3934736573833933 0.9582054110162465
P 2.487102487856787 7.49880997998956 4.585422411715996 0.12071663585648242 -0.12013093855634148 -0.5388854819937106
P 6.563069915730808 3.5370989233823193 9.505973713248292 0.9580801982922919 1.2117534637148744 0.14544627739267854
