# total energy = -340874.22944970103 ev
CRYSTAL
PRIMVEC
9.18533276296062 0.00000000000000 0.00000000000000

0.00000000000000 9.18533276296062 0.00000000000000

0.00000000000000 0.00000000000000 13.44366296625701

PRIMCOORD
 96 1
Ni 5.920736778420554 8.868870304650784 4.7612474480141715 1.2777559958579285 0.013683925244995789 0.04832774057111032
Ni 2.837422712792919 6.14291160256572 5.692584139840392 1.1401667526158235 1.5161170564034727 -1.2855104429923667
Ni 2.6923679408853416 7.603985712763961 12.062944784511595 2.2180318189789476 -2.541749904934758 -1.5832709285421507
Ni 1.7185206114030014 5.392672009109091 2.2233125035879286 -0.3338394906605283 -0.15488016911206873 0.005756442867802989
Ni 5.173491603380964 8.421360901957195 11.483052694720694 -0.8967892126922943 0.9326021086258454 -0.08164589510726583
Ni 5.42413177315313 6.463580747833287 5.802983570503661 -1.9015390471269833 -0.15748495372476748 1.1468788745286764
Ni 6.915223550182297 6.567558712498546 4.136090957863383 1.1261203018250865 2.603449953047716 0.055455866975459324
Ni 6.5696805243216625 0.6363166692204257 6.886085838211348 1.007547194674168 -0.5053904355600587 0.48199313968204094
Ni 8.439667269764426 4.5624465396537826 3.630218870568505 0.9737402734270519 0.9734057729057687 -0.41909238639276214
Ni 4.202418244334039 8.638199047880585 6.4640354217953835 -0.044051224682943486 0.03539200634604872 0.09376324719609014
Ni 5.0704872839678705 8.246554837863155 2.6474874874267798 0.2511466423459868 -0.2911985160615501 -1.4220457910486608
Ni 0.48887738497829925 7.553493939639852 2.0032539800663374 -1.7902797000286588 0.15646191177689184 0.7682983322070317
Ni 4.086517717996032 2.1018796514444547 9.71081442139584 -0.05845403037183481 -0.5664122266590697 0.8834212760258204
Ni 7.454687317210153 3.2086754845102723 1.9828726456320847 -1.3021683632640217 0.4565615869828137 -1.1794359825290912
Ni 1.7783538677483632 0.394366742590468 11.811736042653495 0.5458539428917438 1.1107456191412288 -0.1684849043796969
Ni 7.490638708879748 6.907094530859968 9.655023629913481 0.04545273301616043 -2.319392933126954 -0.8039286798161316
Ni 2.7948119550118116 3.1657064987590284 2.790205510729159 1.267845935833068 0.3274950364997392 -0.06190470792459662
Ni 1.3438417106379321 4.8077592165367395 6.499177585665773 -1.3023737944066087 -1.7894636318852668 0.43341908742807933
Ni 8.531594078100992 2.9841032885649614 13.023373261645926 -0.2571067165841637 -0.3154072520972697 -0.17788845708178397
Ni 2.176611517214468 7.761091641000233 3.5770357950020872 0.37969177310795255 -0.072614638142933 -0.10128552371506427
Ni 3.0516338536019743 1.029069548878766 3.9716882014354082 0.27525124870367434 -0.8781939661886101 -0.02536187580355632
Ni 3.134522294692018 3.4055722734293967 5.292850407430674 -0.3929226699759298 0.6805668930273183 -0.19440496667956841
Ni 4.765708764042256 9.161515000254596 8.73257282881316 0.37989231915453286 -0.41776569716153855 -0.42603667892107916
Ni 7.44209422625997 7.5606125723797435 6.672197102575415 -1.0395617999075515 0.024072981788803703 -0.19427152642549766
P 4.656945241109275 4.331104753606149 6.710082006750492 0.12710942675670367 0.24789676795012147 -0.18075986509230804
P 8.97964541541607 3.027127386311611 10.830335614200814 -1.0063068945091638 2.4580669247928055 -0.44094676326369225
P 2.9899451600779563 1.036298405609469 7.538667894342484 0.18809265130829542 0.7111131412452913 -0.7737411004891578
P 4.0974758197491825 7.696390158394041 4.476120947116942 -0.0936496044363613 -0.387690475042713 0.5216832591828112
P 1.0481107432914059 3.2231791246345165 4.544858464853338 0.9118597338721716 0.38873974224283375 -0.06423772693314744
P 6.275970330140008 5.3014432860476655 11.140924775508696 0.1670438010577962 0.27289663242856876 -1.2791063392382358
P 1.4069816867076312 0.43691595864337257 2.323495088836254 1.6462004781868358 -0.09719078482040036 0.42909757723459
P 0.4178940534291248 6.836973702038891 8.96978679797126 0.349002828664528 -0.5800311029940849 0.8110565491101646
Ni 2.8532582261394657 3.201841597079976 7.811494316398438 1.4219977114195446 0.251514824318683 -0.27913927090417084
Ni 6.505061709708579 4.382763063966345 5.034154700996719 -2.622932230142044 -1.6308072835602174 -0.0222230730642585
Ni 7.5968670800240705 4.19640185150226 9.411128249845705 -0.4235694483275092 0.10481307725234852 1.0946551413372694
Ni 5.963255682875984 0.9518117166526624 1.3596919205165872 0.6055055931161055 1.6244756849152346 0.7202755244708499
Ni 0.6064092263803125 7.724598314709149 10.9920360457874 -1.7403866718529575 -0.08575734617247811 -0.7772339441337647
Ni 6.99217826643367 4.956690198787845 13.168766972325246 -1.375884719111566 0.3643214612994693 -0.43352604531958894
Ni 8.296780236342803 2.8964752158700344 5.349219874864793 0.3092273485388029 -0.1844583969898178 1.8791761060507508
Ni 1.2407914645620013 1.7284775119062825 0.4734212258667947 -0.5371630999859651 -0.9897667307622953 -0.2884296950671613
Ni 0.5249077705079763 1.1712309410275483 4.135028214885311 -0.38499518759873697 0.07289848793193897 0.4091882399051728
Ni 4.425777976380426 6.406668427244423 10.251155387683903 0.5301468165691322 0.057619707395997546 -0.10276519358438431
Ni 4.274734367638773 3.920456090506349 11.92071082823553 0.31284720467957733 0.2324053571827417 1.3138447711606858
Ni 1.8936022354740705 8.883686246082327 5.7285327759102165 -0.40947517501797226 0.2581189598987619 1.0148501560934846
Ni 6.849897464961509 1.894814699372994 3.9556092767758195 -1.229034362282509 -0.485312433863261 -0.8080295893583825
Ni 0.10137759701537082 6.748785324057342 13.180153110576047 0.5021868410210965 -0.0818469553744784 0.22877290263647698
Ni 2.0250902711792986 4.927140983917868 12.432685650488322 0.08955820797580705 -0.4406019783297638 0.42383375773248944
Ni 1.937645905135724 8.586090656224576 8.510403515867534 0.5691566221734262 -1.4957912003619271 0.19489656160400629
Ni 4.13636651784041 1.4018195298046385 12.376182077198715 0.25407692861890435 -0.3138980145415949 -0.05046201330529374
Ni 7.608027259093707 6.230420265937268 1.8640043383414853 -0.45772295428076654 0.03190481912839667 -0.5055189907181229
Ni 1.9994631933156881 5.896726319088841 10.246732650052602 0.13465021521843906 1.0720970535310956 -0.7948079484617859
Ni 7.419406454817992 8.361307197630211 0.5997351637366924 -0.062014751139899654 -1.5033358454784045 0.822376344998358
Ni 8.988444964015832 1.0567633265700873 10.651279496727742 -1.1079641997413499 -1.9183291221011287 1.2201195762913826
Ni 7.2498084742897815 7.402431960233062 11.886671822806507 0.4624920935346357 -1.4175250203601717 0.8077017737053187
Ni 1.8303061087507224 2.6115461996230085 11.33275217938376 1.09395245884329 1.7845631092598557 0.8779376272034299
Ni 8.857682569583444 8.127650707775542 4.647555075625417 0.34856702667869 -0.6121930324386102 0.07706804592859631
P 8.902231432536317 0.11051792145339194 6.6103697105296275 0.7528028076745938 1.2376010209055976 -2.62237661474889
P 2.8555453739487984 2.8872164006418917 13.403022345863324 1.2780236476970184 1.139094345487251 0.49794683479781987
P 6.100640702089613 5.107476618217605 3.0061242048625316 -1.4442668072303901 -1.8112318768002935 -2.123554319324653
P 8.810681222835022 4.8504801983086585 0.734302122918581 2.434361353645749 -1.0111796492204328 1.1754158056261046
P 2.3747758820279214 6.4599158001388135 0.41923694905050823 1.0653923878174103 -1.3025599422754857 1.2997078175386712
P 5.862749773921279 7.297259902334015 8.230855267438608 -0.8503563751510517 -0.7640238732013939 -0.9810046682989493
P 4.884135256836354 8.665295778955013 0.19487417868773876 -0.12718604563091 -0.2687481574778339 0.4073205905688146
P 8.866298411531854 9.199569833082172 12.598083178433367 0.770198634553538 -0.7218312989937439 0.47899883294040724
Ni 0.638277737723609 7.077785565963724 6.909451487196815 0.6500540691504417 0.40013924232902703 -0.37922974586986946
Ni 8.30357738244283 5.5253633233806765 5.751131449626289 2.6380307763463793 0.5047831409933629 -0.10227257021868194
Ni 4.905996348347247 3.6154754932642468 1.4321127566125913 -0.6889893127630585 0.1464981156959606 0.8776668900405467
Ni 8.535056948478978 8.782059726554373 8.525607996866684 1.1599737600394215 -1.4972546722813311 1.2675620860440622
Ni 8.55121394846539 0.8751353159780878 1.8095573610137652 -0.7269429091886964 0.7427351390259467 0.4755761804121036
Ni 3.5551829702905047 1.0904826824257556 1.414663380333917 -0.5454898746841057 -0.008685186478823752 -0.15880264409492653
Ni 0.6094165042629454 3.0788224380020774 2.398859824020175 -1.1207006734714118 -0.26744537950601033 -0.8728483856059805
Ni 7.118008137277254 9.033682726911273 10.302510582069367 -1.610084449190569 1.4436862521365719 -0.5907747146638342
Ni 1.446882771381296 1.5312592363472914 9.317883346285688 1.7667674758393312 0.3026406964602207 -1.7772395790152489
Ni 3.8908058369781284 5.299422512882793 3.5325916448404864 0.6885604527557562 0.26416259498968053 0.22595034558601734
Ni 6.805008744703635 5.238817688601753 7.33264455898419 -1.1858537131299771 0.9920609261131107 1.832827086472566
Ni 4.516547432813473 6.212159824792875 1.2792421852232416 -0.30240621185191147 -0.14667680736566996 1.5212875448608187
Ni 0.8883089199465433 2.235241494993474 6.87465928449725 0.4494082637674841 -0.9187042675978306 -0.6690774043304799
Ni -0.09529415125584774 5.122228262321174 11.277283793074522 -0.8702484860892884 0.4474650239981842 0.14620372438399337
Ni 2.002283090413942 8.465303532960604 0.5301369803387125 -0.008828396924907377 1.9747699786976767 0.8142213199913914
Ni 3.4705401306800483 6.411665248161198 8.055012179297684 0.4865213665696976 -0.022893359658405735 -0.33049654233022435
Ni 4.814932961272038 1.8356703429702022 5.9036906382415975 -0.41130734313070455 0.010625855144962344 -0.6404836518531872
Ni 4.924229233493938 4.313964923035003 8.90799982138877 1.0856873906210205 0.32570709136138104 -0.30020406199427013
Ni 6.254816509236821 2.8565098338683965 11.07673124179349 0.570227743750418 -0.41666295101566303 0.05226152840787774
Ni 4.978992186261983 6.393588513668157 12.610128823562523 0.005571580550506533 -0.08318495745961157 -0.6960590751256464
Ni 1.0302177154497163 3.958216992691762 9.116066893243357 -0.06578810213940282 0.11392403841468123 0.9399400370481555
Ni 8.323408515456284 1.8357346402981756 8.47060989958491 0.27637482078515624 1.7875252772119732 -0.24882545041197796
Ni 6.886703092559891 0.8158247050558225 12.486850638106217 -0.7010112769245992 1.470427524786158 -0.09342463290974878
Ni 6.48379766481458 2.9579526467449972 7.212296494616949 0.09295232125902056 0.0985113034040368 0.301209620440649
P 8.735003267810546 4.044292744182764 7.615646492458533 -0.8882986587227798 -0.3419844883651659 -2.244299494426225
P 3.3732215321263013 8.67672233266911 10.242767341983168 -1.2589725446028381 -0.034474379627785795 1.1217885072189517
P 6.220536848094527 2.891735584265152 13.400696619657207 0.5368296279059465 -1.5698855083741803 -0.753802709694018
P 7.522998635515411 8.393832460252092 2.8774147322590027 -0.9630761088449865 0.08215343087130367 0.1870366992399553
P 3.204064447561336 4.156041500200215 10.137100194658728 -1.1467685742030573 -0.2810017780342064 -1.2179932739769992
P 4.727185479253731 2.445521313463595 3.6568508238150117 -0.0425440440097977 -0.26493058350395665 0.0014488166313846016
P 6.330191348286565 1.4667965723878578 9.00917625962091 -1.4574323980780708 1.1391887049732703 0.5294595606941204
P 0.9883693402717199 6.002936319568027 4.307578361300749 -0.43317149019364753 0.580149116629188 0.8105873227832298
