# total energy = -381170.63854500774 ev
CRYSTAL
PRIMVEC
9.24209641698531 0.00000000000000 0.00000000000000
0.00000000000000 9.24209641698531 0.00000000000000
0.00000000000000 0.00000000000000 13.52674231167786
PRIMCOORD
 96 1
Ni 1.6144648427145163 4.441649841975468 1.824960056516498 -0.8357995603827992 -0.22668953774488698 0.19613197667300417
Ni 6.752053781819954 6.830731748033782 6.515574414134479 -0.3381807983483595 -0.17663221607717966 -0.2312769000052533
Ni 2.1161165904086716 0.8563301339984348 1.2024965495658488 -1.0866345850256383 -0.5116649557148607 1.7551486606534807
Ni 4.2569557885492815 8.379531496193 1.4016683469217859 -1.4073213403542926 -1.1267941879636594 1.258770455894361
Ni 7.254112181753438 1.8408962032500238 1.869842449013175 1.8428358768588198 -0.07007233133705351 -0.15854270556532052
Ni 8.52489118756045 7.418834064970759 8.047829885620448 0.3774651977702789 0.36076485429646254 0.43675046579415755
Ni 3.3315077127997914 2.790364487408974 0.42242664937650326 -1.4356875502018114 0.7477912133926153 0.019049303321967193
Ni 6.169552175270099 6.9357312046478174 0.44292192223868865 -0.035395605890474524 0.5257522870458622 -0.5897143917201199
Ni 6.050421553339378 3.701912450250488 2.880343689037611 0.3818083052303231 1.1497862779834584 -0.13032741947336912
Ni 7.21293864252137 9.181551375209768 12.155414912987084 -2.1635002635899703 -0.24189452762009955 1.1392475832356637
Ni 0.046819535891299065 0.30835330256761917 11.59244555285991 1.6443348857330067 0.564517323629202 -0.7485980255646268
Ni 0.909204167207563 1.746515915340285 9.663761449025452 -0.15014599686119304 -1.0420933080801538 0.14651199965303155
Ni 8.140133474480704 0.6098646812085267 8.66845051855923 0.9434279955967558 -0.9928854788969351 1.4216781232965967
Ni 7.99917302097509 7.433769292669754 3.774637582206319 0.09947520997920287 1.55443729213991 0.5493532142942539
Ni 2.3547752444130965 4.971582404495691 8.057650537200246 -1.6692005386264348 -0.4144366327883056 0.2818512705186952
Ni 6.980804908538906 2.9379700081890796 5.216750266958286 -2.738590477639013 -2.3974644806193997 -2.7431554713018755
Ni 4.6443105307029215 7.636254381566587 5.995227753946804 0.30761989484236696 0.838788210697478 -3.268033840383217
Ni 2.532454546710857 3.7952298970801626 11.728997526407344 -0.005215225652352308 1.268921428285434 1.025746234180698
Ni 6.060643311900695 0.5372754080690172 5.287657478562389 0.346623529799074 -1.1760117873388907 -0.21309123023516208
Ni 1.4630238519498295 1.2568604087063373 4.805632246673671 -0.16587729155352077 0.8739511317518561 -1.2377701994936103
Ni 3.018792140755733 6.376103786560225 0.6676444191593791 0.4306248125123938 -0.07110848591105172 -0.42390986238606354
Ni 6.274727231714756 8.844843321045294 7.970456903411014 -0.07217729349519827 -1.2659772580554456 -0.09156495399319069
Ni 7.113281117596702 4.66312743886824 12.982642609794079 0.5442642298071207 0.8338426937667446 0.6553659682816585
Ni 8.118719537241489 8.737006540852303 6.003466158631757 -0.3191615769333793 -0.15407515671227015 0.12083464949158544
P 1.1175820167361292 6.08320326908711 12.080435633731879 0.8375134577501124 0.13819808047069748 -1.2090563764986855
Ni 3.8789632899965585 3.596099689157793 6.994109830442046 0.8277700052101035 -0.9985611891254738 0.41214166610654185
P 5.937011789048308 7.503722719930703 4.27731797522405 0.06872250217737842 0.017819544679924148 1.38494245843846
Ni 7.193761292598464 4.5206882499468835 6.498017203701447 0.6318213481924989 1.8540160618453554 3.564259377345713
P 4.921092832144447 5.18619312380161 0.1676451582923155 -0.688424184288208 0.6213690425109234 1.4528370653979044
P 8.14595599518019 3.804157762152705 1.4034807220157046 -0.6629525223796646 -0.12850219333917223 0.0028616378185112004
P 5.81808449323725 1.7480778296231625 3.463508878105279 -0.10122613123203857 -1.2840006912160595 0.4464337545201924
Ni 5.611098503418751 0.7593463475473552 0.668568628794218 0.939347397769479 -0.7432727566969715 -1.105109503901374
Ni 5.103476361483537 4.15146650082878 11.936132313977055 -0.34089434062478063 0.2506547903112328 -2.0946222096713343
Ni 0.5854858794607486 6.118637466486829 3.598276202847839 1.82849606319738 0.46840563080559333 0.07717063294473162
Ni 0.9362336021880587 8.57132347961475 9.669023898686225 -0.5309348596880663 -0.4146934859941181 -0.06431614557956665
Ni 6.041271877954473 6.434042488568269 11.37792448188857 1.2132400755627297 -0.8232253232622144 2.1913460821576454
Ni 4.000432162303422 7.7946084603998695 7.908084767784646 -1.2337754765119202 -0.45109696432381663 2.154873184042592
Ni 8.886950312008551 2.7199027448488633 8.062127408671405 -1.0458136943545344 2.6107649986518906 0.5353059921725684
Ni 2.870364073400621 2.5329443778173215 3.00307225907676 -0.09178298354126774 -0.24673000133552994 -0.7384177425975154
Ni 0.17547691073793953 5.485590835007641 9.858181884648685 0.1126009487278835 0.3276919830018937 0.02075291627663523
Ni 4.887165096449515 1.9286591501743169 12.283513141004645 0.31432096101162643 -1.7145619974803699 -2.092055734495739
Ni 3.490758274978866 6.021660149503194 11.659037629678952 -0.3282951638035314 0.7325777388769705 0.7276052253630436
Ni 8.196029673195756 1.0753826048093893 4.183144710272515 0.40697092053887973 -0.2670257754700885 -1.246461042399389
Ni 1.2833297726481208 4.4420102837330555 5.7016571844884325 -0.23018109583791327 -0.3304456344876309 0.01705155616564805
Ni 0.6078840999610671 0.6638237365289555 6.840838904600379 -0.3356827145168541 -1.5575334145667306 0.9367534117900577
Ni 0.2815133305622654 4.714716820684942 13.482888634633644 -0.4123589243236705 2.2495630568180096 -0.6593933442734966
Ni 7.18747666708156 5.261858166605863 4.2947273121155085 1.0823608973509489 0.35031923348310634 0.08053055055590001
Ni 7.97141900564088 7.898776128342551 10.310732222863123 -0.7611905175176569 -0.05819717716602235 0.1288562342444813
Ni 2.947452399042526 2.7380911904624914 9.81266363592324 0.3347085235290429 -0.17785169030657758 -1.8034059529979716
Ni 7.806789543387044 2.3234352956957123 12.98674147952459 -0.13760415564044046 -0.0996760131360993 0.40016469625032375
Ni 6.335725067614118 3.0452430205048198 8.506778527136877 -0.15608704493597633 -0.1460386595610388 -0.3590604700108461
Ni 9.19679159208826 6.539439355325286 5.970433057863349 -0.18188575116663513 0.13951834194401777 -1.8356146765200323
Ni 5.267329487644109 7.199916528766491 9.574647307615027 -1.1044806120681236 0.3814213542045496 -0.504621418604518
Ni 9.196403424041629 0.3053228191749827 0.3438771483019184 -0.8693737967938188 0.36888465519011954 -0.37266006307215177
Ni 3.802106016763363 4.720862814756621 2.1182746199060203 1.4005850500717234 -0.776186733816173 0.6451954555065598
Ni 2.5034620904659635 0.18157854274714533 8.21116545438551 0.2809647541486839 1.5714857629817645 0.6655030567156602
P 7.870023966602715 8.084523780752454 1.2389769522722063 0.534119428063635 0.8273835684049623 -0.3030659569230974
Ni 0.9101588757603515 7.340729108730531 1.0580536741561617 -0.16418987654876885 -0.9322832918338461 0.3268872277124112
P 3.001130494633964 4.191549472691739 4.337133747000452 -0.6845325625432856 0.6275211781552483 -0.11007381143065559
Ni 2.009398103873835 8.059634815286245 12.601079889421973 -0.015524063777528102 0.4821726026826986 -0.5855867427049914
P 3.574260615486552 0.598298197628519 13.36634210284193 0.7023575065398484 -0.7453473798378131 -1.3402512861786724
P 4.902811965567336 5.4146669876301114 7.416807273241558 0.6399768874200978 1.036101609273093 0.07908584768957348
P 0.09307437969571161 5.275989331922548 7.600757337911698 0.03775716414411562 -1.048600513071052 1.2144446373937923
Ni 4.143351940234895 4.890769514025386 9.582087195175479 1.1463906220383484 -0.3677387145111344 -0.015205504095844778
Ni 4.925815543378474 4.451908568922179 5.0982564254659675 1.3340736966130509 0.9202710978643184 -0.32264439327565725
Ni 8.375474215896059 6.9523392517858715 12.682755067481581 0.23464170271242815 0.3419832028135852 -0.17173246478271714
Ni 7.329971308581007 4.195865531686437 10.36521807767541 -0.33832786544918503 -1.0601355102938452 1.7782353672696147
Ni 3.913861445808072 6.643412939244652 3.7160935228874545 -2.496049060463534 0.3473120712256663 1.0291647729439435
Ni 5.7110887438119615 6.120374980600327 2.6818798362619605 1.4546376089417528 -0.2719363253978284 -1.7228211521653682
Ni 3.466932150592722 0.07524730004930588 3.689392182327327 0.8905596868428147 0.3861403569467737 0.09527994095093269
Ni 4.5561409315393 8.061233697954515 12.539939725238845 0.19130498759800602 0.4406212616034734 -0.7979868604103999
Ni 2.2687682957949975 1.4808056453241283 11.75840495277828 -0.3406413440737101 -0.9547066538343687 0.5518723811716819
Ni 7.805412471031135 1.9301748539754524 10.669718350275387 -0.8377173462308025 -0.6241370921743638 -0.7245834078175845
Ni 4.842673644628374 1.181075218649555 7.198742782530246 -1.0264023797074582 0.4459953814311932 0.5442940546037918
Ni 2.3492022603150184 6.658773303375673 9.690125453068866 0.5147600497004168 -0.07407039675285308 1.0449960835492456
Ni 8.086630978719887 6.073332710187032 1.8376891958171329 0.43666587650015126 -1.946542094200235 -0.21383710726225108
Ni 5.529268982350123 3.012156315577591 0.6381750707429089 1.4888934448008293 2.0332085824505435 0.5567068264458477
Ni 3.0332652636373094 5.90230771726011 5.996553994772798 0.5982975054034405 0.37257881621225514 -0.24604557367399565
Ni 4.261586078819824 2.0059600440322343 4.904526374439961 -0.8279016456919613 1.3723605080083912 0.7428094439073079
Ni 0.36199997503147247 8.981931336180935 2.5991501350089994 -0.27708958746399376 0.4339165958897882 1.6850431620856465
Ni 0.060920202290034725 3.887983576032585 3.6214470626028823 -1.146254610681116 -0.9096035908481431 -0.6432532441785245
Ni 1.9087886430252823 8.158765540719054 5.336178484391426 -0.15606467633847315 -1.0968158964340142 -0.6193095888787334
Ni 9.034629769559443 2.617897727451705 5.758009942763093 1.3879498778062163 0.25558050974762436 0.3813033405694465
Ni 3.24591665851737 8.73306940780789 10.477273874851441 -0.08939262893222023 0.12238142515341503 0.025099109060472902
Ni 6.359486497325823 8.946478654588518 2.666769932941981 -0.11129328566005349 -0.23689990261898555 0.44459413020829236
Ni 7.081358916809369 5.937760398852527 9.184522709185774 -0.34053772861631026 0.5974220447770227 -1.9173235636547499
Ni 0.9456512983670661 2.6951616529242286 0.020754975769575065 0.5274864961281497 -2.1625913786224564 0.17571278958670383
Ni 0.2614931014523872 3.4463222757358167 11.237165506083352 -0.1769734014666823 0.11176251198698818 0.4055848388246305
P 5.025648668133761 2.6862892404297765 10.19333356978809 0.8562303174333254 -0.3056895105888735 0.0602111222722576
Ni 5.490396725108804 0.10732199542638665 10.370020270938033 0.8449508878647642 1.1249489072248047 0.07447303150791044
P 2.980733187993071 0.5993342366291733 6.141966366089432 0.971011047421347 0.12120180302301707 0.4317879795825596
Ni 1.646276138345668 7.305599900510308 7.608576151422435 -0.476190931177967 -0.06419350395877331 -0.6417044116341658
P 2.2878717089471152 7.809978066627238 2.8559824472728943 -1.0384837363520245 -0.8205799152195675 -1.0738271488483249
P 7.27038751342295 1.6070711656358059 7.020677160605123 -0.9526068338825466 -0.182045416672951 -1.0014485379755977
P 0.7547927666765044 1.9292506443406134 2.816768232466684 -0.07144530042518019 -0.16893716142576715 -0.3257847386768518
Ni 1.8470791657070953 2.4485917644455837 7.3481190889707015 1.2134830448114715 0.856147527911532 0.19865525731549014
