# total energy = -340890.3252613579 ev
CRYSTAL
PRIMVEC
9.07085334426388 0.00000000000000 0.00000000000000
0.00000000000000 9.07085334426388 0.00000000000000
0.00000000000000 0.00000000000000 13.27611076523993
PRIMCOORD
 96 1
Ni 6.508010868104352 2.014727280971112 11.348007876133106 -0.1820536442030671 -0.3475619824529434 -0.26779787774942265
Ni 4.898696315491814 0.36333485293212403 5.735466227519545 -0.15053320499728268 0.6661049519657174 -0.35737511188862325
Ni 2.717219533795423 1.512700891500371 4.602309804236946 1.1937359440915314 0.8582540327315734 0.9467457471160792
Ni 3.6231166065220175 4.65151555637938 4.676656334065839 0.2611772871091115 -0.5365972001801662 0.020289860597287636
Ni 3.8077901138530286 3.2381677237618898 2.4237665365771406 -1.5612221762722274 -1.5889638651618698 -0.17299976153091495
Ni 5.2970156363778775 4.79097085878652 2.6197613762181784 0.7527794106358261 0.24655825164435602 0.7482229016133953
Ni 5.315266193711244 4.775686470562504 11.448229922785636 -0.3818283598349811 -0.3053349554629322 0.2176276846529349
Ni 5.597823281650777 8.034381535897657 12.30876093567557 0.3414275874204314 -1.004653675176457 -0.008385395850217817
Ni 1.7688345830621257 6.288287582673875 0.38533348695045344 0.956035142837805 1.937415192198302 -0.9769693218873109
Ni 2.8093249806955205 1.7941876187215478 0.0757407200188226 0.33827978582006907 -0.027374278247894793 0.7516681798495183
Ni 7.9524989409432365 9.031585820412353 7.102294187729398 0.1282204004326953 -0.3480553771495941 -0.8716283971559505
Ni 8.907269772572503 1.9529184849126848 1.1952309953499058 0.36523831668678386 1.174968690786357 -0.7688778588595856
Ni 7.186039028916691 0.9533013533549096 4.795039136601637 -0.6012419327437452 -0.6547908125044788 0.24610342349512454
Ni 0.7651482666038791 7.508498801602487 2.454514008840018 0.24783943234962477 -0.170530474054816 -1.2150832994190557
Ni 7.690033793606786 4.026805872706963 3.529599734810254 0.3407393031041551 0.12492013241486874 0.5330182245796562
Ni 7.872085824263173 3.685587574889259 12.295603662607952 -0.8539214667944907 0.9797749096569062 0.8250724037732824
Ni 8.268019510666793 7.07119295217825 9.106363215784652 -0.4425225923912443 -0.10079727122473608 0.3484053042898451
Ni 6.797316671081672 0.7038274824661955 0.21829281182636576 0.14049536114530642 0.0687906364111525 -0.06347513773551003
Ni 1.9437932062460022 6.489451901750442 9.004668062516346 0.25184469685427596 0.2982356254139896 -0.41674934008188225
Ni 9.035522570851061 4.718404030423236 1.2275096276912487 -0.19873496151349 0.1390015502085993 0.3527072740993087
Ni 6.667186206119214 2.2596403266971934 7.0284665107233035 0.27170466900299656 -0.39739124727024466 0.10504164832338685
Ni 3.3211297502882133 4.360957975612793 0.06286192215504885 0.6055693564745055 -0.04111965285844531 0.05239059778657429
Ni 6.057044313240727 5.600653387956947 4.913581586159832 -0.2347139507112603 0.5727407399802588 -1.1185905691069447
Ni 5.306775874792739 2.747552468051275 9.300274480366308 0.32462748514395706 0.9694298189771562 -0.16281613612969378
P 0.3016766330425511 5.619729392962944 12.400949834428285 -1.686512547542321 -0.0240351865723328 -1.2481474289628762
P 4.095463163192175 6.333251803698475 12.728139150152659 -1.0223788603703619 -0.6099335469804722 -2.2242554312911564
P 2.43339252635953 8.636223597782093 1.420703387757464 0.4290600391284352 -0.25669765407120304 -0.13973817126430774
P 6.379413377391068 7.77267834025902 5.475094633181375 0.811157850574719 0.8686479743713879 0.4143260753523703
P 4.769463865030351 1.082134686260374 12.440393533985148 -0.279441375525622 0.11374097586959767 0.5419065282082216
P 4.0992547799741565 6.330557760195488 8.104388569390425 -0.8765266057885162 -0.13868221919596763 -0.29552285446851684
P 4.901054737413621 1.7038328465557144 3.513695807289086 -0.7686012081594311 -1.8464325930711425 0.7067101270815893
P 0.15610122574832272 5.6318208407389765 3.363874333450251 0.7209828349505196 0.11287142878045077 0.5133413149760192
Ni 0.8408282119039475 -0.037967871685024454 4.228414663607256 0.39066781250348204 1.6837768937787132 0.5261526078080744
Ni 2.018627747995638 6.4219284679584066 4.560104936860861 -0.11652702325516706 0.6891813741692067 -0.3743631618061875
Ni 5.912318844923703 5.868778747905734 9.354255129815048 0.6647042149634489 0.1475430120207072 -0.39301522968973607
Ni 8.779207462218398 2.275060777724391 10.220614166107907 0.3831740752295982 0.5670053801583783 0.11581765589296827
Ni 2.3897254373919243 5.3384785079339485 6.8067811996709535 0.6092344640309185 0.7575050982462695 0.19681974676864814
Ni 0.756438433029576 8.771796574871798 8.826768668613049 0.7574685885813792 0.8194049210748598 0.35376374038828107
Ni 1.8258358267414847 1.1855787000922346 11.335011157173243 -0.6114816081938824 0.28660395471233224 -1.4834889859558065
Ni 4.160836804693948 7.0641358281199205 1.4506943508346544 0.09535604560450674 2.024325935248933 -1.036271559192054
Ni 5.699280778556194 7.948689182454165 7.813176980083214 0.694650624813894 0.494646052559361 0.3878547685347191
Ni 5.541828902714959 3.1144775648166725 4.937929571246424 -0.26991646675432224 -0.11108014120798289 0.18071229968382427
Ni 0.664134334436834 7.438027340408194 6.312445986921367 0.3751884859209603 0.4947342413977932 1.198712057149884
Ni 5.418773703517922 4.690293455286009 7.293310942944715 -0.5487063247388744 -0.06983990361127326 -0.26715561617973344
Ni 1.1826216018364308 7.422189630117907 11.18566771731625 0.17418966807395808 -0.7340964895143421 -0.0006502319894892027
Ni 4.77140502768907 0.43840795813000444 10.38416256261701 -0.7406227206686342 -0.2603733031505774 -0.6648250568120292
Ni 8.348496123321675 7.482401955952341 4.388883505337693 -1.9252178788011618 -1.2051133326905374 0.7407731302035693
Ni 7.342701740499474 6.433892923784803 6.878618731409186 0.5195510433311569 -0.0632841047706265 -0.3503781117454998
Ni 2.449565858230997 5.454095607223749 2.362829449544428 -0.5577506943293298 -1.3772479180076795 0.6480113276888001
Ni 2.3548117220956395 5.211033015620932 11.172179358094224 0.60364308598607 2.4948100458501097 2.5306679360889834
Ni 1.404032066026354 3.4588434488146342 3.725449440794565 -0.9866017027707527 0.6302792005163598 -0.015816655317282435
Ni 1.8871366550013686 1.3771914103854845 2.4253865910203514 -0.1877301257625541 0.12394157055168331 -0.4136362483741973
Ni 1.044608565143011 3.555166842613348 7.748960779493836 -0.6946076873911005 -0.5738496567737215 1.6978732239707792
Ni 3.6554360577043146 3.1291542058531467 7.445999713589254 -0.26961024836781305 -0.4913776662207345 -1.0943250116913605
Ni 4.352785136568378 6.97298282084209 6.001518897433206 -1.1075237697698217 -0.2109060496583852 -0.9227169883016496
Ni 0.9969321589083339 9.008455143871556 13.143176961208269 -1.6303298297031665 0.07781418006600146 1.0149044063701875
P 0.2995050707037799 5.782641922638516 7.766684320236213 1.274055921298522 0.2227675769826615 -0.05115569693820867
P 8.856863039420658 1.6498703388140676 8.144522560902095 -0.016881606246687053 -0.2722983367229375 -0.9629861202343416
P 1.9433305927151863 3.4679687274813173 10.316467689692967 -0.39609335439442755 -3.0698426671883388 -1.7127498839722952
P 4.15124891249645 6.424803928532302 3.3890722575140466 -0.24149472107851958 -1.0697483507932608 3.2272700282022937
P 7.0052932011708435 3.9594457142787456 10.206076309130678 0.09587515133277037 0.21984011892322136 0.8297258433848935
P 6.361235386886066 7.916360660418321 9.987485973308022 0.4675633374099561 -0.5413352290857838 1.5509305645382323
P 2.529679636744062 8.445073501019658 5.485835430864496 0.12108250383633341 0.6637801604872826 1.4386720867514322
P 6.933207128045466 3.951789913886419 1.4255626440017404 0.7099934258185514 0.5350313983549431 -1.3850928679733954
Ni 5.295382882739704 2.9192093005446225 0.1942931475159188 0.40537735079951476 0.726688369975729 0.1594796155572931
Ni 1.6517842889121495 1.1170574724102043 6.863045890042425 -0.3330673883811941 -0.09743452540009026 -0.9566812610622364
Ni 6.797534371566762 0.7766918348257685 9.135039812183113 1.0826398620439481 0.23781341557219043 -0.3735211255208664
Ni 2.4870375542270877 1.703161603393354 8.989785513104392 0.506348942818586 -0.20649326530267018 1.1378710146031112
Ni 6.65019649742866 2.043046485739883 2.186017650981224 -0.6226103711171923 0.30996602647704036 1.506313954270122
Ni 3.9266092244443596 7.026809265780556 10.328933763720425 1.4906137699260458 -0.5649374418857561 1.0436588527950605
Ni 8.138206525578425 7.537888367089616 13.320453187472996 -0.10420989645071085 -0.5697654594020187 0.3917152799313899
Ni 7.742073280396806 4.432136963383629 8.21734155899394 -0.23036312994173228 -0.8072932254129904 0.07934835732234077
Ni 3.0731416852102376 8.436410835883793 12.433317361134373 2.028330685532952 -0.8087245585428781 -0.026438139586870593
Ni 0.1788627185498211 4.911876265693296 10.118866401889038 -0.24668474991989128 -0.48033117859858565 0.05470819017615739
Ni 8.882814751414076 2.439469998234955 5.7898314811586085 0.19016058958091767 0.40663616290728033 -0.08464971493059614
Ni 3.9164589393270455 2.858670423982553 11.227580503208173 -0.8442698026373394 -0.7579992642738688 0.5375657347410225
Ni 1.100893211392283 3.4133531182844012 12.410946822120682 0.38801674803388014 -0.27362708283669 0.44307280846775954
Ni 3.443921894732434 8.610126752131949 7.699121881773933 -1.4651053412422959 0.038308665772211446 0.5287301387272635
Ni 5.934161460261052 8.355643955915458 3.371734228047349 -1.0311404086130758 0.5782465002898364 1.5223949189923847
Ni 3.5409618859612353 8.502319657744746 3.5356146177962158 -0.7472409973161002 0.32083253687789903 -0.49387986381729776
Ni 3.766472375953684 4.606941382057233 9.442156236096848 -0.16494269555439334 -0.0759033361965338 -1.0731836017270548
Ni 7.367691942017081 6.105364750077128 11.364908690458915 0.4259382056700019 0.7009819663485606 0.11145937892427256
Ni 7.964145916895544 9.172719230725395 2.4287319218078984 1.420222878907309 -0.7249641881957708 0.11197951309380069
Ni 4.590659199943222 0.8032567365188574 1.4798743796048852 -0.25604845052297837 -1.0908362818118116 0.47127189660979485
Ni 5.891664511400804 5.539533976767971 0.39597722650063805 0.8439437867564885 0.9352621719565118 -0.29537655869863966
Ni 8.445690319060748 8.732864471454896 11.001767046707307 -1.6978102319433275 0.46317806385806687 -0.17513197738256936
Ni 0.09879338721912867 4.963407784684772 5.676307934867087 0.041000096561445515 0.08159550148530464 -0.7496982006073412
Ni 7.126615867340708 6.357969879609718 2.604135923900855 1.1343879411505173 -0.7903113461430131 -0.7099659150147256
P 8.597908312406279 1.992059217961131 3.581031474412731 1.0619504520153968 -0.8561177031148611 -0.7361790830749838
P 1.8183614434200666 3.403366108530904 1.3578541647973787 0.10039309380778193 -0.4692777489979015 0.16767089311883382
P 4.865859825657429 1.2560501612865285 7.866958977839308 -0.23374155949566194 -0.5973917057597194 -0.4200071848975477
P 8.508868814004531 1.3371617336895882 12.328501834246447 0.5982622812901309 1.132079861842631 -0.12446581848626952
P 6.366442056821131 7.943799992393188 1.3941375789790205 0.3859398109001934 -0.23572285159174888 -2.5507485088889426
P 2.0593468095609855 3.365957908509632 5.867775511503611 0.4487086665972982 -0.7391031987003143 -0.7998467964372741
P 7.123196155554088 4.179359487633676 6.086804876637864 0.8374810618502802 -0.6239609716078157 -0.7929192160795054
P 2.7357603584422416 8.674330253526362 9.995876512837528 -2.2884661616411104 1.2235049478238478 -0.42974678078281464
