# total energy = -340858.94616166694 ev
CRYSTAL
PRIMVEC
9.35213115097767 0.00000000000000 0.00000000000000

0.00000000000000 9.35213115097767 0.00000000000000

0.00000000000000 0.00000000000000 13.68778926736110

PRIMCOORD
 96 1
Ni 8.648729485879938 5.101166800269296 12.20993225505053 -0.1913201571066576 0.15575640106943497 -0.5278688191682328
Ni 1.5585513921377177 1.5406794691462433 13.625646674800292 0.8427307402849938 0.3783805104956967 1.7239382964889471
Ni 4.334039522811596 2.345196567702799 4.953925909233153 1.7819195009894215 -0.6082533310645718 -0.1798527798970064
Ni 4.68920541472537 7.105861618000045 1.489464392286897 1.8618499560674773 0.7063517153009061 -1.3182043336809621
Ni 6.911150243493244 5.094367800784837 7.983732158724904 -1.4894081796537189 0.15649173657356277 0.6030705013120516
Ni 4.5415352608607025 5.548993609503596 12.786024480831335 0.8225972027599123 -2.2845760825580848 1.9454172365671722
Ni 0.16132145998222636 3.013761732964189 12.169334652901922 1.4143255395862673 -0.2959995369946193 -0.4112446082135692
Ni 7.004035611965941 1.298487323824312 5.62308119398212 -0.9920501274798335 -0.7815356568329122 -3.2302388810226303
Ni 1.2886021209975258 6.712164944963889 4.564891273670177 -0.8944222551220145 -2.177518946466566 1.1066655355345845
Ni 5.382871700504351 1.7637558580084292 10.59447220849344 -0.0005481591939861528 -0.0019293558122289352 -0.7120173982271157
Ni 0.04926796311427832 4.109644483430417 5.336554334827964 -0.9101244963486197 -0.46435074400992926 -1.4278487708836827
Ni 7.211344307388239 2.6814524500463155 11.961540581863058 -0.04772301710757588 0.27486352634695244 -0.17706930361459824
Ni 6.672493203817979 9.353066553518298 0.44407847499307423 0.4300545418312206 0.7012768718811601 1.8506849405895935
Ni 3.4940030294242614 5.4862595124723 5.954421596093131 0.15173622416644836 -1.9889228731592907 -0.6707496498265803
Ni 0.5245030636678427 8.24405341065017 10.001995983817418 0.2703872357431537 -0.09015727501238667 0.9352228340781441
Ni 6.449426167087133 6.420397151406581 11.958966875318186 1.4910822249220321 1.0025541123349506 -0.23794994115005472
Ni 1.3526174600224563 9.193584657770725 2.181765266890182 0.30989557825042113 0.46788781062891033 -0.466681449025635
Ni 1.839807390068434 8.95519882990433 12.44737445286468 -0.5408732018477007 -0.6234158977376231 -1.988274955162647
Ni 7.530504493641533 5.25045487285585 2.4617895891233696 -1.0477538488000406 -0.08120572224605369 1.6559511298156964
Ni 9.099324525990992 9.011470604179422 4.0058685580118425 0.8580781692753416 0.4464898045691084 1.5794728949522991
Ni 3.2041430706603915 8.93816859873349 0.5447251772651557 1.0807948384154096 -0.6710381276012766 0.4240741558780696
Ni 3.6268968157711217 1.1660704961758115 8.91422807771524 -0.8028153921472948 1.509263523816749 1.137550912259531
Ni 4.226742519943368 3.8954619714729364 7.556946709793335 0.28174739795097925 -0.10611482678290758 -0.7017473837596753
Ni 3.012143814242303 6.814944868394712 2.9349083023546054 -0.8072379466950226 0.927134657753371 0.8497447097089816
P 0.3482724359027758 0.8258231241762193 11.293315834182458 -0.5929691512119917 0.09363597758960648 -0.5368501967312367
P 8.232971135011816 1.0700895722294477 7.13162580462967 1.109473951517657 1.6455286489307916 3.8542957547783616
P 8.983470322946312 1.9185336316917885 4.219507711138447 -0.7127972138159336 0.5015996010590588 -1.1638286150091375
P 4.876369619240481 0.24910337038247513 5.7384958468538025 0.9407003122529477 0.29694210341354665 0.707809273683039
P 2.5102055730725388 2.483234026286871 7.624975048376424 -0.7394243294851589 0.36358535446439316 0.3767414322303769
P 6.011334926578174 8.207018970542249 2.741390259806838 -2.534698140294299 0.43644219052511934 -0.41375143379582296
P 5.935666831903124 4.852353345958373 5.337156612086284 -2.767375520191505 1.4849632565084878 1.684523027916118
P 3.947992893211875 3.252343955588732 11.643271653726504 0.7878497719763979 0.6247081341864854 -0.9910473972469318
Ni 5.70168585789805 2.7551472450085432 0.0892427133156168 -0.19571108708550164 1.366583239204982 -0.27469023399388176
Ni 3.419672289530887 8.20317524456135 10.398503907534492 0.5752221116412158 0.7284745153418745 0.43347565169762764
Ni 2.3702228711696676 1.7767927290969245 11.320732542419929 1.3052482877409262 -0.3984495133314299 0.4983111601157741
Ni 1.7861074519119473 1.7020317911618927 3.626593806715693 0.6806039169128407 -1.3612623412127007 0.17259249879016728
Ni 5.076551990581406 4.4822053396373045 2.4263384648513755 -0.6213510447887944 -0.7632474000466855 -0.963904518283553
Ni 3.0457647264109844 5.624016407116159 0.9390026176575497 -0.7691038588274626 -0.935518253831376 -0.14247305369696753
Ni 7.927203200837951 6.4329196552713555 0.1987860981318057 0.40712055874286657 1.343191342643603 0.5902936612623576
Ni 6.02586813868113 7.262032859253122 6.917891259763393 1.814999828483158 -0.6281297582735247 0.9696586471585107
Ni 0.9205069075056717 6.92150305288705 1.9009329205091854 -1.3543414457231515 -1.3175990959967951 0.368351665504785
Ni 2.8431788573155803 0.6744888052523893 6.52134218666842 1.3823664701811678 -0.33775990876085704 -0.341566941211773
Ni 5.482602829118209 8.484047805107112 12.557780104190453 -0.8408350659241778 -1.4570192218000522 -1.6606356797755595
Ni 7.620677744025518 7.033597699132896 9.687847604749436 -1.0828085264113287 1.3850273048427824 -0.2678243601119839
Ni 9.39356128222216 5.827864813942515 10.176446900988408 0.239538111572781 -1.305313850871539 0.07593804608921116
Ni 6.5998832560912355 8.315737497374217 4.7402325137447745 -0.684415320239131 0.6240612446311059 0.45248098915553686
Ni 8.117603242796834 8.495092672220105 6.722785225314029 1.1860491169702347 -2.7558556924773634 -1.4452965340464852
Ni 4.4307499130025105 8.690000441485054 8.041973491860281 -0.47404971646524807 -0.7514306099174155 0.20623024144927063
Ni 4.291019718645829 0.06059245895434962 3.6125085617039407 -0.5541375230567747 -0.578983635566177 -0.2977707699624291
Ni 6.187753532183182 4.545154535689431 10.724670710588002 2.651734499085717 -2.071711109401116 -0.29784584617473864
Ni 6.667985476511914 9.154857481890195 8.384318546919522 0.5411521665407002 0.4919389380408431 1.275989647986125
Ni 7.536134476708444 6.276664244836215 5.435736493332141 1.5200894107876595 -1.2009337473915511 -1.0977456073371352
Ni 1.2822894323427667 8.154647035036097 6.546061740227324 -0.2746573238734173 -0.17308692192808256 -0.9144624616023411
Ni 8.182535090693124 8.475808577396233 11.962019410987685 -0.19210305801926916 -0.1095683325491468 0.029550202853291043
Ni 4.636552915279006 1.1488251659841429 12.636389444172051 -1.7882495569725074 0.4748243898477436 0.5637809596838097
Ni 4.943181245536184 6.130191163783117 3.95596277954015 3.3829922335996834 3.5336578504097726 1.2801869738969243
P 1.4987164558219392 5.1020365484839525 6.292715307855716 0.4953559341421921 1.0921259471575127 1.8507818711787738
P 5.597867847888445 6.655126295918885 8.969307455244433 -0.40809912060605197 -0.2255993900045018 0.6466195895475961
P 7.1612075312724395 2.31064979453142 1.3892282485806584 -0.8364737036316884 -2.057549216078437 1.557252650101518
P 9.042014665137117 5.773893663977158 3.635832777266859 1.0563446757928452 -0.05492184884886025 0.7027639979496477
P 6.29650011540917 8.94401368082123 10.542800747624684 0.597208643214636 0.41945594037976797 0.6924680153402785
P 0.07214234115972418 8.698277077721295 0.39215357136499274 -0.037699314322986684 -1.3030890753060784 0.17170135443446558
P 3.5614506006511126 7.331977449547855 12.65252748201302 -1.3669907590560457 1.316304545555088 -0.3554442134144975
P 5.636903644103209 3.2368755303517363 9.055594895056489 0.2704592266316697 0.19848916405127107 -1.0609523497681856
Ni 0.9324383566697338 2.4594889648136355 9.699647188861597 -0.5945673489370471 0.6852573565244521 -0.7961670335928417
Ni 7.868434407494977 3.1614786474855583 7.206512061124663 -1.1082308231391753 -2.0221885771909562 -0.23559121110989104
Ni 4.084926800297781 7.490009764937669 6.12993959145006 -2.2972624197765015 2.8912854661743044 -2.497415087573125
Ni 2.353417091150997 3.3154053772169427 5.1516458643921546 -0.45490245411283586 0.8064743290561208 1.1231794740292076
Ni 0.7179668638538358 1.2691029271528247 5.972078420063776 -0.49963065025814607 1.0332847086495884 -0.20411422354753234
Ni 7.803979518297049 1.4968927902105642 9.931120856454315 0.49761747648285914 -0.45359890481006393 -0.3046124754746109
Ni 1.2283556909027704 6.7867107838780925 13.216463807477593 -0.3308073887024238 -0.07767379783339526 -0.5480347525931464
Ni 1.2049005455010868 3.7284329057336736 2.5249725884590055 -0.12447636000923079 1.3224281419543225 -0.10683319300617085
Ni 2.1524959014341816 4.70382279601039 11.939899749941409 -0.3602444630166182 -0.3503588284717902 0.6784984405340637
Ni 8.558621700415335 1.2654555959300748 13.447596122276385 -0.858114936050548 -0.7065067528215316 -1.712447265130212
Ni 2.99333667811679 3.797255240267561 9.629633392794945 -0.42122383091346816 -0.444317479508138 -0.015100345976548187
Ni 3.6442450194075344 6.281789212810745 8.219873475069607 -0.10427931623606557 -0.44449925650164096 0.30115434172268135
Ni 4.300773991633849 5.519085493477048 10.575295663179983 -0.612404634228784 1.3046823879351273 -1.369880679009331
Ni 3.442977800831125 3.312309821743276 13.63436566684893 -0.9982110048749067 -0.2806762763739876 1.5484689903716171
Ni 7.2706087636922545 3.50906931301362 4.973458770750679 0.601659479897138 -1.6973777723915993 -1.9574595124436869
Ni 2.2264525560739403 6.228846797292831 10.132563895099924 -1.2657546005216782 0.5424695998005432 -0.2686651108457244
Ni 7.9120901565918915 8.080868070891807 2.280331119939028 2.8474191038086576 -1.4808235233085012 -1.6089354231877904
Ni 5.137200562323797 2.1410582448048916 2.480076746746357 -0.8252053298067208 -0.24594658620228607 -0.4172213946222944
Ni 0.5677753753798007 0.5646620508565867 8.372273001753106 0.4041457923852588 -0.44501142025136914 -0.5524974163501905
Ni 9.322980746996281 4.536587983381639 8.01837525884909 2.3824741778581546 0.8079660831102988 0.5320283498625612
Ni 5.612784497376357 1.8005845512268623 7.345510918810525 -0.6991505695667766 -0.15383270168416086 0.83550928283589
Ni 8.272680284683087 3.932589932894262 0.7428182824646389 1.3767121001088676 0.29994000969960605 -1.5563501928919066
Ni 9.154081254988942 1.8613359964139984 1.8068701187007343 1.2821176152607339 -0.2528937069440806 2.6624585703714407
Ni 7.01324746133622 0.8171462167186109 3.1458100866378786 0.4817877085394542 0.9837526633577316 -0.17828826362336392
P 3.134647382669996 1.3111501096591922 1.7602908933468164 -0.19416971074031075 1.3875744967446684 0.44807514677835736
P 3.436702520701727 4.83866182567605 3.896667461202712 -2.616378745294242 -2.51422110338687 -1.2906909587520417
P 8.501957136623949 6.440363951818301 7.437903429961584 0.247289987604058 0.8460775452700396 0.5778016994429339
P 2.0748264506522904 7.821907554076566 8.437728569004456 0.6546918250327692 0.6304802607835722 1.515523645793848
P 8.54609919655056 3.7317435602281694 10.035860051400949 -0.5500556396779173 0.417822518541403 0.6641154323395143
P 2.143405629771328 8.512431523725178 4.283210688976608 0.4039635011711236 2.681243307178111 -0.07512917703467062
P 1.1035234417713216 4.83450947936092 0.5754113906192244 -0.8865832186935699 -0.48782491587246957 -0.967394276604366
P 6.195880534317976 5.447457519541044 0.9248678063496929 -1.3673661401175936 0.23106992620076983 -2.9217376120165746
