# total energy = -340890.354677408 ev
CRYSTAL
PRIMVEC
9.10183695875680 0.00000000000000 0.00000000000000
0.00000000000000 9.10183695875680 0.00000000000000
0.00000000000000 0.00000000000000 13.32145841691919
PRIMCOORD
 96 1
Ni 6.350160446294177 2.2391792959722387 11.413945545044024 -0.1798406957121483 -2.71009699818501 1.4528517206859237
Ni 4.769744797531376 0.2264546115331603 6.059545166290249 -0.3944671316449142 0.5379557710905897 -0.6497599349487907
Ni 2.16738400673411 1.558698665988691 4.723522939349583 1.256042772550553 -0.31695814152415736 -0.2302739126620357
Ni 3.644084224352327 4.63252550486479 5.151714304025438 0.1308318699136134 -1.2756091247182546 -0.15818249401242435
Ni 5.057426555511793 4.555414742894021 2.6655839700703257 0.5918730899343355 -0.332207354373744 -0.2242037952085558
Ni 7.182250373037298 5.817903229754205 2.818940819509123 0.7649294157347988 1.2769507263478137 -1.1064379929048105
Ni 4.909166734720734 4.416193046115824 11.607972132173328 1.2147092039090888 0.47527381868033625 0.18760799836239303
Ni 5.729815652517059 7.963169772891884 12.67238371449663 -1.7095763713403203 -0.2271883317581765 -0.926610666929101
Ni 2.1441106098550664 6.553668416891961 0.39038961578338666 -0.6894767939224384 0.48880424906660336 -0.3511288738685953
Ni 2.797185609020155 1.5671542724418126 0.17133024670788097 -0.8662033694856373 0.706585428578267 1.8003332276099187
Ni 0.6944191829677351 -0.28593602566856796 4.591840294051602 -0.06651829543720801 0.55707526552886 0.5910606213353692
Ni 8.6040756161605 2.4924652124173003 1.1083425081646747 -0.10140610845332858 -0.5284576017921673 2.178809126032899
Ni 6.8833369483581155 0.6847002415569245 5.021910277857623 0.346585477472287 0.06917398789250023 -0.7997570649369452
Ni 0.5915948216528181 7.406164661899773 2.5401752209274964 0.4867545656264262 0.0006869987646955911 -0.8475325325490114
Ni 7.692399227817709 3.6445939272171004 3.7929520478463665 -0.489473507219486 0.0003846370329283699 0.8539109252715293
Ni 7.522331405883829 3.7295686762443787 12.777130383758694 0.745994783613825 1.2846339539246843 -0.3867381384317727
Ni 8.159505496035353 8.524643885787636 6.7707108189168626 0.26085461366237006 1.7422319525918124 0.4966851944765768
Ni 6.724355163733065 0.7907311800014805 0.3648589633603452 0.7254303291989119 1.9277429592158604 -1.0740359224250213
Ni 2.1582821698631505 6.404789671193676 9.210509162464044 -0.8586697801127534 0.694294784136372 0.5606460135992538
Ni 0.15372456364838394 5.178735837327943 1.3147175573768113 -0.5102873586410437 -1.1608463924523622 1.5507601003986389
Ni 6.524688168294826 2.0931494252145644 7.195292395089695 -0.06162574323159709 -1.0094690942872293 -0.4931630402559313
Ni 3.3007993449272166 4.1664295405398235 0.31040995483089107 0.6321234528139501 -0.09842080057275954 0.6839460939121963
Ni 5.9381840040039355 5.60338203654256 4.767016977021149 0.3362272741664145 0.33720635025023216 1.6018754310172152
Ni 5.353600327292817 2.900864632817255 9.446566211896064 0.39399636265608273 -0.3732547592333572 -1.0349739234265531
P 9.394642963098303 5.752451920815135 12.69361829991658 0.03852926642344977 0.39430978013144347 -1.9860851466001794
P 4.17948157461278 6.193372204355028 12.725282680206961 -0.12220504747655082 -0.3220895492134518 -0.1213702102800813
P 2.2036912340123678 8.643013274294464 1.3140740575100343 1.7873440144391024 -1.407990084286543 -0.5850570954537666
P 6.364777996308939 7.740247584248342 5.914087801071758 -1.2519835148795146 0.29555987835403935 -1.26483465981057
P 4.66676661517334 1.1529387782813152 12.628942467478916 1.4886972696296232 0.039126276577500355 0.4511581565790552
P 4.0567706099185035 6.083485727811933 8.188300977344007 0.14997630405254814 0.5957261451318385 0.446820705545966
P 4.488498038218727 1.0748905271128373 3.841948145906429 0.23096271119894415 -0.6526768514852694 0.8356226684853029
P 0.09595247447734251 5.73371123869783 3.8028630380151545 -0.5443171945322431 -0.6487332934564892 -0.0986686549175075
Ni 1.1681297440189466 1.1146928597495431 2.2096838834082075 0.3013147785599456 1.2213297945494 1.808493394823208
Ni 1.9957142615109422 6.296068229770064 4.659859231171969 0.022171136780400526 0.9831885633241455 0.46556764713616594
Ni 6.018908195212476 5.541480443983164 9.480362242381625 0.6836743283080483 0.3058568894046733 -0.3240538720286742
Ni 8.684490344915426 2.498918414758811 10.142505401621252 -0.6832040735398492 -1.1222695606204285 0.6136924998022721
Ni 2.210535815339329 5.221669201848259 7.174324493490066 0.5762364118383431 -0.9263725827763658 -0.8272059051765173
Ni 0.5444773427229219 0.2701443386974532 9.388830530072507 -0.5677304312498609 -0.4967381592016994 -0.5285421910861736
Ni 1.4867213400131432 1.1855597616268343 11.383972286044266 -0.39095757582975893 0.4524169686868208 -0.28512479906364446
Ni 4.258212463546579 6.74735550550598 1.5264927264044879 0.8251294822634627 1.4533548855745873 0.06400221388357363
Ni 5.747855493195301 7.8376190350938675 8.194681364990549 -0.6565021387686307 -0.2898797972501265 -0.5805082997408196
Ni 5.435990154648743 2.843295514608436 4.968730975571668 -0.49186540449043037 0.1675438806226663 0.17010187115782963
Ni 0.9426954483990209 7.256876333542294 6.8986635314651235 0.5445683913111009 -0.06753002453117403 0.16963007372773367
Ni 5.414355088406472 4.577586817511678 7.402641340847024 -0.9250991153805809 -0.5444462639109399 -0.8463035452379167
Ni 8.262774937173258 7.324038787813105 8.99486207203146 -0.362939236239962 0.6043881916822107 1.2656895516116977
Ni 4.564097895268916 0.28247550729022913 10.599125443579862 -0.36085638556900435 0.10411707962658844 -1.1226469985645051
Ni 8.025426337089247 7.469176678557426 4.456760843233378 -1.2620812654351492 -0.6174578803819754 0.2369122439141597
Ni 7.287922699109138 6.265194799103769 7.076678167171037 0.06508156299068146 -1.970212184123665 -0.2759297628279377
Ni 2.5623764214231413 5.171436164157433 2.4661217659616828 -0.4601079095731754 0.5625661134401021 0.4902222124600526
Ni 2.494667856940073 5.105047366020655 11.589322468424733 -0.9313713215425379 0.18298721176093 -0.7509364438898165
Ni 0.9194311533568482 3.692424079973993 4.024945127115506 1.6352396082999578 -0.26885948624471756 -0.6494745424978879
Ni 3.544883304295739 2.814278858663817 2.976213279169807 0.05461331646950595 -0.3872243340395718 0.16632954859959095
Ni 0.9762448191053777 3.3498218383142047 8.344161742106005 0.3592597305058458 0.18292601950569143 -1.3900347853597028
Ni 3.935315698712419 2.5314210742250074 7.112859789100477 -0.27239423887085346 0.5066852431120822 -0.4774188900477972
Ni 4.038139149843649 6.886049295745662 6.120037794502021 0.5329184657769983 0.002798902901375825 -0.35410441155715144
Ni 0.7328216530936876 7.242877708434759 11.09811999727491 -0.3371281887141291 0.36566846224566707 0.7484561006701239
P 0.03676140893811846 5.557654408102859 8.241000612826863 1.6296436022694192 0.16448658185358123 -0.1569427080680523
P 8.56509244884218 1.3444687315569168 7.821881048960292 -0.06294034827796258 0.2933345885679464 1.0136944452224865
P 1.6276905894705644 3.318648047031169 10.407255991788974 1.6808939158039633 -0.5646577058618082 0.5206818145014904
P 4.1264087638182145 6.262318618652547 3.654901757473462 -1.2947921254046086 -0.469118854822534 1.0151879990488775
P 7.0472792340778385 4.005081278328324 10.580807996877056 -0.019448338532598763 1.4919188618907144 -0.5778896311710499
P 6.204876926159921 7.940824763373678 10.298020296582154 0.9812314395977747 -1.3659330072154927 0.7813986170344155
P 2.5088030096006735 8.507350395732812 5.806983756060115 -0.40099824789521266 0.08251724196862563 -0.20434330883920293
P 7.04282843584794 3.964086605061522 1.6691257916419207 0.001656561766816502 0.4817044047970284 -0.12379424634054163
Ni 5.398836456541487 2.901938649568028 0.8500706054817012 -1.0808336620731451 0.017610256882595477 -1.5123197941445696
Ni 1.7154231950697434 1.0403581580244168 7.204204913753739 -1.4149793711201826 0.06596525114721542 -1.707362651518453
Ni 6.900794271476616 0.6615997795784293 9.347147757938261 0.2528469128665452 0.8427022010399035 -0.9031123266968446
Ni 2.6931607154219583 1.6945344794508914 9.110611951886826 1.0841241598989586 -0.3755271002073016 1.5011712337269179
Ni 6.259633576775614 1.9421499515253453 2.837084421127693 0.9554160211965674 -0.40289803602108676 -0.15903327204849385
Ni 4.308727658180405 6.6993797233591525 10.530812517128563 -0.6351429563665643 1.316006554698695 0.39953451886549257
Ni 8.06701262975266 7.493924573009565 0.23271940585144177 0.531192227114511 -0.6997354955359691 0.5571503417411695
Ni 7.706334140067147 3.917858375593919 8.224535389927297 -0.000850520925753374 0.2395669079281874 0.7507045303846683
Ni 3.05875419701779 8.63767959788808 12.355825468859408 -0.0023795559757700956 -1.578850945097584 0.14930884567187835
Ni 9.216337978796206 4.86682498959703 10.569405215645117 -0.6787905178531858 0.5957701109958965 -0.022558344916490183
Ni 8.949890806235736 2.3169453901977173 5.891827438636452 -0.20635982504859943 0.1275424005290642 0.3306083853177403
Ni 3.533214749427169 2.5371461296168416 11.339944880732062 0.06997360097566015 0.5978041107067898 -0.14677630905801173
Ni 1.153220935224315 3.23471090740718 12.92799606044591 -0.19667010856466127 0.8137970879697791 -0.9663105566218843
Ni 3.401247216635127 8.55104831455029 7.855130969233594 -0.8517473419613074 -0.7527827530699358 1.805687549943297
Ni 5.4663720861240055 7.914356621752928 3.5046622871629687 0.7294397074686212 1.0641531160936704 0.2855320618043921
Ni 2.8173188721787175 8.448852890163156 3.3923893089923087 1.2801864596762922 0.03369893491434196 0.2838114795688596
Ni 3.5037976126602275 4.168659490573209 9.176219812420078 -1.1240058265852448 0.4521104931899956 0.5409122826157523
Ni 7.290662352007296 6.454458394998503 11.499003120786828 0.48470951017193936 -1.449881582314006 -0.47366636498390036
Ni 0.6193244778638834 9.105204550601789 0.005833367250597966 -0.27895569413845506 -0.3252638331763753 -0.22159695371332802
Ni 4.614349136633484 0.6314253699838241 1.6059417502674067 -0.7528066643293357 -1.1893473281055325 0.39929874870560267
Ni 6.308000737907892 5.764320716094867 0.4311758569858435 -0.625249351401936 -0.5086480232654079 -0.05522138236715005
Ni 7.858862722350688 8.923795839926694 11.38406512478035 0.8005484504899891 0.030363185672889644 0.4640568669185943
Ni 9.15881436977174 4.8979441698588415 6.020060487760339 -0.3893164406819101 -0.15744844405987724 -0.18742210760383204
Ni 8.074476135986847 9.208783454193307 2.3612813477798484 -0.4065531162751708 -0.34135019721527665 0.16492315517036757
P 8.590759628818287 1.5790685769058987 3.851433170109656 -0.09465130622799828 0.07630545673095891 -0.5534559236087179
P 1.7886838800440967 3.275450729241595 1.89532373137532 -1.0248378634338158 -0.49942650466713995 -1.9210277519792138
P 4.909876677996669 0.9727770192575421 8.379597013412024 -0.21130097110395868 0.5372692865465264 -0.4190283659240461
P 8.570990439134562 1.5936861269206597 12.415865735778691 -0.5436448510555669 1.0698856477020735 -0.30032798916664405
P 6.39172853528385 8.136605274468018 1.4357465026173344 -0.8336979406587641 -1.7286300455376615 1.5409886228341718
P 2.0454466981738655 3.219383414116484 6.07619697684567 -0.3466366424251966 0.5516677213600434 0.5572999799451563
P 7.022922718611151 3.965661222840198 6.119225000469443 0.3113495370881283 0.5006189823133442 -1.3965427616815498
P 2.323280268659905 8.431568501945204 10.219637097816824 1.0505967175654745 0.19814000824196845 -0.19330659140906709
