# total energy = -340869.36969545786 ev
CRYSTAL
PRIMVEC
9.29565964239450 0.00000000000000 0.00000000000000

0.00000000000000 9.29565964239450 0.00000000000000

0.00000000000000 0.00000000000000 13.60513750632194

PRIMCOORD
 96 1
Ni 5.742217140778083 7.916118701451974 7.679120280886353 1.615344412037928 -0.7706951145739823 0.46765564001344617
Ni 5.886281274272725 9.14249508111052 12.225141260241601 -0.9023888182672587 -0.6001895802198308 -2.5394994183376842
Ni 0.6847387414059246 6.951768376442221 9.20246045204616 -0.6835730268434937 0.578035926940927 -0.3797005148587009
Ni 8.152079726398934 4.488176877955254 2.6907969415950697 -2.680468890905932 0.44581231888610967 0.8867297715737632
Ni 6.151384192270768 7.144290783772685 1.1751712383915915 0.10477631047714213 -1.021867467951582 -0.23134631979060802
Ni 8.354529898252064 1.2577771180083253 2.0296961331523353 0.1762097838277804 -0.5248025215380833 0.34947385476367554
Ni 0.28576252160443527 3.4749685657440668 1.3446246071303887 1.3015862655083068 -0.6284395762044597 0.16971209191857867
Ni 6.234115563292986 0.06282378628275834 0.7251172278605656 0.5245724078051482 2.0002272424285166 2.092185318095068
Ni 8.854859484083502 2.0584308763100743 8.801367610538856 0.20665267369866988 -3.493241908486571 0.3200264960368359
Ni 4.168303933208569 3.15384070694255 12.278173928198775 0.22726906439744085 -0.9118329943992941 0.29924632606669105
Ni 2.9730587177695083 3.9967339427639565 2.1824544971320425 -1.419972967680032 0.24863184634393307 -0.9883400256180979
Ni 3.9711058090664006 6.193651556769423 6.989816441018742 1.1721643885683426 -2.6164872458476487 -0.077127438411622
Ni 3.4142957951078863 3.170814581491603 9.514644027117612 1.2021488507455749 -0.22829133501436813 0.8352773693307421
Ni 1.0851381267021896 6.978372554404646 13.291266974230112 1.0654093570982748 0.5334748525011006 -1.4009527178237873
Ni 8.329775556563057 5.628354605536382 10.887688254543082 0.6781024906472257 -0.05887260596649216 -1.6825049690448248
Ni 1.5496515358427725 7.583696616156975 2.1293669847828425 0.34183022217548875 -1.7626182295576482 -2.1845378009865604
Ni 1.665010672290605 6.899387334227592 6.763099949609039 0.15500692449792014 -1.4203311223503992 0.0588270974405374
Ni 9.252574282868395 4.764332335295481 12.873167723364928 -1.5501808308564011 0.3935893570256512 0.22098117450620006
Ni 0.47044961740291874 8.150713264428118 11.35111964889861 -0.1481654760960545 0.4427539916757601 -0.07658313587237778
Ni 5.738266485420279 4.713866198971929 4.294135559835461 -2.1691052684815744 -0.4569325971689872 0.8248314914070698
Ni 2.748559241190008 8.102236399272966 10.869919601092636 -1.4881419113467855 -0.9587155178834457 0.8174262000819341
Ni 0.07390328303796959 1.8044083846332075 13.22426200022985 0.037522165315174084 -0.4581746971062045 -0.05714919551748222
Ni 5.149451515233732 3.285141899716574 2.6250571068752695 1.0235106599819597 -0.5662741584193086 0.19982459503324293
Ni 8.695503990439247 6.355498287204009 1.2692953698997442 -0.6812238098850268 -0.3300044331851542 1.0139957785129892
P 0.6357757132502705 8.265226495846397 5.561726105752568 -0.9726357275089635 0.4477789556941772 -1.0427533102616557
P 1.5750658693680244 2.1036914432209928 2.463659356802524 -1.7173045932225133 -1.084854096086448 -2.4925778140854815
P 7.862129510115229 8.164368588476616 2.6115737525305818 -1.3231007425413148 1.2748552772713657 -0.5195029637020407
P 4.995227225724788 2.0525002454435377 0.7615478476553038 0.4751797163046332 0.643390283977021 -2.021483323593815
P 5.250039848473215 7.563924748048632 5.408041894070186 1.215295672540178 -0.5792309756902927 -0.40400952391771067
P 7.095795327298202 5.024555031969181 0.37171855696458533 -0.48810979410274 0.8010852968300655 0.06661316914385947
P 4.9340524894666755 3.91477411149397 8.020881715447196 0.31917648933171483 1.1991378318333927 2.1157579632086856
P 3.271393619071421 7.520160782343845 8.701383495177623 0.05774826255406183 0.4703722676136609 -0.38360653478132645
Ni 3.9496793135376134 8.307912165029995 0.3084234807367903 -0.742011887706677 0.04280783919414563 0.6237609397818676
Ni 1.757251503150544 4.593152762556816 5.998872163272194 0.604312601249269 -0.3526314265560508 1.0759609073618759
Ni 3.956818380160654 1.0538396406087283 2.260806682885881 -0.30726533971642567 0.04236920899483026 0.7894227728904727
Ni 4.457027122416441 3.589918693166621 6.12331873660894 -1.6154657681071405 0.3836235040621909 -1.8277141907260328
Ni 2.546880609089108 2.541944613806771 4.107662767815252 1.5593092755202305 0.8074063539520868 2.7924707725972358
Ni 0.9350504057443568 4.5710941621707795 3.8351251812168057 1.4214441529089197 2.6371154636209613 -1.4238031400593993
Ni 4.222079324373011 6.260747628234407 2.4077692030642 -0.29393159872199703 -1.0526718549269483 0.2734895288175612
Ni 3.587520412972943 9.284988248121705 4.4565260863604745 -0.29884574819416276 0.07701071032809963 0.06744646367843223
Ni 2.0567390662509686 1.8476796803757263 8.272223338876557 -0.703620432412672 0.42326888636795496 -0.49129847624336676
Ni 1.7285279147844035 9.034219237327735 7.552973531396804 -0.9706482647652898 -0.2574687279092727 0.3756209454726886
Ni 2.2013237566868735 1.6051466240453156 11.35705213889708 0.0818803797155751 -0.3263735213007863 0.3668064325048522
Ni 7.795303012780542 7.27808321333704 5.767802514441177 -0.2850731198901026 0.25083605308410345 0.7824635679638201
Ni 6.235286816410828 3.0408705550287296 9.515909166398076 -0.5467700269481099 -0.8739699008049335 -0.15098211960924318
Ni 3.2365441909857706 5.7690072319338155 13.1923713806157 0.678408966144051 0.7531787029567738 0.15809276251209547
Ni 4.752880082587686 8.528786334339983 10.20866913252929 2.3312292636402496 -0.08707529365295326 -1.4220735589628026
Ni 8.983427752915892 5.414414998336795 7.096535261807569 0.7968776865066212 -0.6839185831083705 -0.7849619089056418
Ni 8.99025076711031 6.80005391504294 3.781806206941937 1.4720200660842584 0.6435959722299238 -0.6124704544697129
Ni 9.27018955793436 8.641542686081499 0.9412078507067295 -1.264636684867151 1.5426454417113047 -1.1860779133256412
Ni 8.314874614119393 9.051732260137381 7.497314839584148 0.8485270352517967 -0.7218456971714471 -0.9999490706119359
Ni 6.813718534751104 3.230697221056223 5.51586318009533 1.6769411018038023 -0.9972663815734502 0.76322451722855
Ni 3.7109667733296887 8.363119087782911 6.65178256598373 -0.5430002754930325 2.1279383073249614 -0.1857370065919253
Ni 5.692587613824418 5.675576556636703 9.281465193108511 0.7677285757464907 0.1395129426273791 -1.0171021853524547
Ni 6.506887400514999 6.378542227514579 3.321476774216758 1.3424511220434687 2.249514977188894 -0.09007165727711584
Ni 8.388737925820802 4.016087506187357 9.118911062973387 -0.6645499487737716 3.6062364931084474 0.26246875222702537
P 1.1102642947778132 3.849425624046084 8.013724987070791 -0.37079112818421306 -0.4401371228782033 0.5349990024551109
P 3.277844806879221 1.396803003964311 6.099251344169208 0.22812781285331035 0.24115482124059756 0.9794224114134938
P 5.2823701527895395 6.557613815309184 11.271938290302616 1.0090039817253527 1.2637236861345784 0.7511578158720031
P 8.329868513159711 5.122038614880416 4.877564624811866 -1.2569202900595 -1.090011471917671 1.3871343238834564
P 3.0697149869705207 4.762194333572435 4.23024556138908 1.7811990778836293 1.0032434250924915 0.3843408418441897
P 4.368653285977316 1.2959636879138607 10.93153774031679 0.3302990816074376 0.4290438411785192 -0.16099116710581304
P 7.93807504958169 8.956070626520567 12.7542855319039 0.42652595985267183 0.613402479365679 -0.24350763774349035
P 8.624364307019807 3.190976867305894 11.496109630095928 -1.4682834818599615 -0.6706997704252513 -0.24577946449680255
Ni 7.547201856310545 7.965776115384635 10.49677137167151 -0.9458512603262678 -0.8794491787519498 -0.6449805112822763
Ni 6.595428558828102 5.451737071893447 6.744746599165638 -1.331202545712843 -0.5191720627251832 0.4786738455008208
Ni 2.2231964438796012 7.14628935060075 4.137580848448398 0.36199487004882175 -0.8356409233177479 2.5856916006230306
Ni 0.8310366219181665 0.19903494649205558 3.3044155204668506 0.7577902335868562 -0.3379260020250761 0.12821962910174692
Ni 8.580433019441044 0.9495144521837466 11.05480004661216 -0.05570834930589761 0.23836671697249912 -0.8587397141187404
Ni 6.666382329054234 2.243730556080509 11.957719075157037 -0.2901219951679197 -0.5789833784558609 0.3213164184928531
Ni 1.9802171958852506 3.8627834869852893 13.20170422291978 1.1636057003650542 -1.4025730270360297 -0.5696230202868835
Ni 7.613861031771256 6.745479097147274 12.734191104405168 -0.8194517151523952 0.9065568336020193 -0.27664967171309773
Ni 3.756245931559938 5.180182966087603 10.824737117722908 -0.6461472778968679 -0.0670271167528265 1.0568043890380832
Ni -0.16862140719874227 2.807967802111692 4.208136764440851 -1.074424930333324 -2.6469247364018993 0.11566261837234275
Ni 2.5290980121491637 1.6800789366082471 0.47393084194761764 0.3078088709247215 0.8947482710028655 -0.4694178741201916
Ni 1.0924259238798768 3.868054126015581 10.53834899822299 1.2514595240552446 0.3739836669795817 -0.24598438141875698
Ni 9.015516370080913 2.5668105034117628 6.5945464007258545 -0.025575534476259182 0.9015413826652989 -0.3109996099478773
Ni 6.721096581844883 0.37342338094722294 9.039715760887896 -0.7410551802203625 1.5839993220677429 0.7664743916244153
Ni 6.190779197932808 4.476994199377757 11.444858940096616 0.30139705386110677 1.2779123189301347 1.007447178761194
Ni 4.9587510571976905 2.036139884432403 4.4554375646136535 0.19731519834782793 -0.653873442896532 -0.09768932172337369
Ni 7.138694796654103 2.99356494299142 0.9469934692824854 -0.6757319335325201 -0.625693123807574 -0.2620211231666455
Ni 8.059392703875055 0.11115563914713063 4.58208813885707 0.07613884924610757 0.4239106337170118 -0.20574121762799405
Ni 1.1721269098511675 1.1148191680138677 5.454980327550712 0.20809403413088678 -0.518755801123371 0.8626881572435272
Ni 5.8801926171918755 0.3994642419339238 5.694117679405346 0.39810112885307564 -0.7413349162443104 1.2187836310887785
Ni 4.90799675542451 4.464668154661414 0.7844467756750936 0.9203415460909377 0.7308635843993413 -2.0991967164158942
Ni 4.648638555099693 1.6051466240453156 7.857538383806478 0.30917772624779016 -0.08806516837004832 -0.23229891351186444
Ni 5.706317303150239 8.837643922383148 3.2790420878441267 0.5922494994371478 -0.4941997090505617 -0.0303097067271349
Ni 2.5076622209607105 5.376414341624568 8.888508842506347 -0.23251308640519958 -0.024633482277964025 -0.8475924392526692
P 1.6212281152664882 5.995412318744727 11.125724070727365 -0.42430504094195315 0.5713842259523643 0.6482578964819674
P 1.7846736991635257 9.173756384565317 13.276995347945796 0.10859979798829039 -0.8065735736381463 -1.2156178317662871
P 3.5292366268707744 8.244050983128576 2.5574395489030555 0.3499237978169006 0.08244756507295478 -0.35664311881860516
P 7.168645412096079 2.409128228507284 3.347394002929909 -1.2401484699177996 0.44885753347033663 0.3113595643904573
P 7.820243267662857 6.649715211274141 8.356261679647732 -1.5265251391106742 0.7233562202787026 0.9384917346374032
P 7.087977677519585 1.5583801602685996 7.188247169632545 -0.33724131725322565 0.4446622644420664 0.042430144139752726
P 0.35755754903028814 0.08098192787318509 9.187739845400007 0.32671393535934057 -0.46569877339739146 1.7955322066768498
P 1.404685723360585 5.432857587112984 1.084059830181001 1.0356858618919131 -0.6469142379698795 0.663019113951542
