# total energy = -340895.97952433524 ev
CRYSTAL
PRIMVEC
9.05259678687168 0.00000000000000 0.00000000000000

0.00000000000000 9.05259678687168 0.00000000000000

0.00000000000000 0.00000000000000 13.24939044810032

PRIMCOORD
 96 1
Ni 6.424537516473956 1.8144301082189516 11.358384801460904 0.3627469177234979 0.3741453893684266 0.42098009033377815
Ni 4.613828025593942 0.559543732128831 5.951983809300816 -0.796315386245248 -0.936004449439175 0.38540810676643944
Ni 2.600195521892442 1.6138879283905088 4.626117831188448 0.4587902192030164 -0.2182987425780305 0.5940649553793318
Ni 3.3557162092170483 4.371571479104123 4.81212606664301 0.533749703429042 -0.7166065602596949 0.1606918906978394
Ni 5.114916423555563 4.4287476813248805 2.9096458743676625 -0.11872300246522134 0.022459357444780673 -0.3842901911119123
Ni 7.188920696194717 5.948995547053655 2.956694031141209 0.0911774887467849 0.9246797684549753 -1.3835134393014172
Ni 5.082580547315451 4.446020036270607 11.509891779489287 0.7132420146628362 0.6625686566776847 0.6658966926096531
Ni 5.53378008358635 7.934221001583409 12.45267810798227 0.5378755526719574 0.03599158760326059 0.37135805643127656
Ni 1.9115554206993994 6.436224419112809 0.3142382709924082 -0.018159187407530017 0.07568273554529546 0.19467518962181957
Ni 2.791676052192231 1.4682588015498934 0.3732430977933738 -0.05294261363530237 0.34385882256974326 -0.4547019080662556
Ni 0.46592267992065284 0.02698488619377082 4.721711444268048 0.36411731570846323 -0.30221877843145367 -0.7549975013330674
Ni 8.594807104885044 2.471865907788348 1.1190729801025714 0.4740024081670804 -0.7749418056654783 1.6853635215395424
Ni 6.830564594055562 0.6662738499538362 4.784461330419667 0.1353269295704895 0.5630782771898303 0.07432082220076232
Ni 0.8800002319536392 7.357597734823497 2.3465336085283464 -0.5984872528167435 0.26480125701494395 0.4525118423934723
Ni 7.539138513692255 3.776707229526791 3.794877602088144 0.13391436549367905 -0.39032431312113425 0.14610550824323226
Ni 7.696554121737973 3.842700661159046 12.607934671659773 -0.0020676811623061165 0.6115780245624307 -0.05247030198457415
Ni 8.16650158625447 8.876460553221719 6.727630230124027 -0.9103463825514386 0.9168651575065628 0.9837791457202928
Ni 7.124783046933466 0.5826685909909155 0.47364363984371877 -0.7438016326172481 -0.10493263354934831 -0.2390647714807883
Ni 1.8230753382887466 6.643610362221634 9.234520635441209 0.10420501135470439 -0.8733273821249283 -0.19692233378478344
Ni 0.18329698267351188 4.734019355056418 1.5634550056241912 -0.9216378963048578 1.168268395948046 -0.6692386124986925
Ni 6.340520364350641 1.9739821291405562 7.128967157235308 1.3264953700451605 -0.6686945670697645 -0.3966391995955685
Ni 3.5462371642420747 4.273676695884478 0.44687511071661606 -0.3347630309160622 -0.11968793748165192 0.23437636486618346
Ni 5.986455193157121 5.4848779549611875 5.144658730774736 0.2639031706807068 0.26809124062012535 -0.8431860826548575
Ni 5.586131251642501 2.9517350185420117 9.155276012420298 -0.21473545070680441 -0.6392029853685508 0.7351462709350952
P 0.27878830140778393 5.668618514884353 12.357865734017878 -0.18562593493535773 -1.1248612326070047 1.0101391237710604
P 4.134085651197322 6.118378688243109 12.708961653417793 -1.1582683473125406 0.564475414647673 -0.7356723186418943
P 2.3465508084625166 8.58137305103837 1.3913977273011056 1.16101788503322 -0.37981750005253945 -0.36440810747600466
P 6.225479962542315 7.98673511638433 6.040185071725972 0.1060891157512947 -0.5833514256165695 0.05120763322206665
P 4.654474185817374 0.9470555332059855 12.520965467677023 0.6988150406042287 0.7636047833861043 -0.26828175936437665
P 3.7769063866592885 6.277242711797903 8.145433477415274 1.0534100186445536 -0.4117058641207038 1.0798003357126242
P 4.725165915257193 1.014560748525838 3.726125844170793 -0.36024009214124414 0.3700527073562917 -0.02398607850195224
P 0.2909024866218146 5.736069414622616 3.620647700501445 -0.6987484490323514 -1.0784569343108523 0.42407389876775353
Ni 1.4214930858006163 1.2085397955787824 2.482789676505857 -0.9357373118207175 -0.4156522503629616 -0.014529046854110461
Ni 1.9951652059607863 6.496623345841259 4.7663751470097795 -0.3576813302751324 0.1424455428931418 -0.09090238070852732
Ni 5.80973039585604 5.612863570381876 9.360032176120457 1.6817662911065876 0.5535006608037242 0.3160690540509847
Ni 8.667589984216091 2.2007044192955396 10.07292871079205 0.5209422672517287 0.948694643312334 0.8319022822109221
Ni 2.3153012438542118 5.358512754391276 6.954445762027407 -0.7778592364225894 -1.1023247420673854 -0.1300538540970083
Ni 0.6243883892104507 0.029219067116519868 8.993606589076364 0.7950408904081985 0.012029420360708315 0.38824017689859586
Ni 1.5606858162227772 1.0912000341497985 11.552435364029607 -0.1361144584687914 0.3157818618278691 -1.665733406013441
Ni 3.8460048590391245 6.81789095835115 1.7444544391964318 1.0033213295182783 0.48142466877308054 -0.3036951058666641
Ni 5.381280035674558 7.841558619390301 8.1507201940234 0.33307998678668443 0.5601999272007707 -0.09088798253082413
Ni 5.370317340790241 2.8181277404267235 4.949866760517324 -0.7538433331239662 0.2628094233958958 -0.37779095654081385
Ni 0.7908068049047664 7.316408418784162 6.811922581194065 0.07950030951917277 0.4977727711138008 0.1845689544257531
Ni 5.1439118915278685 4.603480907300983 7.287496234703627 0.2177531544872056 0.21891452178515847 -0.48277089838832987
Ni 8.385981798864076 7.257331171207743 9.268187243430283 -1.1713087254362666 -1.0207991745880678 0.5404335432071209
Ni 4.710337761483032 0.3912115974431492 10.19298153552147 -0.6444683475325482 -0.09843699852267564 0.13854517939747105
Ni 7.931088803045034 7.118799280361597 4.976669689512766 0.2953485336741817 0.9197946724485321 -0.9856416528503282
Ni 7.265741033757313 6.368710151196025 7.24549580597921 -0.6483859374193994 0.1900970833328339 0.007852663275199378
Ni 2.3069185390954363 5.181778904493263 2.6641213403854915 0.8264785400921895 -0.2376874315172874 -0.29032742631050645
Ni 2.453706398343313 5.356231499964482 11.40648034369945 -0.6989104285315124 -0.9427710787390473 -0.024857939583944284
Ni 0.9730636441908235 3.3667603774737493 3.6063382605314716 0.051367555838698634 0.2327043764803992 0.4288463804557323
Ni 3.577839780130717 2.499811274516574 2.4975897672295297 0.698901686780764 0.5913665826115622 0.17762877566249408
Ni 1.0595974182611563 3.480352363773 8.128885330224085 -0.37624546643056495 -0.37731196002186634 -0.13674540718457096
Ni 3.5029476457145785 2.9248216478640012 7.278844667815981 0.2633485837288175 0.02377293404988164 -0.9424021254354028
Ni 4.157993559694 6.808050785486368 5.971951122353116 0.21952310190343483 1.5267539672920287 0.8943808603611176
Ni 0.7621046410730479 7.466002583080872 11.373886468446784 0.7092817444635074 0.49502426183438614 -0.1904953472125171
P 0.24476864213837174 5.615199140390261 7.986149413362848 -0.2728822342508655 -0.31334265625875707 0.8615761551262711
P 8.59105027715838 1.675101588842815 7.95171423989427 -0.14534497592812387 0.20204705660585848 -0.8365058424212044
P 1.904557763271178 3.2117889705995966 10.237433407494999 -0.6898956266274118 1.0969405949373368 0.6087001887940032
P 4.15089632369953 6.2065328771642205 3.908543819682235 -0.39932394551658323 -0.5018983632464001 -1.4353576776662185
P 6.97263605030201 3.908540198643462 10.570165228759224 -0.020528716080971093 0.522498555995255 -1.2212696307354258
P 6.302191668941729 7.910693302157864 10.292497638851588 0.20346913376436568 -2.0072831208340336 -0.3051189827973842
P 2.3906550607138675 8.443954629614826 5.74020554616072 0.208036441420074 0.6277327799454221 -0.1046572684007746
P 6.912182807991968 3.9524724515531098 1.580983549063085 0.19406121018690448 -0.17878885740886627 0.6199004283851969
Ni 5.40578541556873 2.73011839305652 0.4275487215270823 -0.17896163554130468 -0.09193802106189328 -0.3844768532014217
Ni 1.4263814881437462 1.0221106143668945 6.845165527646736 0.09164748640466797 1.1468534206073797 -0.0969293036288976
Ni 7.194750568618747 0.4429091680008286 9.137349154716409 -0.98910030082289 0.3346457886119075 -0.16544174667799896
Ni 2.582886956558989 1.6001189284573594 8.989022353990139 -0.1322439197697916 -0.8055063087158967 1.505476545970491
Ni 6.3786408500301235 1.862092031064469 2.5282092710913866 0.4976994946737041 0.37847049910634173 0.2361972201250061
Ni 4.0631223438495505 6.819701477737494 10.414127425966512 0.44468489014988577 1.2477100843151414 0.13829501105987796
Ni 8.043042269299642 7.058409406230078 0.5136407288671472 0.9607135221500809 0.2213799526065155 0.783167021788748
Ni 7.621707250306494 4.103822819654574 8.184851200235071 0.21420811744842463 -0.46016087429829783 0.4700997306785646
Ni 3.1865412777570232 8.300452863053165 12.372227679050054 -0.7250276944438546 -0.2689332769054465 0.4536513553145542
Ni -0.016489305311132057 4.852282481372437 10.311311651054785 0.34414395791032987 -0.38341678736802354 -0.3573244611563459
Ni 8.734425307362997 2.4761568387339836 5.585015971700512 0.21449042457553383 -0.27603106429249236 1.4123573601163033
Ni 3.6801884410407686 2.65090816990395 11.306778662132235 0.06535204304324874 -0.8171971147902636 0.5583212221208191
Ni 1.2486427999863117 3.3585768298474723 12.478567629947303 -0.5061897915329024 0.6052999048632027 -0.18068247488715333
Ni 2.9647526529298283 8.427904375254881 8.036814987870311 0.4719424403142582 0.20716329478650125 -0.7626933273154285
Ni 5.594921323263202 7.971762121059261 3.5997932329498363 -0.03295434343883357 -0.6130006159415701 0.14546273245291078
Ni 3.101229604272473 8.390689149268571 3.5581503818042206 0.05262739638772872 0.2939100014554422 0.07601183674994007
Ni 3.7657988502240656 4.395922964850455 9.41831641620566 -1.8171256165769094 0.12265807585356937 -0.2995168061192583
Ni 7.283248756223264 6.277659131256762 11.696760916912055 -0.39404315673361817 -0.9753173881061848 -1.5909343586246796
Ni 0.6006624379120997 9.010438987811208 0.1786901160949584 -0.5904011333744993 -0.3101354621753691 0.67855911856867
Ni 4.671031385605494 0.2768954033893608 1.4843425505184842 0.08982354582205175 -0.39680375019789077 -0.018887323822806182
Ni 5.897803111404765 5.572860144540595 0.5869070168743479 0.23199706600072947 0.5164760039502589 -0.222300664648572
Ni 7.844944290642765 8.69828734041156 11.577874066667441 0.24634999228829188 0.8745609974217131 -0.12844125819424976
Ni -0.24860965901650148 5.087007267215062 5.797151812419412 0.7563738128553039 -1.1839294995240708 -0.14137133599235652
Ni 7.953647874598886 8.699889650068476 2.663618015996088 -0.30273608438750443 -0.08415092091730668 0.019936333912610828
P 8.443103685503242 1.6429920275259957 3.5419860647229378 0.32641157362757334 -0.14801455234048702 -0.5878886513652908
P 1.8022091023611266 3.238331184803406 1.3923654499131068 0.041163875832819434 0.04772815931389845 0.7269025428690642
P 4.542882823440034 1.1837628377766585 8.12475191446506 0.3158847059543205 -0.3843452127195639 0.024097921489468176
P 8.61349166495212 1.730892743733019 12.368955165259239 -0.4703576123256416 -1.266874058838102 -0.6685881233988873
P 6.219650090118286 7.680069342725307 1.4609044718025623 0.4069295257779831 -0.11491905533809886 0.4244096848406174
P 1.8529579607603617 3.2679693871578643 5.919973826550246 -1.0013359236571335 -0.1588224415892684 -0.2491008155605516
P 6.92937368956531 3.8016199762828906 6.117932395214376 0.11698596516945658 0.5283012787199611 -0.6786066839771538
P 2.449786623871877 8.526206525336454 10.285872948416952 -0.4256594980873185 0.3805620915280478 -0.3911902606658553
