# total energy = -381164.59242327244 ev
CRYSTAL
PRIMVEC
9.32729988240676 0.00000000000000 0.00000000000000
0.00000000000000 9.32729988240676 0.00000000000000
0.00000000000000 0.00000000000000 13.65144619581961
PRIMCOORD
 96 1
Ni 5.926230446516 6.679335278883894 1.1183264448764245 1.351211641844918 -1.4425881339763864 -0.3928725334642847
Ni 6.400215835364917 4.555303936627303 7.82846233282927 0.4403968042974931 -0.4835085478853028 0.8408065266790875
Ni 5.185549577348348 8.751208361218742 11.89264849651891 -1.9160611520025586 -1.2139872381413996 1.145368351421421
Ni 6.849903608495641 0.3129094521417405 4.824762163117142 -1.0144385224773627 -0.2501534251947821 0.4971006847474407
Ni 6.0151475945549775 1.232453418544244 2.7716397513689666 -0.13674823539804837 -1.4371800755869377 -0.02411180544653912
Ni -0.015605505127873029 2.2035185902989873 3.97875462754851 0.17192889706423942 0.39549557290942855 0.29685442879574686
Ni 3.90352156089923 4.136890599390284 11.158691677704905 -0.43219575654393955 0.06298328570075605 0.8051036739608394
Ni 0.7022337398047364 1.8415913800444557 0.7478507644469508 1.112207805509052 -1.9457021147974427 1.2557859193447403
Ni 0.9844032103255749 6.990932379957861 5.562404198042572 1.2766383373137176 -1.328859242291647 0.21751429900352218
Ni 4.598853098926054 6.444865619028254 12.618509219193419 0.6602785750919273 -0.8767729174713673 -1.0970215846869171
Ni 3.7152406891574064 1.786401747720252 6.805245430262574 -2.1082251451667497 2.4210309550854303 0.9104083461376257
Ni 2.8726217615697416 0.5613047704493053 0.5932190591024225 0.31749781607771127 -0.5949481293152334 -0.31305443559437696
Ni 4.698114222332201 6.328367645776724 6.974346575631531 0.36425538394822427 1.1719589574257558 -2.4117639279612075
Ni 1.041747448880451 3.828959127098371 5.8770429315486705 -0.9229923534502232 2.582510888902204 -0.6219354565373547
Ni 2.5631792667264475 0.4065238283095789 11.813715290078688 2.5180638741717276 -0.322275954192645 -1.0616306067821328
Ni -0.15773583068464908 3.746328579057114 0.3465940622778953 -0.5988052982777945 1.5462868951186337 -1.171287642390344
Ni 7.92591022917376 6.563312997917058 5.87074980244116 0.10033447265570462 -0.31612279010705563 1.047536333472596
Ni 1.472109057033019 2.692063893979421 12.137991922364675 0.9205256370772856 0.2963106404771349 0.9120291695705002
Ni 3.9092765048140574 4.457199398383942 2.713429939401941 0.23725959995124948 0.40024774288243326 0.36448266946768193
Ni 3.6379733384435817 6.217064978458029 1.2320131699984096 0.4519886229001506 -2.291249637923518 0.37431379662549086
Ni 2.1667597021817513 3.2192895095152663 7.963502977884165 0.5239298891251428 0.8653183957775227 0.4514728596059966
Ni 3.9499248769061444 -0.5536293355262721 4.780149688652605 0.7866542090064 0.6376256135791019 0.3235854170326879
Ni 6.277375298317468 7.65962515004182 9.954566201079173 -0.7490983622398132 0.9765535745061311 0.5539256641562846
Ni 8.864404470376513 3.7938231891289145 11.567293628387619 -0.3174363667121565 -0.4114497822458398 -0.9917248829299309
P 4.7462151068844936 8.455700852127073 0.44288164253971996 0.18310111163097498 0.554350153288213 0.39926558147482205
Ni 1.1904152787968745 6.252928445804076 0.5853468181557218 0.1780766618331901 -1.3190191162727736 -0.13410411290698196
P 1.567797824654111 4.272173754237377 10.146342012018543 0.20899520578891748 -0.8081566018545502 0.16496532126221267
Ni 5.893025259584419 1.2860480826197676 0.2725306390109801 -0.32053763134529956 -0.46337603880148587 -0.587495272581614
P 5.9488584755879135 7.5016486750249145 5.620751121315185 -0.11585545110943919 1.228178442040117 -1.1832579273783428
P 7.38074821631504 4.696537908682921 1.6435933274752945 0.3320769994434668 0.13386577164393074 -0.08697244952650182
P 4.329611265789252 4.1494358174866255 7.428884544606193 -0.8110436935943581 -0.6071192174601286 -0.9003327070691785
Ni 4.59751929506897 9.296146518884665 7.16923397375078 0.7634222350616531 -2.7702363866790676 0.36507685140825513
Ni 6.488125635036306 2.7162682367006155 11.593162894105243 -0.1741737272343581 0.7764626131853788 0.4092604879040048
Ni 7.423942941225196 2.5243030815773384 9.484751980656045 -1.5316745445220976 0.33116965713784896 0.2813126244064058
Ni 7.943790662698434 2.556957957826626 2.067102168538359 0.3922919783704663 -0.2196963942565055 -0.6701757796009813
Ni 2.6544468942897956 3.0804619807822182 1.279581465737839 -0.5828917123713316 0.33032402130810207 0.2906750394579123
Ni 6.168199255330345 2.094426493009164 7.464242472308507 -0.19039867373365274 -0.019440368112798777 -1.5001229949680617
Ni 2.3088238039106583 6.253226919394471 9.168338262017057 0.6990222715190284 0.45389998099025053 1.1982276613142977
Ni 0.3060109812837075 8.826451687897693 7.010713717161371 -0.8387941242347489 -0.9939324321042109 0.2695254019634907
Ni 2.6688202631273144 7.641185078535153 7.251552057252091 0.16765932315460805 1.4712996429784662 0.003557635444271292
Ni 7.241174503606002 7.353531155790784 12.133855264947776 -1.0509733841786029 1.144162761149094 -0.601489529978177
Ni 5.719612103564207 0.7917683550838464 9.254151284715915 0.21740991221517397 -1.7403216229429768 -0.3771258121529892
Ni 9.094816754862705 0.42428860331797463 2.536138492166519 -0.9575472086069573 0.6968350340597225 1.8375964828367513
Ni 0.7282167985786985 4.4975306422862324 2.2967328253097006 -0.01136838973794171 0.09837143539206285 1.2788281458761845
Ni 7.557108799040415 7.317975489334834 3.698163336136892 -0.8419406402835307 0.6563751262724631 -1.1698447392962303
Ni 7.533930459286207 6.503282497048616 8.590773210000947 0.8084489362839883 -0.5120277383709181 -1.7853645221152286
Ni 0.7776496215281345 7.359099553711614 3.212908703790577 -0.5402543373167793 -0.44783526285340935 0.3132925197471121
Ni 6.820336068447014 8.439853769936972 7.524335466084938 0.25908800868025056 0.6943536623987655 -0.45819603726244307
Ni 3.8370738778372684 2.3140191098434926 13.23328833155212 0.7460564900896958 0.685653049300974 -1.9877630485232347
Ni 1.362634540455501 1.0458980972468988 8.236955154105495 -0.9394821235751305 -0.15830873517764346 0.37560269064024343
Ni 0.43733096648832 6.286310851429955 7.932390837005237 -1.079722174176521 0.07509780957610293 -1.2847766501501356
Ni 2.456521594658294 5.389257802793777 7.070479322718336 0.47380777565777105 -0.7671310513718078 -0.9169402337188725
Ni 5.897763527831959 5.721906619290378 4.073332513775346 -1.749511259862045 0.8796816064777302 0.11092690345957025
Ni 6.95057315415647 0.4457441908176138 11.225379072369153 2.245742140410022 0.34004356258871116 -0.169994656156004
Ni 4.382711582980682 2.7779683242153363 9.168297221898378 0.8031010417085136 0.8388396327607037 -1.1927846359218555
Ni 6.058892630147425 3.492812573214314 3.038075000026074 -0.439836560918649 0.8013025550471942 -0.026648198715147654
P 8.329353250392467 4.670272232728052 6.9173922182041085 0.8623125190716632 -0.23543051716231067 -0.4886785221220164
Ni 8.795932763279678 8.583969877599854 9.224718990512937 -0.7344451311030126 -0.2664871293577991 0.5028697260207339
P 0.13579242541070602 8.5010874924667 1.0593629870936487 1.1004169835217115 -1.1310671043074005 -2.669778243961305
Ni 9.139447883926643 2.920946501314832 8.155046539061008 1.2941316090024744 1.191826128663328 -0.1916834539833473
P 5.913312136431662 4.904312836797498 11.821674274912597 -0.1975903063860855 -0.005768784162977161 0.5909660047390338
P 8.11441495610838 0.9591355554385939 7.941565168990042 -0.2866270946407838 0.34349526858273743 -0.1826455121507951
P 1.0452451862679069 8.493784216801693 10.640550852076746 0.7593961446213954 0.7073989256184978 -0.3172121665164924
Ni 0.6157071786788385 0.2339324073929273 12.584749057929697 -2.2871307306591384 0.45374648613152174 1.7431444371037528
Ni 5.931052660460839 3.768107823856339 5.4977781366119975 0.8111542510302934 0.6582749143983372 0.9186626157266178
Ni 2.1989575407457447 6.159786031001051 11.458218320237254 1.4199919938434253 -0.520911156903477 1.213416196129278
Ni 2.5515294694012947 7.9423169493458525 2.0167692611678842 -0.263371723657269 1.9174171518098204 0.17706647540112086
Ni 0.2713003681805657 7.358922335017316 12.239217375087616 -0.41843289843189224 -0.678702843235386 1.4228649445158463
Ni -0.1135085736977173 1.5959849243471556 10.571762016790114 0.6635968408318829 -1.024234682632178 0.2851206852985864
Ni 8.03290368403111 5.502976240734742 12.918048919945349 -0.4061772209929908 -1.0002349772834709 0.8848554373691857
Ni 7.968797153193818 4.674488172192399 4.097440785309632 1.0596344022877107 -0.42926007095438334 -0.15403247639979278
Ni 2.172094917610084 0.9872666913334387 2.7456333743457546 0.04640558384773298 -0.5662592460209731 0.5151230894667903
Ni 1.3229468802325017 1.6663314186836677 6.02441053588693 -0.6259144957897608 -0.04164004413828958 -0.5725656478549751
Ni 4.738361520537192 5.950229588643796 9.051208830575845 0.24394781060470244 -0.7036070626762334 2.7092102247046825
Ni 6.9781446520693216 8.7943284677313 1.4396948251159885 0.9332163451710768 0.1226930428565629 -0.1378098438933433
Ni 3.716220055625894 4.814957305672626 5.057915740985129 -0.06510393158818466 -1.3264514041811026 0.9660405907899493
Ni 2.2658529341933007 2.9926920906063263 3.849884923975057 -0.12776634361441222 1.1891156717107003 0.8242193117443676
Ni 4.9457913385628745 8.071472068290122 2.719750117678582 0.43985944373678443 0.3939099735898635 0.06083538611981782
Ni 5.83661375099953 3.8027214330426022 0.008567124774341867 0.3514906280833882 0.5491164156930994 1.400718490325794
Ni 3.3238765210500465 6.7243115180367266 3.9106886579886195 -0.1655042244848182 -0.1837004357778707 -0.5269725326062085
Ni 4.5402310203122935 1.4314327030418323 11.020225115470243 -0.6834773818058938 0.9714383647667528 1.14515057898366
Ni 7.262207564429237 5.140330828403319 10.29321713493265 -0.7223529758251689 -0.8694851255607026 0.15855093309543664
Ni 8.20394770592755 2.423801427311107 6.079207488893769 -0.626564984889566 -0.06646018850576295 -0.7162098390419085
Ni 8.912813155818903 8.655183810808454 4.90490978397829 0.48044225025515325 1.7074834933670338 -1.0087995790240303
Ni 2.367632428518416 1.984252428954155 9.97699555866748 -0.25216274231532704 1.7585849400285394 1.4862804326580146
Ni 2.7815500073000914 7.5845776966565674 13.338008723472608 -0.6235812196708937 2.6781600402670973 -1.6706868933639745
Ni 4.745245067715706 1.971100936377321 4.934629359012026 0.6446830346465156 -0.8580681419730125 -1.6265791044114828
Ni 0.12425828660183162 5.902949506465093 10.43805983924215 -0.585465900856411 0.16972828986849478 -1.125555430460552
P 2.112437508729637 9.158951267599097 5.7729782487970835 0.4934805714963501 -1.5510598910272448 -0.19024929263998203
Ni 3.0074945152300394 9.207303989243286 9.269823013671656 0.6321957008127822 -0.838030506595847 0.2210644782486257
P 3.991990998552613 7.678317058640384 10.329748436937209 0.7068741634632795 -1.4846986899931915 0.5213760123550375
Ni 8.526634966344679 6.667536244763542 1.6180244008080076 -1.9310164877608098 -0.9839179852910023 -0.26975628702737414
P 2.6736051678733537 4.766455347233237 13.26576505637714 0.31080112078382605 -0.14110265571200215 0.39420127957803724
P 4.109850757560326 2.1718990443163864 2.8709670986029825 -0.843434708330554 0.4710718647838467 -0.43859677497427685
P 1.6085394697431972 5.38349353157925 4.072991134606331 0.13138388576234147 -0.6734642205442659 0.5710530678651906
Ni 8.133992958178434 1.5972627644060395 13.167065436412926 -0.8787598659944091 0.49139257861906993 -0.6005891296510947
