# total energy = -340856.61119322636 ev
CRYSTAL
PRIMVEC
9.42045340266855 0.00000000000000 0.00000000000000

0.00000000000000 9.42045340266855 0.00000000000000

0.00000000000000 0.00000000000000 13.78778578882722

PRIMCOORD
 96 1
Ni 6.489034399520931 4.144547318528438 4.598240122923593 2.7620906176434814 -0.6918740905100214 1.7445544300774019
Ni 2.2386106051202592 7.754860724189681 0.13196265340918603 0.4693078309048885 0.7354949125237655 -1.239611366467407
Ni 2.9308349421224507 2.546602908898782 7.840300468434794 -0.11328331950688877 0.02295995123028304 -1.6889967474167558
Ni 7.5926876187407535 5.680297894746893 6.5558715744178 -0.28110307949876107 0.09770346279076077 0.21312311191436198
Ni 2.3810478606757517 3.204037511458749 10.0060438664306 -1.082897486580709 -0.6373664463804443 -0.7574346500196503
Ni 3.9432416496153877 7.343234012450447 6.423660221038596 0.8459052813582335 1.3228616299473153 -0.99689382872538
Ni 6.745289573173081 0.568768353022014 1.3473028841643788 -1.063168383582898 -0.8015398678689809 -0.6521050381421994
Ni 3.5059536227879806 6.174881119212428 8.258221927142428 0.001560145398268281 -1.6426379576465582 -0.7352835678439078
Ni 2.223443675130554 5.490645326701709 13.49866943173446 0.5922435858998769 -1.069882819488596 0.07741205953157636
Ni 5.080667194309181 8.130133906220673 3.2737582871443442 0.8838169688023423 0.4373688161044467 3.5377225073974494
Ni 0.5972416734529978 8.48406976127857 2.4198252730463254 -1.410603867760306 -1.3664644542389304 0.7361384596450354
Ni 4.79450208108106 3.8431681730435625 3.4157725643417387 -3.494489407740427 -1.3591463233109624 -0.779164071276942
Ni 1.7302169959560225 8.29891074950984 5.763625573337538 -0.8299772972740674 -1.772628819716115 2.383124924068276
Ni 4.243085261194473 8.86364809051782 12.479766379570156 -0.8984167209933881 -0.4047055215434707 -0.3873652304928103
Ni 1.3472849853029003 2.7383562380543407 6.123941901489862 -0.1510361127756302 -0.24950499297750575 -1.5701822136789925
Ni 1.813456122284616 0.14317205092145324 12.609964582055694 -0.3795909858640301 0.17222945902379372 -0.29734679505113304
Ni 2.432238604504359 0.043155097070086676 1.6698799339118842 1.1921223197475082 1.924696459080053 -1.3838476827123845
Ni 8.734936435580341 1.0772100064986403 2.147681562673283 0.2796342082627184 0.15544118382186134 0.2028207015470894
Ni 5.785213484371331 0.5175710148760198 7.92706661252 1.5451435255428099 1.6561668453709282 -1.0094320704017068
Ni 4.788765024954519 8.717753528560948 1.2707390911219378 -0.5976493302964804 0.7666250582696669 -2.803878243103229
Ni 5.563229920223869 3.186958229426864 11.728387247426749 -2.2224224918474755 2.5870982511625704 0.8479873606982428
Ni 8.82948010600064 8.362941571335943 4.800879728039464 -0.036149196227047424 -0.6126692007440803 0.8756732566492855
Ni 4.325928728479856 7.9391153724310755 9.506650558454043 0.7938350430255555 0.39801988199317906 0.683587425021197
Ni 0.6000338958436492 2.453123749713786 8.295779390796438 -0.45381230637245074 0.31115798990261245 1.1309575753127297
P 6.39456609272791 8.186260967635992 5.632255466447826 0.1955928163400825 0.2610335624423956 1.0875462982066302
P 0.6136294942046073 0.7377383156060808 5.2639421153959605 0.07694694696969974 1.1856264276105193 0.5637621906307323
P 9.307841309694577 7.331863525184873 7.085212503783968 -0.5489073850060869 2.413142553476289 -0.7035620683709108
P 7.7132882632924336 8.754286046883978 3.0381800666812655 -0.46191668064714 -1.0231733312471993 -1.8531984510400665
P 6.231215430602763 2.6679571897232432 9.939821847141387 0.1536187859011419 -0.5973048024728681 -4.075066870156285
P 7.177368089264894 6.459538959894989 13.112501495335085 1.2472179751700714 -1.0754523431565737 -0.8591410633222171
P 0.1131198624989945 5.9358747957535405 10.951155564990955 -0.9284047827150463 -1.2343637449152225 -1.2020645185618846
P 4.478474130544016 1.4495157457055594 1.112601707913748 0.8461659912187879 -0.27929867930017055 0.20050825136382885
Ni 2.5745157123518854 5.066734343716154 5.854983246414657 2.720300678190889 -0.16370239538938905 -0.6364408492423813
Ni 2.1991954280538453 5.474489249103979 9.985045675780256 -0.8199260836856525 -0.43757964656367215 1.034619882521244
Ni 4.862677902407454 5.196925009838965 6.130077442795635 1.166694880813339 0.4282136319677399 -0.07372458337766012
Ni 8.482392920571634 6.010305798144012 2.700062094943688 2.357030026753437 0.2937194827111909 1.0887709146423508
Ni 6.558406618430365 2.252675342061023 2.920294396802276 0.5345179490536343 1.5691167485289557 -0.9093637069231952
Ni 6.297469479433568 7.755039712804467 7.936677359088631 0.3861460133737285 -1.738981821085631 -0.5090591426608975
Ni 0.9826569156249315 6.590963705414478 4.253973421245468 0.8536998377019878 -1.2692965522366657 -0.7513231378052738
Ni 8.774784953503604 -0.06563700913246648 11.443434546552464 -0.27497614066541676 -0.5314897037502718 -0.1878324556683733
Ni 7.988657536912976 3.6787529996831125 8.859038662664426 -0.6679579460140561 0.7300480304765814 -0.05512470888828571
Ni 6.972708738937971 0.6729934234115181 4.618867147709592 0.48319564463057424 0.2031631724881727 0.6281187025299312
Ni 1.7624066852571547 3.8886030198388104 3.980119898578555 -0.13192047499210183 -0.7079766524988388 -0.9501529730254152
Ni 6.703886680437209 6.473745003636899 4.417372127683006 0.7411333417564656 0.5706753728107977 0.492286808298565
Ni 5.171075285682597 5.8210112073284 10.900251202946002 -0.6433031235798533 -0.09351642129260669 1.8971182923514682
Ni 6.17097163104738 0.902155373057213 11.309142215015045 -1.7283191991654623 1.0462117011239014 0.37193141243624334
Ni 8.207212056019287 0.4849244335845145 6.688813012936261 0.18299029708472356 0.007756761127283415 0.49139746371507625
Ni 7.947989439543065 1.3193156591293385 9.03232319291016 0.058607268120247455 -0.8205089527723158 0.6097864798796465
Ni 1.317139534391685 7.2500939895882 8.997122726699272 0.022363198186548583 2.0193660201404966 -1.421842931009235
Ni 4.371862859305821 3.7974507126460226 9.419787383698717 2.793751953302505 1.9043500342132171 -0.7008773224498962
Ni 1.681381365479854 2.2972246662357536 13.38716800313126 -1.551524232258173 1.1300620600816538 -0.7514969443789767
Ni 8.986556746154891 8.81831686871008 0.1625706485828203 -0.4007100272308325 1.6612375750256163 0.2896399133251786
Ni 6.090266606686011 4.43453713584092 0.4270696610138464 -1.0814648678992407 0.6604968617503205 -1.2422398052291896
Ni 3.979887213379334 3.218300077921118 13.51724185563179 0.016869264951512884 -0.5895218160933395 1.2122234613727576
Ni 0.6546612210761352 5.520922663960661 6.539463970714031 -2.4174923458045527 -0.7849493105001514 0.17300901750229558
Ni 8.354039242863726 4.470824722375295 13.217771294007733 -1.2504459951890659 -0.23180911835963947 0.0977461431032381
P 3.642766867657849 2.7175087746585533 5.252263579303888 -0.7221357176080402 1.6389036874151064 -1.8459461403530275
P 3.253796346369074 7.245986671901548 4.4027572362631116 -0.7874587071855664 -0.1733759139234111 -0.29596148466783223
P 0.5935629863964886 2.665046269619629 2.1693702725585613 -0.5838317076870977 0.7179630742875893 1.852873977821112
P 3.8503465585417955 9.112018344666005 7.698603660517309 -1.2847694510612842 -0.11431176077140313 1.4441657628761515
P 7.075966328762294 4.5814020044989965 2.1717140813669085 0.137725254599337 -1.4538989310035155 1.8058307603893802
P 8.754681705927187 4.776961196832096 4.874147304433832 0.36330613266107753 1.1135005561785467 -0.44317539548389484
P 1.0763150634247136 6.613035827753534 1.4760785981850448 -0.8862461470691252 -1.1371680749988158 0.47971462806050924
P 1.8698657973022277 4.45297296316381 7.919208070285582 0.5744402391698687 -0.5206283355557356 1.2130755249604075
Ni 4.838410814423927 0.9951861186599054 3.985662893364855 -1.5432447658582005 1.0894707689228527 -0.8190881611653892
Ni 7.811260978753883 2.5451333181668603 11.312326328267542 2.5908880572223056 0.9166152462792859 0.9784104252092117
Ni 6.547620199276196 2.3074929604523864 13.49238222112879 0.9128598930019116 -1.3215079441328983 0.9273755701195834
Ni 6.519594350382176 8.559254399941823 12.834746020865852 1.1573041836270583 -0.2567588463264417 0.5697996550740638
Ni 3.2933151484229954 4.426265977747155 11.68174281441369 0.6937571664653472 -0.11469459803211861 0.3828992243016567
Ni 5.433717526746561 5.982440096957958 2.594434319041471 -1.2870201947686737 -1.750191059537889 -0.4085336370403093
Ni 8.757074501093264 2.7694343138531217 4.173287237790918 0.3732267342088991 -1.0125487616538174 -0.06896624275706832
Ni 6.924984721964154 7.123143959438345 1.4707569840538743 1.440691945394938 2.5485820973652427 -0.5068014569749724
Ni 7.438418273702609 5.263537035899341 10.824776414317729 0.7955741372038492 -0.6023097118866272 0.33747991562659296
Ni 1.232016317381141 7.562325497401114 11.343004976841751 1.387579381840675 1.289771789371882 0.7236318425375925
Ni 2.2374047870838107 9.33852372645015 3.934054823450195 0.8667219609932687 0.624683451596137 -1.476759894762089
Ni -0.03057879176806404 6.740626448735252 13.230607603823865 -0.31107340060860617 -1.2922395341860842 -0.11060602978504178
Ni 3.368603412073756 0.7409798936243774 5.889797474035747 -0.5685516415995756 -0.41078643763022804 0.9111758204312695
Ni 5.039546915175602 3.027752566802008 6.824016302318402 -1.4148299900265118 0.8902992340925764 1.4380894747750848
Ni 2.576795462077046 9.290893914010429 10.263186446793947 -0.7625187494107771 0.8815801090520238 -0.17697751523174035
Ni 0.7088504952250677 4.401216992130617 1.0437777593927615 -0.4846223497747718 0.45380459306296683 0.11331777228925001
Ni 1.4647863006827717 0.19352720053261552 7.808767384736322 0.9238999528661572 0.42503883378418406 -0.9188184245781919
Ni 0.703692796983227 4.0484210119353 11.80875596160139 0.4217367659941446 0.3124998486424876 -0.17368650318529444
Ni 2.5407904891449635 2.471531315676446 1.6700316032117812 2.4142008195374745 0.9684867383375966 1.1469169268554633
Ni 3.256763789193147 7.134184730834578 2.1731620050559877 -1.1300093524668475 -0.8414696141843832 0.6191175274725854
Ni 5.211828167133197 6.674268774916939 13.77303260093084 -1.7656978969242365 0.029449929830000894 0.33726342874041265
Ni 8.526056722125848 6.47835160535427 8.793656947819365 -1.495225043445812 -1.0478988590183371 1.313427481117609
Ni 0.9062240668848861 1.8790601598301484 10.777429215480302 -2.1270114246353176 -2.2075239774690885 0.8655788485277609
Ni 4.200372925434645 1.4190028971113633 9.251177282434902 0.5427498500451233 -0.6190514501213403 2.1286083368087922
P 5.545773820055594 5.7494911250415415 8.940275942643447 1.314623558308239 0.5957235740286773 -2.370747633449846
P 3.7639138985072957 4.977550911286005 1.7013715676153534 -0.2806132843465361 -1.0634900285883748 -0.802741858596882
P 3.7273813801842666 6.555128300643771 12.288543421941565 -1.8392718136566453 1.2301160253824621 -0.5216873729478693
P 0.31330355541094274 -0.14344053384363126 9.499426012734103 0.22827385151287138 0.3858572784887161 0.9346577056032935
P 8.97045719127762 1.4918324224221777 12.927979306216855 0.41914920777262654 0.1393278231997665 0.7567533076819096
P 6.844543470298258 8.625602653306727 10.564973497911465 0.11204764732757477 -2.3030430310140204 -1.5954854683304716
P 6.748021504661909 2.1673354546220547 6.435573326420573 2.7982812086314257 -1.749620788856716 -0.6595956900922899
P 3.028327214460003 1.8847124318760011 11.61411337938506 0.5244615932588967 -0.7438561400042673 0.42790227137490827
