# total energy = -340866.05773534137 ev
CRYSTAL
PRIMVEC
9.33079158039559 0.00000000000000 0.00000000000000
0.00000000000000 9.33079158039559 0.00000000000000
0.00000000000000 0.00000000000000 13.65655664877473
PRIMCOORD
 96 1
Ni 6.445356364099427 8.343705943659433 9.44275750884686 1.3210317758274281 0.48103977462983605 -1.2506447414634332
Ni 3.4114680913308026 1.1393549870303936 6.663689426188593 -0.12502091965879114 0.9732553633708335 1.067929295306651
Ni 0.11656118349875422 7.938068434334232 3.9752737176038413 -1.7189128182498978 0.5078962327010479 1.5160147264976538
Ni 6.039354953896355 3.3798460381229933 8.483111704575915 0.6171516619954662 -0.16401298465127237 -0.5332663360347204
Ni 0.7853354176124229 3.9022490752860604 9.186042234934053 -0.6977919986563531 -0.7740444906621895 -1.0690739504340554
Ni 0.5562280903007569 1.6003520837506768 6.257981002846164 -0.9633036514747603 -0.5935862159707003 -0.11615549884836125
Ni 6.470222924087274 7.099930066263563 1.8363156768331006 -0.5058501488052966 -1.5627823216704957 -0.30647446838401415
Ni 8.11085603578074 5.255344508711053 9.179336194910315 0.6244901046384084 -1.775040514481401 -0.754434686851062
Ni 2.7576968372563306 5.373677609561286 9.417001724406164 -0.1899775270358341 0.26379518434793275 0.3734439924260278
Ni -0.07299758302173404 5.560480060201695 3.2604482939351938 -0.5235272543700854 -0.741538290504368 -1.149523254130059
Ni 4.724590412940435 5.628846771282729 0.7052576298181641 -0.3219717926886648 0.36600939052485354 0.30943226546075747
Ni 3.938424554863127 7.2820857826173135 3.258126792950212 1.144634815689506 -0.6775802995951686 0.9369408452105153
Ni 0.9240329714358178 9.037552948258408 10.117883212898137 -0.8692578400412448 -0.7422314599166506 -0.17511937897707905
Ni 3.335244853604454 7.150698904122428 12.859137328949746 0.5586791196808701 -0.7441191638576669 0.5349617214592722
Ni 8.110436150152427 2.9537647640948386 1.449001976327462 0.0975653945509997 2.0023008371280935 0.04401728612121451
Ni 3.1314976851636955 4.314567431497302 4.350774635766285 0.3838405051690034 -0.7176709969684673 0.009101962301268196
Ni 1.2393810744861973 9.540361322766886 2.4779410392992505 -0.14953253164691022 0.4318995654597594 -0.37028230686859454
Ni 1.6107932397080504 7.080382057567677 2.6860671483037217 1.421599190429545 -0.13955433738827577 -0.9976168229343336
Ni 0.6598157409638256 3.995211753394472 5.1386069732484065 -0.6624550139179559 -0.2701452949356767 0.13187445224551483
Ni 3.7426925365272696 2.832791049182106 9.58027938291098 0.7101101539020739 1.3022056442598604 -0.44431285152244776
Ni 3.405179137697854 6.574727791578412 7.5558586769105265 0.6890769873808584 0.050920698109267144 -1.0287528822175056
Ni 1.0436117329833785 7.909133649147623 6.630053788123229 -1.008698277559476 0.6420401977070297 0.5348701901867304
Ni 3.3967814251316018 0.34397310595121117 3.6086771739991472 -0.18173662718328054 -1.5125331957069563 -0.01889298024976101
Ni 5.830550496332365 8.668380173054222 4.894455610413888 -2.4747438712278544 0.6327256051743232 -0.2568969145662027
P 3.1148515526990357 8.107702228172526 1.5487220138141846 -0.41332411645041717 -0.1994769818858371 -1.3928480864387818
P 2.5980189982049158 8.647656484599061 8.107706893568396 0.6138573075149105 0.5133780817512255 -0.37245231793671985
P 5.479395479978661 7.666299794106831 0.041898987230554186 -0.9158778538926291 0.28894494414068306 -0.4697356624709265
P 1.6476871902491184 -0.09093416398407465 4.86777047911586 -0.2899535879108555 0.8011405755480331 0.06273748823853711
P 4.658966954631044 1.8075889683023 2.551769062785869 -1.816477184359633 2.654984630591898 -0.7927973457896604
P 8.40958133334581 2.95548162977505 7.6166170604065355 -0.47542988464222635 0.24707941425514865 -0.0024903705220215176
P 8.504494146927941 7.72685663250125 8.481267940128035 -1.8172662559198316 1.3116320797800831 -0.45378916644399914
P 7.463047157628308 8.724682170415074 2.939396277893981 0.312126781573785 -1.1527862411520469 -0.10306087044793219
Ni 7.28562215268688 7.547220229917375 6.437386934874055 2.172406307830349 0.37348307319407936 1.4196310109595809
Ni 4.464186677052695 3.2243950477299252 11.896117510385515 0.6490847632586371 -0.10723891308502176 -0.4178672557364094
Ni 7.975251639419249 2.038899295543846 9.533273653360972 -0.25098594839840643 -0.11448788133795122 -0.35401262317429355
Ni 5.84070239774579 7.797117494305559 11.620255451821654 -0.5179531027164177 -0.8852863542590174 -0.5214644583037857
Ni 4.811506738001144 6.7158746782336305 9.55937094477936 -0.9670492345601218 3.1502253793124653 1.0124646865804434
Ni 2.3760861166623513 2.7245072110361543 2.1028907983778615 0.019724989232753124 0.4357755034753979 1.2074394097205527
Ni 7.032655057816144 -0.09153693313049675 13.031073029110367 0.2386276839433697 0.23408325910579686 2.4322193676020825
Ni 2.050488138885274 4.055973869207176 11.139107577259063 0.3074496878130899 -1.149881408800426 0.6917257378576152
Ni 8.129303011051274 6.864234266904086 10.770789502578285 -0.6352059483940157 1.941708163146701 0.9009060630741452
Ni 7.859195251753643 -0.015879141383608835 11.002978790401766 1.024668684845803 0.9909252698467709 -0.8397122651736442
Ni 1.4821029600261062 5.475765801991691 7.324298284450341 -1.053433158573005 -2.121939923649681 -1.1236258175380067
Ni 2.3503704546261392 9.103288376068683 12.115455498745108 -0.2608687547297572 0.7027352015942413 -0.15005960779497385
Ni 5.452000275429198 9.276766456103973 2.3014304519483697 -1.6767464692944931 -4.004088482065195 -2.0955681185243713
Ni 1.1105415021364085 5.744072718483449 0.7573271800456237 0.03181354496617102 -0.21202627930575743 -0.34465817854258707
Ni 5.564604270150899 3.8120389807410318 5.675487666875693 0.1284152900523208 1.5216487848549796 -0.17869166970936967
Ni 0.7354091502477056 6.581352653714011 9.154004028414628 0.8708159285569841 0.8683810938632465 0.7582314348893329
Ni 6.299142857529237 5.671133919449678 8.07319696031697 -1.7805519312179334 1.4416321978210203 -1.6009518907616815
Ni 3.41403405905938 8.259579525329066 5.9061196455577205 -0.4604953748195811 -0.3691127120405256 -1.8843327105510257
Ni 8.06089897680328 0.5055684227052537 7.370579944561305 -0.8092984287684772 -0.3453040396567021 0.6580070054489313
Ni 0.30876709563595994 3.8046863168496907 12.9722675803256 -0.3267787271590049 0.6012645584515645 0.6188596458255083
Ni 6.173261146161116 5.151660750893059 11.049970523764165 1.185268015829836 0.21071938756887582 0.273125203499607
Ni 0.07602075954558482 0.7581510889562905 12.927760636803638 0.517303899168193 -0.5027985064631663 -0.20992748779519974
Ni 7.8987204855654705 0.3151894795907948 4.769129081154314 1.7247960165035519 0.07870969529707735 1.6653829646525578
Ni 7.21169428972864 2.635650081293466 11.832669059630785 0.09228923375372491 0.07697471488384164 -0.8310625599184462
P 2.567386008921576 7.484769240799681 10.500827303631803 0.17754958568512647 -1.1789047926159697 0.4054691391823727
P 4.779474129956762 4.758199924788924 9.569190670006831 -0.09870979256808807 -3.178546080634029 -0.5359305131304447
P 2.5633830992649957 1.7391382800956046 11.005819083407507 -0.5486667297501906 -0.3387446412716295 1.0428476697476747
P 8.585149510730924 4.847504932535146 11.257960403209228 0.007777072842257574 -1.5977770925781256 0.861966191475838
P 9.518713885929438 6.144904870062405 5.349519256666526 -3.782784634112253 -0.4794616315094387 1.403847265762763
P 0.6731345130939016 1.9945593731940345 0.9976221266538856 1.5640398482266806 0.1239639391491865 -0.5774713126867087
P 8.888932097419225 7.957429827195313 12.693209725590691 0.4683362110202386 -0.15089521632239172 0.06943752596653202
P 5.502741120912842 1.496929588101411 10.798962895158889 0.5905474291443765 -0.22299589094338368 -0.9250338093602842
Ni 2.042519642739075 2.1601062802500857 4.5176577121995445 -0.02914988209107883 -0.3564418014410764 -0.3240104203852484
Ni 1.8988627731057208 1.5241101844408473 9.023596883052472 -0.7964925352530605 -1.2686036399346992 -1.2430131930601045
Ni 3.885724243114024 9.094582747375002 10.037664530148602 0.16117808630563857 0.25576845738871434 -0.033596090787890526
Ni 2.452803886350935 2.079115007944454 13.119348850527636 -2.7381284504009296 0.043748348730544014 -1.5645116456567765
Ni 1.0841633538866364 6.343958650257803 11.579325933852916 -0.23710121999651423 -0.11898114122261444 1.463519741922731
Ni 5.061767903267199 8.171916736929134 7.55961432058599 0.7746353301686529 1.1990640411726639 0.08453170129549313
Ni 5.760186995818912 3.6876781884265775 1.862468019922758 0.044980164255116084 -0.6092090101096218 -0.3242263930507965
Ni 7.591541490683706 5.023418349214648 6.185955688323768 1.3258790766174005 -0.28395134758083357 -0.29759722049904236
Ni 2.125349081017542 6.285687855839752 5.146268486346351 3.023899367689005 -0.03323587923499438 -1.1663500958794106
Ni 5.061394671597589 1.2158301561337301 8.582940912325999 1.5042655563815255 -0.806984693033636 -0.8312744188189362
Ni 4.790447141043332 0.5342410126439607 12.725507328120498 -0.6847765602332916 0.578407451347733 0.08728072479554001
Ni 6.654655353625652 1.490827250303268 3.1759551754894346 1.9050406325223384 3.081982387874666 1.1848512400073916
Ni 3.717144828742382 3.999531909970222 6.937735712679795 -1.3488955921172319 -0.2189651725174358 1.0071941822101236
Ni 6.9416611767649306 6.7894293095222595 4.13420882563273 1.2767584078313496 -0.7775373343067964 0.14025907676478425
Ni 4.5775557966971 2.0138367889294533 4.737555548063553 0.542808985417833 0.18472193506384962 0.2336114616757009
Ni 7.200086784803731 4.187584686703829 3.7453378159856388 1.6937355476533218 -0.5473809210592315 -0.0639217383546254
Ni 8.317757011829713 0.7556401728989811 1.4160344229507043 -0.851770739000075 -1.8220672768529007 0.27754210162038007
Ni 5.240042010256993 5.227548080116758 3.6217869363942405 -1.4006773526752136 0.5527298440759707 0.19951451999199188
Ni 3.8828410284662778 3.371550964265884 0.47846713809560987 1.6822630282373479 1.1530832035671754 0.8985231646642654
Ni 8.760885642367361 7.640229561984488 1.4110228547069996 0.7459199645118315 -0.17103312472284737 -0.4153558021684653
Ni 6.651352253349593 4.616045312625755 13.23645401918485 0.6713762276669858 -0.7307046902239738 0.9541104150112666
Ni 3.2996572139070253 0.7652667507374281 1.0552994827172535 0.7337367921820782 -0.0461261049341012 0.5300658268195516
Ni 0.367478303424151 2.283664624474876 11.234880689839645 0.24075398625775313 -0.7303159394259874 -1.4665096777889906
Ni 7.492896360405464 2.509777700717086 5.498253010085767 0.3660387011008922 0.29103525101080846 1.523117913201338
P 8.717805376902486 2.3395840593743755 3.6607224641680816 0.6099479451581753 0.6681260961608041 0.5214480032435536
P 6.434821900224652 2.1398491313819377 0.09016997214054571 -0.48457504147660424 -0.09518172481017156 0.6388057499301322
P 1.8837188981112463 2.7886843966258015 7.330102036912796 1.1299579304036216 2.347826248766982 -0.2898813399120233
P 5.486710820703041 6.570612912420948 5.954149896040812 -1.0361093225825768 -0.9311124114541963 -0.31323312726408636
P 2.6106622210129955 4.795625730459188 13.01771693381333 0.3513116793033627 0.9938871806885722 0.8975867688929251
P 5.946326960245762 0.9972656904094069 6.316266726530999 -0.23601132936644514 0.10952925178109522 0.7785601191443559
P 7.632401027714393 5.089555001069754 1.589364143397323 -0.08406761717488102 1.338083331993076 0.4709949887993244
P 2.45063914266719 5.093996457938128 2.455531276776619 0.16882788954141248 -0.747046621917107 0.14806931683782243
