# total energy = -381164.46106643946 ev
CRYSTAL
PRIMVEC
9.27896736273969 0.00000000000000 0.00000000000000

0.00000000000000 9.27896736273969 0.00000000000000

0.00000000000000 0.00000000000000 13.58070666777265

PRIMCOORD
 96 1
Ni 3.2369120686467663 -0.05378367815842398 0.9519441016092627 0.900909662618571 -0.7946387698737734 -0.811907327146234
Ni 9.108169348474348 1.1354950653487255 10.07961412776036 0.09046040807510226 0.6915920404932282 -0.5468258198867099
Ni 6.891591082021502 6.671892973269883 9.149091450058856 0.5571395431078922 0.23425655145886753 -1.1813673952238495
Ni 7.793979930870749 7.247458035894122 0.464701817122589 -0.9535547996181126 0.11802340529503545 0.5856510202840236
Ni 0.19189275534176478 6.40389783972407 12.11104359230476 0.8113041463445964 0.36172696109941577 0.6755833237697978
Ni 1.5907490379669054 1.2210657017852427 11.66793207629478 -0.43749274327682075 1.074979260174897 -0.3555498857544263
Ni 1.5975690789320798 7.385111515783056 1.82665935838431 -1.342833445083552 0.5146253238947653 1.127880736159619
Ni 4.511508132783155 2.91866204820655 7.000881542565877 -2.4364375194484875 -1.6091714504579966 0.8705912141406877
Ni 0.49245428041883493 4.853939142006018 7.144945860962074 0.28828262796633575 -0.445255417941375 0.24084243220650137
Ni 1.723011437854795 3.681003443603579 9.108470914911585 -1.2940912426828421 -1.5783732341302172 0.09754045485033523
Ni 5.793722229072481 5.560430433227011 10.64492407572513 -1.6812484709299045 -1.098938599203972 1.0670003557344785
Ni 8.600145888823587 1.7137974233263347 12.253844115354758 -0.4776613450759064 1.2716115735230873 0.16637094336048763
Ni 9.119304109233818 7.193046171649518 7.244030385373667 -1.7340170208811878 -0.6890412490469165 1.0427435400696428
Ni 4.912953374031203 7.2017591219438035 2.7172824766977186 0.4411830476442144 -0.796509504533925 -0.8038348345507447
Ni 8.87297536433247 4.684356735639309 4.893780243900127 0.17376157939760398 0.7865246254070712 -0.46005211663457546
Ni 7.285427570083912 0.8185988462375147 0.428819122678471 -0.886285227837177 -0.2399417747691029 0.3620308654930797
Ni 2.926261522424888 5.673132770047434 2.7263535951297655 0.6184845218742767 -0.43794191499909735 -0.13904165941791538
Ni 7.6275152575166905 5.030146731024611 13.008863477655707 0.8425337937828393 -0.06925009254607428 -1.0029210087560663
Ni 8.024274620278462 6.799738584723184 2.8026369131961557 0.8001797542966607 0.6725242252284999 0.8895633843678163
Ni 5.624028475098177 6.041368587330366 13.122086364541634 0.3171964827872086 1.435579049648405 -0.003908333915470689
Ni 3.334591757409206 5.027984731643815 8.668157935439151 2.575116910430978 1.2012106552020216 -0.445183169942543
Ni 4.81681399384049 4.069847847258827 5.186335875991139 0.6961094687476076 -0.0685515238171529 -0.18686160711467173
Ni 8.691914875416208 8.085163203698157 10.191912829503254 -0.09485236649521082 -0.09416228240672171 -0.849371385529963
Ni 5.583971173265988 8.496147223330148 12.055851366910264 2.310619814920014 -0.789067446433583 0.9685281330984934
P 1.7115611922071414 3.674443213722792 11.96308117974602 -0.34898200272892155 0.17008490187696512 -0.13082441371444567
Ni 5.626951349797538 3.7558104779726103 12.25133229890677 -0.7438533117907898 0.03692078428574932 -0.577883974744095
P 7.556531157675077 6.516553781707994 11.32169205099545 -0.5976457307520545 0.6414609281647919 -0.12097040373850133
Ni 2.4678990957613562 5.598761847141482 13.041335223720507 -1.967395540610476 -1.853959240465491 -0.5787851464021257
P 0.9210868958545848 5.206307925206707 3.016655366063715 -0.8643223504128406 -0.595842873215361 0.5194602833895634
P 1.7680608240941456 7.934908886216425 13.394732116497986 0.3430496964048866 -0.265251200068169 -2.1230593819661046
P 7.6000587932773005 2.729630926379969 4.267791417176633 0.35030843484982893 -0.6614178309026932 1.5994704211201487
Ni 2.2170422148178246 3.5629471426513115 1.4455712434947616 -0.59523326465582 1.0578623979889525 0.7619019417623846
Ni 2.9124358611485475 5.576195398668959 6.459649586846729 -0.7668919387778083 0.10886847826864475 0.07104240855980667
Ni 1.5301109866642981 0.5706175172601158 2.169015207972046 -1.7433904916762877 -0.38250455996639926 1.6494210420066624
Ni 5.740386725034625 1.3220208660044261 11.072132369680398 0.24407199488739256 0.5745451401788493 -0.5878197458005682
Ni 6.8365296900659285 3.217918022584573 6.537086280548454 2.205993913977807 -1.8749605253075061 -2.436537792471778
Ni 1.317585519635238 8.6627418022264 6.582487339648459 1.2421968678063962 1.6161414540179262 -0.49773086213227186
Ni 3.3932905045462056 2.6503607087398513 13.059818926581224 0.04365810300958287 0.1792316013732397 0.008690071574830194
Ni 7.352236134640725 5.4798333232630565 6.895467834559257 3.6371362680110977 -0.3756587406891595 -0.20233244905676123
Ni 5.352451660174735 6.024954094177449 6.665437595719581 -3.3199004473455207 -0.11237494876000646 0.015017813565070912
Ni 3.1160813564719314 0.9133565881973237 6.0252705069623635 -0.36438728154039823 2.076698278203062 -1.2513685070033351
Ni 4.194575725699477 6.097543455361886 4.620224225251689 -0.8801418339436003 1.0761938493082885 -0.3527908349520505
Ni 1.2486520715668266 1.7111621966132602 0.3693502212556083 0.6824083171114311 -0.28961908738957215 -2.0941231585477293
Ni 3.03772047762717 8.191611516558678 3.7097060731513 -1.4934571529121117 -0.6243422662066345 0.8162542912610201
Ni 4.3070832042066085 4.7375994500041685 0.8033256660624433 -0.33809415217182415 -1.136354835068901 -0.5003127639268351
Ni 4.9251644949974205 4.1151199287133675 2.866017827232512 -0.23404289278616466 0.8859795236713001 0.734200104971742
Ni 1.8679303491392807 5.783988592375246 10.575825462038786 1.4506346584299468 -1.3209237894946542 0.1430906326763084
Ni 1.7879734879189957 8.104611919158028 10.91299436890607 0.20838945388411853 0.8562639988847381 0.4261024991620081
Ni 0.15034061187761724 5.677976390977803 0.9659005963245267 0.7315636957901595 -0.22257782956935862 0.5013599742444269
Ni 3.7979926633163976 1.8575657426656755 1.978722146592725 -0.18882387304736514 2.4312423484007937 -0.45649705229346543
Ni 3.584047514290505 0.3610826613917027 12.26700447467572 0.5714127651974547 -0.5693617962056968 -0.5303769303020673
Ni 1.2719886743252133 1.4132702304282727 7.671048460499294 0.35707789236317855 2.67779725761104 -0.13871692908864497
Ni 4.748390888973554 0.25171147383182085 3.1473292067499203 1.5281981559377231 0.2564066051933455 -0.2467217738054138
Ni 1.0358111196495814 6.935712571530896 5.287376406709479 -0.17580303530766497 -1.6361446366127306 -1.9414981040184238
Ni 7.224093596233838 3.499339821812846 10.43617514838699 -4.138080751984661 -1.413580948110759 -0.7026488125280221
Ni 3.9200203622728753 6.840278392854949 11.690666474075428 -1.1250545795647333 -1.9632712340294574 1.675588701540966
P 2.278468978340894 3.3391941251897865 7.092334116373584 0.5202660671203104 0.3443139078292909 -1.5863860771323646
Ni 5.74595410541436 8.094896840395391 4.673650663169079 1.709509779768443 0.12509188210604263 0.4880048930937595
P 8.84023916769963 8.966191869823822 1.8328521411600345 0.15535942274133244 -0.8814425550328948 -0.8919046309064833
Ni 3.6725410254263826 6.972791324859927 0.6598997406164561 0.8484481023847453 0.6872224506706229 0.3862899951507605
P 8.393466171193246 3.311125249108626 8.384306902571854 0.014076018477091886 0.009728540141673568 -0.30781915533736665
P 2.7307722393578144 1.092329309471185 3.7730192507263687 0.4520421018459053 1.0220942392504073 1.7446292491793955
P 7.878826807857901 7.464650823474861 5.142334085159908 0.6479596485152582 0.11288788384068302 0.21472876583858505
Ni 4.350258239051449 8.206374353532274 10.240531834462743 -0.32688799904335963 1.8599380837567452 -3.3845472367916294
Ni 3.5100477500765352 3.8261450501032543 10.665200475068122 0.7030049103158602 0.8446248719839131 1.4388710901361155
Ni 6.794134088474251 7.747492304699967 7.13370068049174 -0.3128176369932225 2.3722748687276503 -0.8636070695133709
Ni 0.08993731844768907 3.620486018875866 -0.0027029631743610413 0.23770002992277772 0.23132575096531774 -1.072581963587314
Ni 5.4926568560710445 0.7395773049210247 7.276406558075282 0.17441875336562868 -0.36031671101545043 -0.6548116384400852
Ni 5.513905691187031 1.8185755220729356 4.915550556978349 -0.3963640915573109 -0.35113221630270497 -0.20718463494273995
Ni 7.315454308265279 0.297484619520537 3.0928561013211393 -1.3773731307316341 -0.4967623275714155 0.6541992016670669
Ni 2.0078200601474068 6.998206416293415 8.438602779725214 -0.0860944177969227 0.27652677298198824 0.036290092680285886
Ni 0.09783557541307226 0.5233996363628586 4.170512579801534 0.4196464591240192 -1.0132028502980488 0.9619322250485306
Ni 2.422088834203442 3.9241216658192797 4.76252275617078 -0.35303483264205654 -0.04637678749232658 0.011252947205999975
Ni 5.6278514096255945 8.325488456756691 0.8070474598462957 0.0619810696884868 0.7658280162896681 0.2767319470142589
Ni 9.229649588360154 5.794687241671634 9.376961545311195 -0.9172605931727686 1.0423236789234047 -1.0023160281822157
Ni 3.3248581207119705 9.19052018325792 8.186572109418288 -0.20208870847707133 0.22815069567144577 0.3639998162939925
Ni 5.865225951082869 4.204726915925192 8.123530805585096 -0.3253525362354397 1.2514574671727157 4.31623249003016
Ni 8.702195971184118 2.1918312606649275 1.7107344362207506 -0.08280443419174126 -2.8039386640275197 -0.7442945130932667
Ni 8.18569153542156 4.068567349771488 2.6252045004940214 -1.2632192356943341 2.9047824722194746 -0.1333716056163316
Ni 6.7705283956641775 3.2737774057279077 0.6617945057390257 -0.11713997424881761 0.08663203546794758 -0.3938657506154894
Ni 8.471678586561215 8.717664009672479 12.535753060366257 0.9828990571081846 0.05142977653520175 -1.3550009336840214
Ni 3.405752157629511 1.7156903326554442 9.843947844182935 0.043195561550867546 -0.913408309306214 -0.012492218929739776
Ni 6.423467181758836 9.021114077269901 9.3162835944492 -0.04021539587662106 0.32768709790588724 0.24184207711560932
Ni 6.264063802519741 2.3423639471656457 2.626806978146655 0.05304237243796026 -1.1842089784377026 0.4262104854947821
Ni 8.255450811579632 0.500921338079681 7.963644920046424 0.2414661818334293 -0.19946772591445647 -0.8178812853414819
Ni 7.361477986071083 0.5822412795962713 5.7021174802010615 0.855509894327533 -0.42522138210863547 -0.3764511546834678
Ni 6.533441502193189 5.700969671946106 4.374779765933989 0.15770324038316064 -0.2363982803922187 0.2331823445580823
Ni -0.06791368956218984 2.5767042663159656 5.949952201495127 0.12328619635587156 -0.46102013697479954 0.644310224688129
P 4.505254108823254 7.392506852720803 8.13768123071692 0.3718429664874951 -0.5665209843227921 0.5703460144958371
Ni 0.6086520042210011 2.7057654224855074 3.552061058215471 1.4903666869122463 0.5985587294846272 0.5477773851667018
P 5.444656758230435 1.7914716585909287 13.112797190378048 -0.09060464696245041 -0.5950586867511688 1.1924601627029012
Ni -0.09212158735000486 3.89329693645015 10.466487678761183 3.5532283163425324 -0.702604332443332 2.3258484589443102
P 1.159314174406689 9.008327660331112 8.784408549354925 -1.0043214886480187 -1.6882927793711955 1.9951986788656735
P 5.45439039492767 1.966315239416487 9.030219527880957 -0.16724177600121518 0.5486204498932874 -0.2151419421166037
P 6.311052492924699 5.701192367161296 1.9663235904870564 0.1279046689644894 -0.6089207894452416 -0.7335218479577948
Ni 4.025327362155551 8.14316602828769 6.056289166748054 -0.6774450595688849 -1.1565670483507178 0.9247378753864203
