# total energy = -340864.34940928826 ev
CRYSTAL
PRIMVEC
9.31446574400033 0.00000000000000 0.00000000000000
0.00000000000000 9.31446574400033 0.00000000000000
0.00000000000000 0.00000000000000 13.63266213696919
PRIMCOORD
 96 1
Ni 5.65502627724868 7.068561628003681 1.1995941855310805 2.1969531439317778 -0.5169984521126323 1.068620664946721
Ni 3.241452645567859 5.155286570752722 12.29344402256533 0.7165358549227595 -0.5303568756974092 0.37862039442064466
Ni 5.714275592707952 3.177294606755808 1.657622783780198 1.407158332413867 -0.376097627998791 0.30525088038955817
Ni 5.138399444683289 2.9577153955253648 12.667987065954922 0.74114234061753 0.6921049755739049 0.6749891418292246
Ni 8.308512598488447 6.016464799034806 2.123887232481931 -1.0881139977846424 -0.15701058519151023 0.8728306449941677
Ni 6.4128977679488175 5.692926837632861 6.644340813969462 -0.13204028839941778 -0.5566849720689768 0.03908848136102946
Ni 6.553331965273047 5.31758181875812 9.800370495840266 -0.4607254885525162 -1.8298556625490678 -0.24896788952711318
Ni 0.5762552467731595 4.075609609245739 12.715851310154035 -0.9991653983683761 0.5041640193521253 -1.7607336109404257
Ni 7.178397805946728 4.916063151645592 11.951005147638789 1.2713128113357461 -0.9276779318513507 2.0641587509751544
Ni 2.691880548298893 2.6758782964581402 12.616373749365877 0.7182878046168597 -1.2183352306974502 -1.4587719428251005
Ni 2.245084264074667 6.393095214157525 8.376630216612199 1.142065255190117 1.8627135896193532 0.6436345387773431
Ni 4.29959456268845 6.579915449995695 10.210059812146454 -1.4384800253452839 -1.1860000088998544 -0.45873751158821
Ni 0.8899711042367612 1.7081425821119058 0.750709598127171 2.3283262310608417 0.699723411351111 -0.9394800666926014
Ni 2.8274060222703423 9.13743483251877 10.297008485303063 -0.760149220737336 0.45874548200800996 -0.5898195498394164
Ni 6.674215099376242 0.8592147389409724 11.736290881772971 1.6714343130529599 -0.41857970842240166 1.0608147957490568
Ni 7.953221623975252 7.194465259046436 13.458013954678716 0.3907883972417463 -0.887363291392704 -0.36405200968816653
Ni 2.9899248174493014 5.256637270566009 6.171369950060894 -1.3924613925233242 1.1001876411197247 -0.18712360252680676
Ni 0.7482971515458234 5.725741699818526 3.947651207099335 -0.4952767441648245 -1.2083071570374868 -0.5914077202621427
Ni 6.8327286743622295 1.897338006669162 3.5425967688583158 -0.17432825053435136 -0.014439058243465457 0.5619277085251548
Ni 2.8069421414239315 0.7781686426129326 5.063566096887137 0.9273768556711641 0.4901602488738655 -0.3923043196656405
Ni 2.650310088482083 8.111725884495675 6.320497338096984 0.6926364225973426 0.45883418506707435 0.630197953656463
Ni 7.6448755559099 1.22165736011501 7.822012473346646 -0.6744618085708449 -0.4829904705983037 -1.3841893823225195
Ni 2.5933614460173793 4.444779137450855 2.8791907250257833 -1.3282455199670482 1.4239869739354314 -0.43121616623948966
Ni 7.514249490825667 7.620676574371905 10.973570280299668 -0.4603087127300718 -1.280862402697394 1.534068755785887
P 8.690396372189852 4.022079375643409 3.5160812797342933 -0.023656720186991515 -0.4408799145814988 0.758157644228604
P 6.19165126738223 8.351489542605577 12.998429840680236 -0.051769933483439876 0.37920017818351465 -0.6748924683503602
P 6.490030857292981 1.5259795790562607 5.868942293415575 -0.9966444317187352 1.118685442813596 0.41055375279413164
P 3.941574449764698 7.963616567545846 8.30111877572291 0.7073367049219947 -0.04613304691263668 0.3300327153199284
P 8.143478897606924 7.4634856534961544 6.594758982320155 -0.2151550547427262 -0.5230955661493055 -1.2333093355087792
P 2.4679701105807026 6.833091938519266 4.533732283597064 1.09491148032245 -0.012221995987488628 0.32857104317273733
P 2.3215653408292765 4.135017270619616 0.3160770744843413 -0.6667991498192645 1.0587789962659506 3.1835047101908853
P 0.808346579597132 0.5339470812835982 4.486754776519744 -1.374889445077832 0.5257826260631654 -1.8773945886702958
Ni 5.053181399228665 8.59510938945941 11.061364706929588 0.9244352565443369 -3.957593680937765 0.9199507384104222
Ni 5.340243913477881 -0.08711726498333812 4.89259908144068 0.17495739947791805 0.3068295377305877 -1.4146073324927444
Ni 4.6864056886737675 4.925740881367678 8.267432079560358 -1.6945672995259977 1.1524234584959896 0.3613425811768035
Ni 0.7445275873316486 5.967349622110308 0.670986155909368 1.5380218268963641 0.4666930189898607 -0.8527942951685828
Ni 4.069490005369503 8.910646224940978 1.1694712038937154 -0.7079761382782066 -0.3856744730539487 1.299089210118066
Ni 0.7972185875865689 0.9925773940082178 6.499794280098264 0.4413730521678334 0.14113582294278273 0.9619684776031047
Ni 1.450075999166684 2.6187619936132656 2.9326585517088293 -1.6660694491966208 -1.1815160049865716 2.5859453685050493
Ni 8.75991954316737 0.40664441751297326 13.725773170490926 -2.6697692451002406 -1.6180769804777426 -0.8403802377749462
Ni 3.0554613971649793 2.36090964337604 6.919394187765662 0.04218049002279187 0.9499624542811639 0.6817907381320903
Ni 5.620618641451394 0.6045516617132192 8.883423767880569 0.23532073105732376 -0.15760065336702536 0.904296576812933
Ni 6.705148439517766 2.659652497443827 10.312085810713208 -0.29273397886947 1.0812342399456734 -0.4053966340732244
Ni 0.1312519971702054 2.675086566885111 8.121467884030158 2.6147571505304197 1.111789229914395 -0.26084870012509914
Ni 8.889837708868662 1.1300123334205021 9.795026786945598 -2.735623424590889 0.415451190095749 3.0681650223755996
Ni 8.822317147987627 0.7430912967415181 2.4728695194679173 0.6329217803455294 1.1343545168094205 1.5622817278849934
Ni 6.828527850392393 8.796422933716794 2.5360569909680906 0.3323649629975308 -0.39623450795798215 0.6881578180006988
Ni 4.355844620235776 0.41370571385783617 6.9566790619759935 -0.3831671332510627 0.34777564112564624 0.12838469392470148
Ni 3.1612923549150556 2.172394174805032 1.2575562418492618 2.1811151484582565 1.4395642595483982 -0.45108925101433284
Ni 6.074000252830109 8.083055959486456 7.075119943208032 -0.023852895358197627 0.9462742067962994 -1.9272657624691258
Ni 3.378328717046241 3.207967141861512 4.639958174687099 1.1547431077681014 -0.08570283878545885 0.2914599972530529
Ni 4.447675936241585 0.819384221291714 12.995048689680122 -0.19352127852303447 -0.48363016106483153 -0.9531485653186295
Ni 0.6397193579006146 8.200073590380157 7.6525720988063 -1.1718160040899883 0.870979450718042 0.708908934505121
Ni 4.1796894474695865 4.67043138022971 1.3833471678586797 -0.22616091893492662 2.5081427584032743 -1.6372646091497864
Ni 2.1851643070947127 0.5540830929421191 2.4086872630453975 -0.22905778086674747 -3.070420651178996 1.2100477938776775
Ni -0.03787820566682449 8.864753853101986 11.710893128516755 1.657677882698816 0.8079583698008149 0.7221822545752595
P 5.65773678672811 1.0460051684893334 1.7386549084098901 -0.10801461490878171 0.8272838096023043 -0.2924136194155738
P 3.875823637341023 1.6894018773950292 3.3112785366762423 0.5085305238509371 -0.9567396251039975 -0.34977853048828794
P 0.07821263590315217 6.1500621786342915 11.45153183485799 -0.19462016801416804 3.136745856768791e-05 0.9091883576875954
P 7.713290305485179 8.727710121243435 9.092562394659149 1.3590997863437433 0.6028987516208778 0.0901341350839351
P 7.821952860767029 3.9489421920266508 8.273253620538513 -0.7057125390550104 1.1807012223947602 -0.03456385401779854
P 4.658229430339496 1.1517057237214992 10.774806105267439 -0.7654395226019979 3.665086216256804 0.06545771538317759
P 1.918388698846171 0.6276953143026941 12.434569353234487 -0.2993427424352393 -0.41769653448649996 -0.3636280347768705
P 3.843968165108559 6.851469379079107 0.32732801744036283 -3.2384607547117903 -0.718556227786898 -0.9965179334431999
Ni 8.318041296761491 6.092182089613082 8.28027393323489 0.779008262425368 0.18244445188358258 0.20469606419293135
Ni 2.3439573160476526 7.226479077193506 11.80225872124431 -0.7540495355975013 0.06208314248398985 -0.3809253884047375
Ni 0.9534659531005809 6.57704659460166 6.186215345278468 -0.532242008535264 -1.1206243117075216 -0.4544653665754173
Ni 4.146548578989146 2.668063459849065 9.34381265170387 -0.8959083527492377 0.07207984868538553 1.1436176872789015
Ni 7.8771969560333295 7.119949534526051 4.408298101618787 -0.10988123580387528 -0.8281091337170771 0.07352995086835079
Ni 1.3666370166349833 3.463053095825918 5.55074245222896 -1.4998100917133332 0.5203977076021683 0.6335635276945862
Ni 0.7517081088357441 8.019261184831443 3.321952914213787 0.4415008359949493 -0.20870261424916312 1.0908419382387664
Ni 8.467119318130084 2.6488290884572407 5.866788788976936 -1.411475728842298 -0.5138339383417215 -0.8529673304113374
Ni 1.4686304145722597 2.438219707565939 10.689111159175884 -0.6811397348116528 -0.6936864611284118 -1.004521777584283
Ni 1.5691055546224333 8.247493534571815 0.16278891468034515 0.33320314262811 0.6920057309918791 1.3243520984499126
Ni 7.325203097717451 2.418137719807695 13.643431432002789 1.053146994791154 0.4107524990684991 -0.38097861024017615
Ni 2.644218428002542 4.635828140655556 10.002569845772886 -0.021899371176252607 -0.4186658403783048 -0.26091272059381515
Ni 6.195805519024242 7.3932638976012575 9.134483078381205 -2.1224112068591445 -0.20552858739655572 -0.23422801221377726
Ni 4.577323982441489 7.026516130443054 5.3179786149911905 0.36202752305897007 0.0787343778874257 -0.10260835629154587
Ni 0.4814004552449361 7.54392537811591 9.874818224762027 0.48660595586370387 -0.3031567168646908 -0.4137930856670357
Ni 2.8172439403388747 7.063941653083417 2.4394147534979345 0.18803223038400518 -0.35023207308593873 -1.073339410578629
Ni 6.678481124605033 4.222768850707934 4.51087085931421 0.08327108941551464 -0.2669571270156822 0.05899653313886614
Ni 5.947668156371361 3.0610966488318336 8.045356591558482 0.5326600699092892 -0.9289056336108648 -2.3600515871885803
Ni 0.23963325559199175 3.7187631189831825 1.4010018058906717 -2.062385461124816 1.6391888227556932 0.6128736034454025
Ni 8.60673384248459 4.993615391940182 5.824555139211895 -0.10534478138610245 0.00647815152517594 0.07630674228253956
Ni 5.3924887508322366 6.293607407457246 12.442121521914627 -0.2998837025403739 0.8268721759861825 -0.22304191368997073
Ni 4.491174490430359 5.166734048932166 3.878342268829812 1.1430137351463154 0.6694119048517633 -0.12441311087146316
Ni 7.786539262688716 9.367558018768847 5.231901775811468 2.040469377778015 -0.48965374155109215 -0.11338924895713375
Ni 8.81296542456032 4.231049410595261 10.260282479026637 1.0570309032265925 1.0967181945138855 -0.7950007811988824
P 8.966346729019966 8.116280658156983 1.580734664880396 -0.475125208917614 -0.681048460649427 -1.7600815791787234
P 1.2356942597215375 0.6223488110683564 8.846383864114598 2.792033427949501 0.10277753487955847 -1.1320873180417985
P 7.431192401382132 4.620123951712885 0.6341027351648907 -0.340775041438097 -0.1899818979112083 -0.49632369737209997
P 5.891902451033418 7.0910188044810125 3.466813345574528 -0.778404310292782 -0.829714530530984 0.6942598171333786
P 8.61143764759494 2.6358726668562587 11.621939982370543 -0.9237019779227381 -1.596387925540083 0.6558459932418704
P 4.5989987438113555 4.066835382683464 6.273464875672831 2.641663230892644 -1.1152478778869568 -0.1103877431266486
P 4.967283397787791 4.2891903046522915 11.127264550802302 -0.18263111397309192 1.6955209216885188 -2.1007843726179884
P 1.4594742949218174 4.633536782126554 7.742084112886412 -0.5017857489279358 -2.0013330738981856 -0.8262605105441124
