# total energy = -340895.23385758605 ev
CRYSTAL
PRIMVEC
9.04285322837927 0.00000000000000 0.00000000000000

0.00000000000000 9.04285322837927 0.00000000000000

0.00000000000000 0.00000000000000 13.23512976535166

PRIMCOORD
 96 1
Ni 6.482070896375622 1.7773908805516907 11.42586113201141 0.22724566735867313 0.5319381041415999 -0.16489358748401278
Ni 4.477333643729269 0.2615039414559911 5.990047445639971 0.1638936854645887 -0.5211885789345798 -0.6700721641435815
Ni 2.6004532923615615 1.4488368955345727 4.625148122002184 0.38905058861503317 0.6130121859057959 2.0163439454847207
Ni 3.333412714968489 4.369759862159797 4.934254546945049 0.20979250487923223 -0.6452857012275209 -0.2753278675778807
Ni 5.089299690630115 4.4885286959806985 2.677744367162385 -0.0667044433060851 -0.11336688035963055 0.007740820287683444
Ni 7.367004509723684 6.096167136416205 2.47870122127269 -0.13831917942959404 -0.8466778978581999 -0.281037002147516
Ni 4.912647553528599 4.546864141920902 11.555697513853737 1.5601207156779324 -0.14172383423576884 -0.21037511685557964
Ni 5.771953720931143 8.266063059757315 12.309875087189866 -0.039108021745055226 -1.4518736730433708 0.8051941767921166
Ni 1.8326517564066878 6.601798272634853 0.536706901212217 0.609525512908776 -0.3717820313425726 -1.2674664410064624
Ni 2.8171381405431095 1.545324139090917 0.35500071346181183 -0.5327207479438955 0.5929359839812111 0.47827172496639564
Ni 0.4611421070857054 0.18795751216188591 4.8117636747504084 0.028258994845693268 -0.10571090647626954 -0.26796217124142885
Ni 8.460818988948786 2.230085154185631 1.2801270963914007 1.0047737456940888 1.6383015350547332 1.2647477565237186
Ni 6.905312597163919 0.6419910323535293 4.8194935056587465 -1.3214387814578594 -0.13416633360348507 0.2146889137395851
Ni 0.7906067074192362 7.5467040883508325 2.5451815650827343 0.002036570814054557 -0.33766914881926363 0.28231406908772666
Ni 7.773028618034823 3.975048363191581 3.9589584145074386 -0.7645617479827349 -0.436681560229435 -1.1275899443920774
Ni 7.439690963679251 3.9191725733195426 12.566041032406746 0.496523472087732 -0.587869110981265 0.0024772578958989593
Ni 8.049432468694919 8.926236557023566 6.848597630515682 -0.4839116968609925 -0.6513984989934781 0.12539321539654533
Ni 6.8846768061802655 0.8154790751232404 0.5004414427718831 -0.7472209427114421 -1.0101802614216409 -0.5234352088769114
Ni 1.884792847910519 6.296204091871676 9.224620870936933 0.1873470313915225 0.8022199246551409 0.2854004213225343
Ni 0.20799285769360434 4.771533829470796 1.160204394503227 -1.2256333070207601 -0.14792199262668074 0.8985789576028653
Ni 6.294169449903525 2.03218231208342 6.978486460906523 0.10283178515626162 -0.5685809521756143 -0.5239316888973558
Ni 3.490423774937449 4.419115754880559 0.6419910323535293 -0.7688899430444436 0.18371097730083197 0.11210755403123274
Ni 6.057454681902174 5.727146383365849 4.684825527356049 -0.5000723657812549 -0.9212131500626135 0.8730602445064707
Ni 5.194106359122902 2.8433262433865183 9.098145717625993 0.810417629974585 0.0014727278907845605 0.48076106704715266
P 0.13123892837237314 5.737192993261923 12.489051988902528 0.18026724172660566 -0.8752701076735957 -0.22030394593351735
P 4.042390490910802 6.2334014764547305 12.750736787422356 -0.978706873403708 0.455428501819635 -0.023320162783179194
P 2.486477170732306 8.521071519765648 1.3226646778055564 -0.0855233757848011 0.6280228003820152 0.7714597606541488
P 6.36740751790379 7.654458726984141 5.714968372972473 -0.0036414534073292127 0.40328755815002154 0.17077627151703492
P 4.690600293404322 1.1149657128406851 12.471502523713234 -0.008583370793636831 0.3952058095831516 0.4104118278996287
P 4.063261396077442 6.25290691078941 8.447056670676208 -0.336998090894168 -0.8997305547088054 -1.5303753660947
P 4.694054663323585 0.9787713009192139 3.838532025696482 0.2031711429079727 -0.09431680570671498 0.3207862570209959
P 0.18997316413833473 5.579349990799319 3.4642293420968056 0.07272879512329411 -0.3902332960692247 0.27988746192410513
Ni 1.3684007163936465 0.985282155217299 2.5038087031596805 -0.4858413097835374 1.0142364337688856 0.06917321656155183
Ni 1.7302414440097247 6.4498150390405256 4.806747604084926 1.3320836627662154 0.29148802227751086 -0.62484928775004
Ni 6.173085645665527 5.662037840384999 9.182638520708753 -0.5687645289413301 0.03098719241013373 0.3847432194889309
Ni 8.641766481316399 2.2637426537654535 10.206587916174122 -0.010265129371433934 0.7367578383965893 0.09868742397058487
Ni 2.397594966710253 5.236237012143427 7.049122900043511 -1.002088228442126 -0.8141554997504623 0.5770026005804062
Ni 0.6726155589728278 -0.15090622977918594 9.194126561403595 -0.1419562619615491 0.43055153607229724 -0.7472196571598615
Ni 1.3919030918390956 0.9047826761040306 11.316591815468476 0.7289190590784608 1.0032218278259366 0.03697272056960729
Ni 4.163501423708377 7.076249651048228 1.6783861066667538 0.04420549087262065 -1.00111300901305 -0.289614716514198
Ni 5.683062474055898 7.734388506346327 7.7807340332395425 -0.07898171801154139 0.7468113659778494 0.8412469566506157
Ni 5.346288535487448 2.9567778795306507 4.788761369086465 -0.4550996577253066 -0.12983299633545384 -0.12222895873595079
Ni 0.6781154222840713 7.206276837092902 6.909041869820211 0.3434518169393117 0.5812009549324699 0.40795282483617484
Ni 4.916192351979778 4.691269464540514 7.0605313636302665 0.8283893839616572 -0.21761482913712846 0.11223893740277445
Ni 8.216001824487595 7.0776965075589136 9.100594522270328 -0.18412055403442482 0.6123593828131454 0.19842617202381957
Ni 4.741086542774057 0.2571281047964864 10.324816891659475 -1.0703111652752666 -0.3470271929953959 -0.5860258871249391
Ni 8.272971799595839 7.106000638049199 4.6302699940500105 -0.4805587212283595 0.993005035193935 0.5130533514219552
Ni 7.402850379775919 6.091663795526696 6.9491839994238624 -1.187817264614251 -0.25170868549704395 -0.026823033730115093
Ni 2.0527909745074973 5.19602344399956 2.570937419543576 1.9464785879521507 0.2354963374032396 0.4590588994833707
Ni 2.4551436844227714 5.080889837161756 11.615388483487388 -1.2149472880618237 0.23360837635190737 -0.29464970783494415
Ni 1.1357823608881739 3.183319437691244 3.783487274032769 -0.7222879269151884 0.15748701060729653 0.3764953776578419
Ni 3.576565994442391 2.548303158004539 2.7023490664119123 0.3925925403300206 0.6409803889839478 -0.17871866629256317
Ni 1.1611475640911302 3.088866836103052 8.271108971838332 -0.992787262756174 2.0480302208444083 0.15899624816297134
Ni 3.754918187943963 2.5474260012449355 6.910842301890695 -0.5427346805364718 0.3871073488457333 -0.06991909358864087
Ni 3.9276366839070533 6.735424514249857 6.088093677086579 0.775249309603568 0.7775967267898221 -0.904478610916752
Ni 0.9287100656494932 7.337778008207836 11.32297154839528 1.001768640319178 -0.3193389830515081 -0.06765780835828993
P 0.1431357060314853 5.39863761261469 8.082997731172185 0.9061315731391427 -0.4457709241252129 0.041502747229476916
P 8.580627750886743 1.5289475319605945 8.035854624627452 -0.09913865257539055 0.7541300111264496 0.2478083220013732
P 1.6408257116493563 3.2226558490755086 10.458783144554491 0.43100250756678676 0.38470953803751806 0.31589139082253986
P 3.9589068702442454 6.001741663387587 3.747990458113737 -0.15443305427232112 1.613725388377266 -0.23470340918829902
P 6.709806111157531 3.8603126418942155 10.405194292254656 0.48356228394137374 0.08763656547306196 -0.12568837803946095
P 6.562488989810164 7.9256358084993845 10.283669196780897 -1.5327019573453473 -1.1087553281840774 -1.277700974250277
P 2.281168231866023 8.326261333455028 5.814338478126358 0.11962983055020686 1.08498676500957 -0.05806939333890644
P 6.8628744871348735 3.9562934856718193 1.5162956760599682 0.7972893201227431 0.0039044772607287593 0.2926085090351993
Ni 5.161398359128216 2.8621444208786224 0.48567627208033687 0.44579483538461284 -0.44159185304685883 -0.5236614659551047
Ni 1.5371855712183105 1.1366143033818181 7.150331417251286 0.2643024630016545 -1.1204163094617736 -1.4855512678014737
Ni 6.823402432952732 0.8758726744498945 9.141186081677612 -0.13479959631210978 -1.0477204244589442 -0.19923838351246978
Ni 2.908145415065232 1.787464619007339 9.355211426735456 0.03274839807561456 -1.5672244166022493 -0.3761858168372231
Ni 6.185383926006353 2.095093441738667 2.610814593548709 1.4248009851962944 0.2555162321685922 0.4603969015685039
Ni 4.257420496958254 6.627489018552714 10.560587585787605 -0.1926509601029392 1.5326698185558314 0.2187394296598749
Ni 8.364051416943495 7.477019861654939 0.3302314342841941 -1.5125743333575368 -1.2235131753539639 0.19656263645251956
Ni 7.502231336353635 3.780012105551166 8.18021021155451 0.9789719541396366 -0.06078704938038564 0.3961411769132274
Ni 3.2305593027651285 8.470250684827818 12.458532359380255 -0.0075312753800386425 -1.0595842657760655 -0.6564651148831081
Ni -0.0338220795079136 4.97776513936264 10.356264317919226 0.21660412848442695 -1.150982612284405 -0.18436146640063733
Ni 8.625733502607364 2.473654404906355 5.881651668715366 0.3325403122331306 -0.15270578716856925 0.2297028706499141
Ni 3.5250940740747514 2.790904823433742 11.552640125189594 -0.45969370485389216 -0.9389362783739894 0.06494143786839138
Ni 0.8645383622593114 3.2682951291344464 12.632958146025954 0.803433742457584 -0.1195156735698458 -0.694820574732855
Ni 3.120001379642367 8.36467537381373 7.981643624028022 -0.18395677476305092 -0.4724386632243863 0.2961021240107546
Ni 5.782705673376175 7.784241755992637 3.5199622548884135 -1.0766751598200812 0.9366163719915612 0.023128872707979524
Ni 2.9656670042181754 8.498156929777664 3.5121799754315637 1.0936889207692584 -1.4794281856228713 0.38453341747097003
Ni 3.4181080779627453 4.262963765964818 9.303938449138036 -0.5917255086128778 0.6950789706005641 0.22301003201077074
Ni 7.200127696922488 6.134752990985551 11.562103471054796 -0.4385795485830962 0.5979272665482154 -0.48144395204679025
Ni 0.6457573807079077 0.19981269269631582 0.2808664987102407 0.9648447707096353 -0.32431972409555115 0.7291777120564862
Ni 4.696297290915147 0.47644804039812044 1.6231957650666526 -0.38357439599181037 -0.9622867801744718 -0.136891445844132
Ni 5.906610847810011 5.567151181843601 0.38064895796967113 0.13031739217104008 1.195878701466147 0.4755373567543681
Ni 8.174151499916015 8.703908968450344 11.291166929434455 0.059039213451343484 1.2062932119312515 0.5227294410591384
Ni 0.09085535458850047 5.010111425229655 5.77450018838995 0.30719437726917415 -1.498454349016387 0.16873558693792232
Ni 7.945213585659598 -0.10114340866479407 2.5536384413876916 -0.13747560048237611 0.07432724995866555 0.10044245898847863
P 8.240688813701167 1.7907290890095733 3.6336119295174463 1.3378421625165478 0.2204409857320139 -0.1702257983302036
P 1.8158501351763516 3.1638049605033727 1.6440811387983987 -0.6931737831580513 -0.13517857691808333 -1.2848195875729294
P 4.6261247501468965 0.9272089520196569 8.108753585633027 1.282175979302495 0.3555473146512651 0.21119838408782338
P 8.537439084042777 1.5399526842949967 12.40553852682044 -1.2261076755540175 0.7983758683187024 -0.7469671748294232
P 6.401499074436819 7.719015655920293 1.400316562448732 -0.22230092175888813 0.8498434400703749 -1.007100851165369
P 1.815958649414653 3.2732053984175855 6.063608343499183 -0.5014435350971687 -0.6865092266536822 -0.3085110391980687
P 6.826522217303898 3.9834853452195165 5.995302247629717 0.31374066302812414 0.6603803907771143 0.4249434458569004
P 2.543618960051194 8.43246964419254 10.140187149472165 0.3223528301771674 -0.14469834348306046 0.8923985398237664
