# total energy = -340891.78846182284 ev
CRYSTAL
PRIMVEC
9.10215808395856 0.00000000000000 0.00000000000000

0.00000000000000 9.10215808395856 0.00000000000000

0.00000000000000 0.00000000000000 13.32192841610921

PRIMCOORD
 96 1
Ni 6.314667679848381 1.7230476269907653 11.565699036216925 1.440004175299294 0.46408566327400075 -1.1922609022079016
Ni 4.489648575870291 0.23699015932124212 5.930229841332899 -0.0450891790291546 -0.09609060977768613 0.3904227863722115
Ni 3.005377861832171 2.0242653443826724 4.83143734247898 -1.318484326815226 -1.108090440906569 0.7903211163350261
Ni 3.671337257866948 4.3300513360688315 4.897553598351561 -1.0391362823343588 1.9820454293131669 -0.31643749313399694
Ni 5.3815144333304366 4.919106598472804 2.842153412035224 -1.150373003724864 -0.5509598966597414 -0.5186809820213777
Ni 7.399326347633308 6.275237131039215 2.5469658743723276 -0.4407248770608732 -0.3963355523122206 0.6175877210916203
Ni 5.038991122564569 4.461131514600873 11.851693394217481 1.0395983095724417 0.44361993922048115 -1.2920760120250265
Ni 5.48305810888793 8.028167143011625 12.54159601708571 0.3851628235248528 -0.21770481774777345 0.7565612462757616
Ni 1.844333883427086 6.363173080264828 0.4670417435369377 1.4616754896251407 0.5425770719126849 -0.6875708351489771
Ni 2.7966198662323953 1.5826923493736498 0.4717684942286737 -0.4066670161452158 -0.14323281468112753 0.15610041467241503
Ni 0.47566785875079903 0.03253839470983559 4.418630807870809 0.14854548514329255 -0.43432077330674235 0.5432859250542514
Ni 8.717127692518417 2.1455971116094004 1.3935804517770372 0.24839299086024963 0.9054975390995696 -0.1556766968714351
Ni 6.765898064581902 0.7077055338598833 4.835420446855454 -1.042603672057669 -0.19304922398262236 -1.2786972767252751
Ni 0.7291757043425846 7.180656101882752 2.3979207664347797 0.1304073807816851 2.095533151521378 -0.08403727815757785
Ni 7.446448220021363 3.913718625419878 3.677105295443211 1.422452796679092 -0.23592236919706466 0.021846406451130115
Ni 7.779769248966809 3.745765604499578 12.450913946766901 0.022436731736961358 0.15943539258291897 0.7115330023915294
Ni 8.117104329626207 9.100810962128941 6.415920996563073 1.0819605765887366 -0.3253458513672204 2.9998207294732464
Ni 6.9381564062747625 0.7683013308560198 0.49515830985076853 0.17640133101329622 -1.8182399326870105 -0.4705198489351187
Ni 1.7830672573803412 6.413389686400602 9.111652542619845 0.49805867778533575 0.4434463897570944 0.596280989194044
Ni -0.12575632627015765 4.839517328207949 1.3770745983119999 0.407237543936705 -0.9790028073775721 -0.20670795241663756
Ni 6.346679969821104 1.990450827109807 6.9480386193038735 0.935264485949357 0.13086555136502623 0.2621759035769549
Ni 3.811819965697205 4.3563565729244385 0.7703766228986074 -0.6422060338609328 -0.21275184461787228 -0.1495492438174586
Ni 6.119235243679958 5.613928937784097 4.965908985112197 -0.16689210597128032 0.6169256620275891 0.013471037903241315
Ni 5.275428780890263 2.844260561631097 9.595105477177771 -0.7283516166107649 -0.2580299997293814 -0.7241573760237593
P 0.37813550425983405 5.510200744287038 12.51370063321326 -0.9490432849010041 -0.45249204489913036 -0.28497027576365114
P 4.081362172965405 6.1506194847450555 12.792941189917325 -1.2726137895353566 0.5063265742210828 -0.9886848105520262
P 2.3493489202643376 8.581077735673864 1.370893322758836 0.13281084801685514 0.055823791837839344 1.15783537354018
P 6.328548470922707 7.7732430016223555 5.919998105433456 -0.36497272173022305 0.010628683358439759 0.3906999512929981
P 4.65777453779414 1.0242112359655198 12.763420160611513 -0.8990265866632453 -0.6791617851496755 -0.5731156068211742
P 4.14292917022884 6.160468019789266 8.17850475739675 0.4798868919723155 1.2855994031617473 0.44599512432087707
P 4.674986718726303 1.0818461009377363 3.8632926696482293 0.969791058971317 -1.1052622274291546 -0.3428239535473257
P 0.09396976981785601 5.613501136354265 3.5787364526245535 0.24713880673817437 -1.0146131003820138 1.2420654844348546
Ni 1.5547760305376124 1.3290516122738738 2.7376032936634034 0.30122813238341023 -0.33311803911347143 -0.44175486098728434
Ni 1.56371434977367 6.71652795914771 4.970637556235549 0.7620832045352554 -0.3313609472130487 -0.6897025367799993
Ni 5.863291660585555 5.503938459526949 9.463151491469905 0.6321681900089565 0.5673943880666809 -0.9707333682799283
Ni 8.89423748446873 2.4378583054490868 10.099820142798333 -0.2733424617167357 -1.5968358117107788 0.975273422242127
Ni 2.6059842673729356 5.473154960895231 6.902823649033899 -1.6629758978729619 -0.9118581912102748 0.09116051946592042
Ni 0.5541575883194054 8.95875358095058 8.961341324493159 1.8382760254022794 1.4578944253161539 0.6762741791892354
Ni 1.3830911248038877 0.9395247571750113 11.435423488459291 -0.010027816549647245 0.788783596644577 -0.7052793081723338
Ni 4.3124932731295695 6.878701109686241 1.532994566248523 -1.0382482233024508 0.4900283512816916 -0.027615190614107277
Ni 5.7509437233852925 7.89025124376036 8.374617124773865 -1.0684787400522178 -0.6158208589991845 -1.3383815799597851
Ni 5.4265064007274155 2.950482746442494 4.890453004832163 0.4261372090546855 -0.47342776661053304 -0.46588260727342345
Ni 0.6031945547678134 7.273980528692627 7.2274794234857325 -0.21667740492452361 -0.10638864926958451 -1.1912689706082773
Ni 5.21118574915086 4.483140532842 7.14825332932833 -0.011943545515121366 -0.18455764157184346 -0.09911499842630674
Ni 8.184132621738557 7.426250531238459 9.242207526630581 -1.8052514908471424 -1.2764740438217113 0.5880125785376646
Ni 4.576046260380127 0.3963580247390472 10.555163792768896 0.11838541662014451 -0.6512437185831688 0.12138280868557161
Ni 8.115675290807408 7.2221255341021795 4.88094124963697 0.4568397803448649 -0.33173195739922223 -0.6340651499213531
Ni 7.420689112650647 5.934252084989125 7.081364300234628 -1.2626438228068384 0.9509415303649817 0.3215884412073171
Ni 2.4217565878028697 5.438129856597523 2.6221688146576954 -0.793508255813756 -1.3637930780543546 -0.27139176574826807
Ni 2.2938621645993615 5.469049887600463 11.35310721163321 1.0268536083122637 -0.9032218556915155 0.9089091358842797
Ni 1.2213184692209438 3.6329079464467497 3.8154935966989085 -0.8329584913895783 -0.12516490143582315 0.28304503371648027
Ni 3.91367311462947 2.6967327834457397 2.6679026079383172 -0.06474166315275946 0.8252341261621271 -0.6877410421782543
Ni 1.1478185427126293 3.7829206137883635 8.09100662197486 -0.37818382110385834 -0.14917823363128502 0.8757406195521112
Ni 3.571104293073195 2.665321235906397 7.282818724189789 0.4263292704608335 0.5616664844439682 -0.5333372984819719
Ni 4.20625288400201 6.801032394776588 5.967384850621684 0.8699749207129275 1.0485336643888588 -0.5994408749792643
Ni 0.8635645173372606 7.416483915616983 11.334802771731264 -0.591618293611052 0.03253293963069881 0.2663482897870897
P -0.19574190954319526 5.550832777962965 8.537131606240452 0.9226095161895078 0.7465704536116369 -1.3870283944332111
P 8.658673633318864 1.614340553023112 8.131052476670336 -1.7609164163751931 0.18143966476815204 -0.5776883137935213
P 1.9512387300945973 3.265417416063259 10.25034435142413 -0.513916984973831 -1.0523643509888585 1.1378774423610145
P 3.8065680204841654 6.377254118816947 3.7997468632178704 0.7031360365770858 -0.27414516012368917 0.7756316326436513
P 6.820611136809949 4.0260028475135705 10.549901835181966 0.8776725464675014 -0.9029475189842063 0.34019217235143345
P 6.376143655531001 7.901710860785 10.484637541305815 -0.5223697437268745 -0.10327375778968664 -0.6434944136550531
P 2.0355156117714372 8.697576256959302 5.812424250146953 0.42141949186404193 0.3965448401095493 0.9915410490538987
P 6.817662037591535 3.8713389773922975 1.4958796064552968 1.09979477655668 0.7117829136188064 0.6716798749503334
Ni 5.662006536770712 2.704223859546835 0.22992051313932169 -1.438518591892703 1.4313889228264574 0.9233201691032874
Ni 1.3641768403104788 1.4449675954420949 7.186594349815139 1.6159023414239269 -0.7455854639905481 -1.6338730669697343
Ni 6.849756246986992 0.7582352542336612 9.136138258074956 0.985333120470974 0.3670159774124969 0.7909579785880765
Ni 2.930721961247503 1.3454172925044559 9.136272059798754 -0.9110575496858504 -0.0035630347609099926 0.7979251539345289
Ni 6.471716315387013 1.7641711772030952 2.691709302400546 -0.3035598658403804 1.0544698273676356 -0.701083010702799
Ni 4.3501489011128385 6.926005025235926 10.48195968639823 -1.338776758515675 0.2854592995849278 0.3952114660101065
Ni 8.248830761382036 7.029951670526942 0.2940160899178044 0.21063068450981143 0.6680654181261979 0.5089177319870267
Ni 7.625697019120835 3.766281868815336 8.36347972414531 -0.20150686783167232 -0.5646127115564857 -0.02516904306645988
Ni 2.967440066948375 8.485932877247683 12.546898934384007 0.7006117274933353 -0.5950154922180592 -0.1737934610768039
Ni 0.06144866920837532 4.664837812465403 10.425714720965063 0.14261523570178664 0.9727910221399054 0.9855035846105673
Ni 8.705249376222026 2.3542640856283614 5.690887684363391 -0.11807662713047405 0.5048682445080015 0.11316067788609543
Ni 3.485179920783599 2.899929360457704 11.818255706289191 -0.9499927932984671 -1.3805561564453064 -0.7789943784682971
Ni 1.1279667359368235 3.231175097360562 12.807089584439248 -0.10155060445099284 0.3346136498223915 -0.16617605374086222
Ni 3.033667369149551 8.255375213042655 7.727651202007805 -0.09924663890816456 -0.0309059455502371 0.8239208066673422
Ni 5.424249065523197 7.848181069107551 3.446515773684897 0.6799477713860806 0.5094147262281034 1.6024307893000531
Ni 2.924423267855088 8.52030262616352 3.7788446673994565 0.6555189489197549 0.16382272301733722 -0.48422357167445645
Ni 3.360889952180375 4.49829562604774 9.28229343082162 1.0863425077065163 -0.581001180216838 -0.10134517330840612
Ni 7.376525441639088 6.242769733162415 11.581139026970614 -0.06070117453479869 -0.8409209407697646 -1.1407110551550677
Ni 0.593744694247574 -0.11321446264962434 0.15753742142761035 -0.24608825398647294 0.2647963719189375 0.5935121681996552
Ni 4.653678566657453 0.34694604937768053 1.6261815504713681 -0.48762462693620534 -0.4798277565996059 -0.07507852630239328
Ni 6.0837459293200915 5.6852534485109265 0.27793439701936606 0.9779573968321932 0.006528802257453272 1.1401603248579202
Ni 7.977176853438923 8.762611176451797 11.567137177193805 0.13678500217325476 0.034279490008160315 -0.10037715296818198
Ni -0.006255003033623984 4.9160118647250854 5.768328845321005 0.6876096588067124 -0.4736391112903908 -0.3083806842677915
Ni 7.973881872213411 8.848253381840866 2.580537364024416 0.24701462245548428 -3.470989267735958e-05 -0.035645774228067646
P 8.506166974662912 1.7188879407475084 3.6082310856719273 -7.996130831599131e-05 0.10426851760278816 -0.4790649102916524
P 1.8804876553269034 3.2150460732400994 1.6887543362028115 0.10397721161461448 0.8737490430433792 -0.6672609199470314
P 4.919497991270309 0.9963131214456457 8.158282492787027 -1.4501338075341283 -0.319298873842192 0.26376947331631995
P 8.450662014681773 1.5584168937702225 12.388620597288561 1.086682150434122 0.8713147225702736 0.44046648119316406
P 6.417330920849902 7.81486717052917 1.4440701226552564 -0.5804409368379939 0.4800763822753022 -1.2199079745012087
P 1.829961575816358 3.535715102452226 6.045824518320842 0.18000473209383838 -0.4913370427907861 -0.6212569424130913
P 7.064193989229639 3.8986818602691984 6.004499810414909 0.03233599312854431 0.4073283038782985 0.4260479917749888
P 2.497095150243652 8.355162172090411 10.248653170452581 -0.07806203441074944 0.6778027000186198 -0.6837365490045515
