# total energy = -340887.835782734 ev
CRYSTAL
PRIMVEC
9.11659685992294 0.00000000000000 0.00000000000000
0.00000000000000 9.11659685992294 0.00000000000000
0.00000000000000 0.00000000000000 13.34306102423196
PRIMCOORD
 96 1
Ni 6.456674617638518 2.2099177352132457 11.747377544378438 0.09352233482987765 -0.07510783687843194 -1.240657034123102
Ni 4.941806213434644 0.7977888173132824 6.493200262243569 -0.7001970085534199 -0.5507025292332968 -1.088575253691777
Ni 2.744660830172397 2.099916879652397 4.885988938591544 0.0056232597240483805 -1.014127161884531 1.9460389293115712
Ni 3.4660844753817974 4.746929842767589 4.9878495849753435 -0.5849311113988637 0.14882522116724048 -0.012326382775836834
Ni 3.574562859296809 2.939883631513356 2.9668559944557007 0.9403161894406514 0.3312930700895907 -1.3442717201919752
Ni 5.023773534199404 4.968636357468755 2.920102440033501 0.8421995503718721 -0.8232818875317628 -1.3408588378556843
Ni 5.3270644726047 3.229025611868724 0.2693352624048044 0.9320266957383497 -0.574888639561197 1.1878648300227348
Ni 5.837411554843744 8.06981081747395 12.763718533941034 -0.47191467240011625 1.291323193019402 -0.8118289084998147
Ni 2.328570241024985 5.601328167175607 11.606260832683432 -0.22356950405866657 0.47925028682958104 1.3445563413119295
Ni 1.0519185081127544 7.856500688316588 11.584845947078225 -0.8209468116406828 -0.33880969018161 0.1672389477877378
Ni 0.47158148982931003 0.6095739438415118 5.046612432206286 0.532103940295503 -1.0930492303027304 0.1725565033459093
Ni 8.653209188923094 2.8195810217022377 1.5182397216567496 -0.21291151012418819 -1.6456541187650626 1.9791681077653722
Ni 1.2266289669199897 1.5714915861936325 3.0527589500079304 -0.10523962326680586 -0.6738285458622202 -1.659109215828704
Ni 2.490435415107768 6.721010338423103 0.6865617794987513 -0.7104755076612925 -0.5557043533232623 -0.9056551477233564
Ni 7.873010844907065 4.4151130733453945 4.014059398764703 -0.6407384481764706 -1.4304579263717558 -1.2758505513050993
Ni 7.695902721172555 3.9211758651333297 13.098269370708056 -0.8697154964039537 0.8608927559060013 -1.0292131096833759
Ni 8.074241483461234 0.23940729881826753 7.0879542665193815 0.3872392464379073 -0.36617625512002094 0.6153485473484563
Ni 6.99637714119249 1.0416623368458926 0.29348968531284914 0.17892641142799506 -0.5821633188457394 1.1946106333870006
Ni 2.0134550767235817 6.6813166764711776 9.426218184795971 0.6863498182576825 0.9921452582968009 -0.5102009695748245
Ni 0.04608530788543385 5.14455932363465 1.6503902605153469 0.12435191861622455 0.7939898234358648 0.18717451036940025
Ni 6.662417971550107 2.3510517684419456 7.295664981994872 -0.21835967772295295 0.7960189380507515 -1.3059221738794993
Ni 3.3023139325925484 4.0704054362153395 0.026838348971123957 -1.2093330271988398 1.3236699847812234 1.3922788441988732
Ni 6.328030321863685 6.043410173462418 4.991318450012713 -0.8301693586802155 0.21109014064473322 0.9334611141920311
Ni 5.849454579060209 3.1504678982629035 9.580838399495843 -0.44544593668562643 1.5210728577468515 0.46451118084719356
P 0.4453922425419199 6.066921876304407 12.919351602532238 1.3762037930138815 -0.7725614783587598 -0.5636050962275777
P 4.273814941376425 6.324766580251653 12.704475242064968 -0.6939697966967854 -0.12756014114087708 0.7822874473972721
P 2.215296527255422 8.53381823878014 1.8657871786531397 1.2020501203841814 1.0494955140814957 -0.43870270442452186
P 6.448105016757762 7.990961372774317 6.237587301163991 0.4333684366958021 1.5630083216383728 -0.9148668961296116
P 4.675783922263953 1.0855496332713794 13.198715121286863 0.7938944355085812 0.7379048075168388 -1.6864837511869148
P 4.099022433199054 6.518293694609824 8.585285985346424 -0.0988378335055201 -0.7655752768489137 -1.460166509179782
P 4.980442350171498 1.482021306359871 4.175643781669692 0.06628843881458905 0.24423680260003103 -0.06861323029302377
P 0.4053640014917776 5.9115568356556425 3.6957078426413124 -0.06681345808012365 -0.11202836405386514 0.20051493623204822
Ni 0.42579247133603 7.9067878356125965 2.774129317286179 1.012581928884598 0.4205113782274758 -0.48993322046472393
Ni 1.8218971472486483 7.034958578349254 4.713302364247636 1.5015365874861366 1.0893900362835884 1.4086683413004901
Ni 6.105366564510946 5.672820518353146 9.343718454785002 0.2548914541003997 0.8455278434141567 0.27588399719166684
Ni 9.038549497463285 2.6794224643184745 10.337309888988196 -0.0478518293759563 -0.8585934183488633 0.9721346195028291
Ni 2.347979475360228 5.678682490019449 6.937791155937171 -0.050475897262364684 0.3095507933164927 0.8570857234550853
Ni 0.6443063538792807 0.346918411825356 9.172874344630458 0.3210418246752278 -0.5331100129625141 1.3186491345278644
Ni 1.7638517761765515 1.5451446217836495 11.859018475682316 -0.2553773925978828 -0.02412671784487458 -0.2803222354686785
Ni 4.525451242983464 7.199504031856444 1.9987108049103415 -1.1269980764443492 0.19245838447615887 0.21022727842380565
Ni 5.835615585297457 8.381042311588969 8.308630095806251 -0.4448491836418919 -1.0253158315114987 0.9203914254922665
Ni 6.9232985021923446 0.9647911936261783 5.066974350894762 0.07105989206130343 0.26301922541385675 0.04184881771498599
Ni 1.0193631413625646 7.906724019435825 7.145809100720832 -0.3480759459748844 -0.5159376149482856 -0.034416529806656854
Ni 4.850439681491099 4.797426671787275 7.08858148837108 0.6657771363126533 0.36402938398034723 0.4796727190789803
Ni 8.461550976884663 7.451869661198016 9.27644252957273 -0.7040364369041681 0.07496925441803863 0.564969323564956
Ni 4.846720110044984 0.4580798101437791 10.448323598440377 -0.26495963696967917 0.5390888562537683 0.2922169300237354
Ni 8.366355474334823 7.689502870302033 5.149994638576254 0.43215307623146215 0.1334058012883767 1.2870677601771576
Ni 7.259509471215097 6.286485990785383 7.198127425757514 1.0493487040909864 -0.8190706776638926 1.1562680290530603
Ni 2.575538845131017 5.5618441869473605 2.786724807261553 0.3786934137504252 0.4761788469931089 -0.5163662178452719
Ni 3.8113026419260243 4.655754759354357 9.909544586130258 0.33137585961138416 0.5275078362843882 -1.3396231656763702
Ni 1.36996921654565 3.9037996318580954 3.8159685161076955 -1.3394059074592415 -0.47215172811158684 0.4764845511589859
Ni 0.5606004981273296 0.4925788353064977 0.6632980480865043 -0.498267194251716 -0.6903491692250626 -0.058528849473828234
Ni 1.4791860447918763 3.6627294658050937 8.261556548840526 -1.1371984140161189 0.5746161026261007 1.0710601276261489
Ni 5.415458994030027 3.5324077162408365 4.733864848063109 0.7115101195733939 -0.9026688114015228 1.0837755183102884
Ni 4.370277650865015 7.3524349411912056 6.433130095048476 -0.7754012618004 -0.5628952146447466 -0.49585909903085573
Ni 8.210251989354845 7.409687168351998 0.4707135898252165 -0.22802908249191697 1.5845284550983356 0.7201492833056307
P 0.33446969905655616 5.898930349251551 8.132755447602769 0.12148539570170691 -0.09595588397203474 -0.8946451697660979
P 8.770804169519762 2.05630308112736 8.26522597900489 -0.16575362149146292 -0.8625161504420371 -0.7566162678834131
P 1.9915478948975651 3.669803944830058 10.611335640385713 0.7990615815318174 -1.1595454142527515 0.6865305668099209
P 4.438524493623884 6.5516513218679995 4.162087402404071 -2.138088251274769 0.7258265361960661 -0.18522947082788746
P 7.429716331261594 4.217529073463886 10.827133688777497 0.9958802998592009 -0.034397246532947214 -1.2589851430083285
P 6.630847197241536 7.9121575110580915 10.559978204639277 -0.226597492251713 0.6076676337644309 -0.6511676139295947
P 2.586925474386404 -0.12368395552034431 5.934352885658122 -0.04380079923503424 -0.25543909907375356 -0.7883948458465906
P 6.900434077714754 4.491965983371745 1.8102133169414394 0.028342041477802803 -0.5713119779535323 -0.0432014750881385
Ni 2.7078753625619196 1.5289170796903038 0.8331128944756907 1.1545309917572952 -0.9134646164654462 -0.4243626336527659
Ni 1.5388268202832627 1.3317797930461974 7.219890565355961 -1.0550498682408216 1.0086049465147209 -1.0268623500630123
Ni 7.048642589968418 1.0795235628648057 9.307985954091256 0.7858078018457048 -0.7335907535225172 0.8906859280080338
Ni 2.6617180335627006 1.864918366989378 9.545745883889147 0.7713134648842717 0.0689346181881845 -0.13009242064442758
Ni 6.162181195031019 2.43706685813336 2.537209937702335 1.1900494963788795 0.9561091906088501 0.5393742487046711
Ni 4.4537036270988395 7.1747160054790236 10.674342263371967 0.027162933568037086 -0.09852184492699807 -0.15331590994874242
Ni 7.748551067009112 6.294380963511697 11.673256878377577 0.07390867436400819 0.17226365469583882 -0.35600805633776755
Ni 7.952872231838362 4.039600456028027 8.412693311948336 0.12736448019030325 1.300481205369586 -0.23211790784930994
Ni 3.221075939562321 8.556691779854413 12.501046592050852 0.6816660396287679 0.49774037521396863 0.5526761080198997
Ni 0.38862866496326365 5.010007473210106 10.203532037621924 -1.150898537211031 1.1927344994102105 0.23835231879479593
Ni 8.841175179305456 2.6532578318421254 5.957303006144519 -0.14676833863821173 1.0434485365564674 1.1099714599793657
Ni 4.0201547553060575 2.997409356574599 11.531846612269424 0.09416048263450881 -1.5333689015053849 -0.35815852702186707
Ni 0.8987751820753104 3.740074672052254 13.130585882625187 1.27983061899877 0.6995310928346469 -1.8367061098119981
Ni 3.1158339474692966 9.027965128715884 8.132781885733145 1.3323870529392472 -1.1588090503073591 0.7106431435874084
Ni 5.717464492303209 8.345615216884056 3.87054137550375 -0.11210601136933596 -0.132900579517184 0.9708560099007215
Ni 3.384928531721705 9.29418798501357 3.6409872943790154 -1.9436609159976979 -1.336981357178149 0.5379979371824347
Ni 3.440712986816752 2.7650728901426227 7.1995824345879065 2.139068870020484 -0.03304484627011083 0.7821167261473627
Ni 5.6991948325531725 4.824211232837977 11.738184368284657 -2.050959478676061 0.21505401038848768 0.27330440938994865
Ni 7.801782875033296 0.39490361845924676 2.6044184000991635 0.8485684300126934 0.9814116739293807 0.7510657703788292
Ni 4.879330176375263 0.5393542695607328 1.9312744275964715 0.31901039606749576 0.3545728665531377 -0.7778888041089441
Ni 6.138614792608941 6.112021680088554 0.5300170512393818 0.2872649853350988 -1.5880467526642392 0.7663008421610286
Ni 8.19623978025514 0.27561295087979193 11.37399821068458 -0.07371635584754402 -0.7946842783997281 -0.12511039404880392
Ni 0.08109395080265697 5.12979955360705 5.819802848353127 0.49765630014059453 0.823682208293975 1.2670388665507406
Ni 7.573621809881518 6.838040090025507 3.266394541666828 -0.9997721787144395 -1.1359524574241597 -2.897101044414817
P 8.348888075092772 2.195203548169055 3.943928155471736 0.4305093699804521 -0.45429335977392726 -2.0585195504115066
P 1.888904132858812 3.2731317066145706 1.6469341587133313 -0.7671318227027563 1.4227932107376464 0.9012318218446802
P 4.960805200919213 1.6176944981762595 8.497995483779247 -1.084124931229907 -1.3950263250370232 0.14250030739047717
P 8.793732410174124 1.9448435700974467 12.555820016573902 -0.5335041630771392 0.03221875082438967 0.9500534713330733
P 6.495401920342188 8.144402811523252 1.7453523781901372 -0.17903336931950453 -0.7373013696048851 -1.3615150806534553
P 1.8250150233137745 3.5774801702349386 6.145840607138821 -0.6261932033724441 1.0813229430047377 -1.251427899486361
P 6.94222455690346 4.295512441478763 6.151231250756683 0.46018247156485265 -0.28370426456703396 1.0161735028905983
P 2.6016578946239584 8.868123839096427 10.412150766126906 -0.3479923851221426 0.29135561046470465 -0.35165466446507826
