# total energy = -340863.43757200567 ev
CRYSTAL
PRIMVEC
9.28689803721171 0.00000000000000 0.00000000000000
0.00000000000000 9.28689803721171 0.00000000000000
0.00000000000000 0.00000000000000 13.59231401150089
PRIMCOORD
 96 1
Ni 1.4543746735645267 7.383956940730588 5.058108109699257 2.504317985340545 -0.9633363044849086 1.8712257408554225
Ni 1.8247268820321985 8.88768219068362 1.542836092520317 -1.1784111408090028 -1.054828496258635 0.5976768411003062
Ni 3.3727227751248625 3.275396083263452 8.655408511535093 1.9115421810862818 -0.9745177750230248 0.6868750946335332
Ni 2.2635699638279148 7.5844517833447105 11.538637462744761 0.8953452811569163 0.5314429096727363 1.3535503172804237
Ni 9.072008543743284 0.7060596436539514 8.353822997268393 0.03914684540279064 1.557813921921627 -1.4207985489051207
Ni 0.32119015611015755 2.1196787650015123 10.510596419264376 0.6383262391905522 -0.1770785595859789 0.8068116577908815
Ni 8.480507431335177 8.184756875131121 0.8253647085076536 1.0177912409996794 1.5839409580259818 1.274294005451257
Ni 5.353980324268138 2.9048581368342123 4.72023032643206 0.09741267102321934 -0.2960126496207418 -0.10559726371654071
Ni 2.712832945267572 0.5498549466654261 5.096003297308081 1.4807430477795531 -0.19262704884353923 -3.125964192772255
Ni 4.967747520086437 3.7102272250893082 12.1547637140975 -0.7088893941210953 0.9386295457668479 2.095252644166482
Ni 6.850350350943093 2.609200449610942 10.718409337564259 1.6778062780175749 -1.4637328863748016 1.7991644041127983
Ni 5.739089413782353 4.272418887162053 10.017861467919825 -1.597535923101597 1.792085899999462 -1.367830738458838
Ni 8.745945552211401 3.5427194444495886 6.226394315820475 0.4217897307192672 -0.8100813296810887 -0.6805021012276538
Ni 6.8065626265035375 2.2681298307843987 13.089330271039387 -1.3335993280797935 1.6574624242539007 -0.29622245163870276
Ni 9.379581321201115 2.547358995307017 3.1232822648784526 -0.22731740113687304 -1.5695340385720324 -0.46932222908259175
Ni 1.117195265032824 3.2688581070162734 7.896060646707404 -0.6393428533805248 -1.2692250755687817 1.0275406070769593
Ni 6.126965998923926 8.874615525087341 12.711232789574348 1.9504190606571379 -1.4286082747575266 0.29545369179347825
Ni 0.728821830844058 1.5320410021940094 0.7732206331771717 -0.24574424038349285 0.9685350750770289 -0.7458328041146639
Ni 8.895111709146324 4.293435137513425 9.772724506242936 0.9376792660384368 2.268742457959938 -0.7539050395998371
Ni 0.6093821059682193 7.347022947072874 3.1019697624783813 -0.4882771729185397 -0.3447923901276062 -1.980941140505395
Ni 4.789866274293168 6.813490652470008 12.757705356248362 0.2763115716473887 -2.11452769034601 -1.717252399828339
Ni 6.602111565308026 5.920573976030033 2.9371356797954262 0.5153210644102092 -0.9291527166246644 0.9528649726399396
Ni 3.916275632754301 7.723987426972353 4.7863706858564665 -1.07587297563376 -1.320005391445443 0.8314734222036196
Ni 5.137428434876498 7.609795728200607 2.7272573553629105 -0.1677248862852208 1.2059101175602198 0.041222496984896745
P 8.517478572585203 6.220364332898183 7.899255339646366 -0.5669956099663653 0.037957967301012044 0.6010874094437519
P 8.634994980869008 6.173604801073545 1.7501057272826164 -0.7468705013505589 -1.3033197032596457 -0.19020995476161434
P 4.7132400782484645 2.244624691748022 10.69335885868764 -0.19923041309266978 -0.14252704686335455 -1.473004798595031
P 8.068698509845621 2.597071760720579 9.042790105009088 -0.9354771161807954 -1.6139529310070397 -3.391557863781508
P 5.853829039540725 0.13976131525094748 1.3183754807251304 -0.3703625252872267 -0.984145527920776 -0.2735232102689741
P 1.1014818334842071 4.717474903772205 4.976445628826648 -1.4836036571567996 -0.013029579490448528 -1.6469257863886344
P 2.003991875639146 1.002994279362999 9.114856434097309 0.054319182267854836 0.6129656489385766 -0.36352441931947066
P 7.682716451912037 2.42543131043598 4.402781861557681 -1.4049664669688706 0.44511837814287863 1.096061534766493
Ni 4.216428178647507 5.885608804764938 8.102881724292518 -0.9341488842876751 -2.0215311461126153 1.2715588659082813
Ni 6.490223017259717 7.047139721223942 0.9334159102699764 -0.24581931659580245 0.013965461041156596 -1.2042113897015585
Ni 6.636073751580657 4.888725304337512 7.878064495611121 0.4882632889614688 0.031053783982011036 -0.2632254278873918
Ni 2.106212762787863 2.731741069755152 2.210273384445906 2.0553203267479185 -1.3447111217222387 -0.32912434457304607
Ni 1.3269119974387764 4.3625482330127205 0.9919493714783828 -0.552758640431377 1.181854619272913 -1.9031269604393937
Ni 4.2839346407792425 0.563759290468375 9.294573699640674 -0.7632438005022597 1.2474899978845353 0.24896686108584865
Ni 7.483066717023047 8.602267952040801 2.892118370050292 -0.3438007156382982 -2.712434645179251 0.9756909693955196
Ni 6.985660455945074 6.328324523059337 9.90972111193595 1.7507153074724755 0.20412399373954523 0.05885537957531154
Ni 7.717570180400193 0.831309251967624 6.232239489471006 1.0870709012321085 -0.5886669242922119 -0.8757511610750724
Ni 8.389449395676671 4.528792995513781 3.6356311449645378 0.9152600178029723 0.661955448573718 0.06320645745515566
Ni 3.9403565594715375 2.0387527351465184 6.657855242333687 2.3998124120262863 0.9233677345117711 -0.5066633887352113
Ni 6.642054513943133 2.5559958105199097 6.856643153081003 -1.5649649311441112 1.5278654551886526 1.1705985867431195
Ni 4.9602622802352645 2.3776130722304076 1.146424848044714 -0.8882274391652123 -1.6469175588585185 -0.8917850746094835
Ni 6.250621046837542 1.0523912902418961 3.2668447075128806 -1.4743381726944735 1.8387568216934398 0.3826657681346119
Ni 2.0109941967902443 2.849025305586999 5.713583876899893 -1.2928547991725798 -0.9637091144432952 -1.0546071242764483
Ni 3.6689283893347575 0.40788334967182455 2.6396001817807075 1.477278229159404 0.9944571942594294 0.3270252959521723
Ni 5.364390937014 7.232376190295287 6.828207599854815 0.43140051433615384 1.4809068270509271 -1.767700272066246
Ni 3.0686140106502675 4.9608659286103585 5.771744933495357 1.8071587351721845 1.0937344292952131 0.03174386807050017
Ni 2.0114956892864764 2.787128129894603 12.437035266430595 1.2179837608953026 1.1979872631687174 0.9345923995829968
Ni 6.704378886947134 3.221429918529992 2.30941566488164 0.43639205401347425 -0.16304239320788694 3.0130770802625206
Ni 7.925290229719294 5.632605840415661 5.737397340952473 0.7251241108124028 1.837491581827771 0.3458987358179075
Ni 8.664332291898608 8.231887882878894 5.216634531207376 -0.9028945542590836 -0.1711259415469698 -0.5368044310949659
Ni 2.107225034678406 5.275784642448187 2.9358856633140764 -0.5115132606283449 1.1780010498547777 1.288766745146135
Ni 2.7816117124360464 5.594362394128896 12.859905812221307 0.1709238528384927 -1.7296821409512597 0.31176965534468243
P 1.96129071827476 4.499613561751515 9.468297201164251 -1.2015083889480986 1.8630020673940495 1.00465213251456
P 9.3561783380436 0.1658017774627219 2.8030616609276775 0.44207624888244507 1.7867526607120068 -0.44197828985200005
P 3.570255097251982 3.966452743071782 0.7513936366235578 -0.5743795611352625 1.2378367910654875 -1.5383550418660668
P 7.889693549384867 8.46473827839809 10.905616486407837 -0.8221562585677518 -0.7289697098107382 -0.9379044946753653
P 6.22651225942607 5.652461228507235 11.833971965914904 0.8247163059854442 -1.254692943390878 -0.1375175094639051
P 4.771951847899976 3.9952142664205215 6.983595049812442 0.7718647094020513 0.29916507920679447 -0.1868425809512782
P 3.2981768442497152 2.2587593506233143 3.831265225124436 1.1204404778314896 -0.2258685845054884 1.7722410973593932
P 3.0212136828582214 7.537404357679643 2.81619147743089 -1.489594584632912 -1.1168707582023605 0.2531343621999769
Ni 1.0604151701816156 5.491974342814769 6.970166195191107 -0.28863949708512227 0.5628455923537339 0.7246235170269003
Ni 4.480538273098524 0.9511269535952527 12.458796326007853 -0.33598199092482783 2.3798223420576043 -0.49559658939808837
Ni 2.998627946731604 9.487959421775797 7.205992112854614 -1.3419615840015597 -3.0733758771525777 2.6633088341868776
Ni 2.958527120829164 7.671655756300687 9.417190472349127 -0.7097329730683132 0.19441499398189743 -2.853352181463641
Ni 5.494537526684401 7.847075974103187 9.094236734293885 -0.7861407597050912 -0.3555457719893683 0.9195244495062809
Ni 3.7677038372963954 5.6488021906643535 10.64410022259011 -0.15959145854480902 -0.21317941907359414 -0.5426374928369752
Ni 1.2335786717510684 6.878619668693679 0.44215014620142695 -0.6191429813938821 -0.9746280753486442 0.5335913234743068
Ni 8.214484235880013 0.6747414372642342 12.354190563432608 -0.6397406030395756 1.8239637225446652 -0.6595236992037737
Ni 4.088018238917762 3.97752272558121 2.804379471765 1.7637605706922077 0.9926157701753163 0.8118163100943245
Ni 7.476110830362342 8.139529681489417 7.653437648340332 0.28597403443781716 -0.06621567659512467 0.09401187287178647
Ni 8.476151876136417 4.733244056709292 11.998493080132619 -1.7974955010508076 1.0684795113831664 -0.5828487749485382
Ni 5.39761945833844 0.07322069051936271 5.210613835183163 -0.20330098361761761 1.8039893363052673 0.9510924541205491
Ni 3.938322728792372 8.389430821880515 0.21271825786488424 -0.5355834142036712 0.5702369997217986 2.739635116853443
Ni 8.342717724546269 3.7123260640550217 0.8296338955542845 0.22006071957445972 0.9020900560799174 0.6445704203280512
Ni 2.3151586826533093 0.756170816995076 11.540689867220085 0.3443463037291231 -0.5933746141805265 -1.4044324488422717
Ni 5.70027017981473 5.291572369181432 5.39179935931272 -0.7008402985643737 0.03007419367756111 -0.6357991018933243
Ni 0.6176632329847097 8.980495450078939 10.176171504702719 0.05861883808447324 -0.6702369718562199 1.224931395857729
Ni 0.6135974290059953 7.979822895235535 7.304332933986183 0.8678907844903893 -0.004867098284314198 0.3940123034956827
Ni 0.5490887775739599 6.688944062340869 9.81790526539425 0.12154941617042293 -0.9856192842528251 -1.249032916891623
Ni 8.246635477027361 6.956815350513629 12.60649050959735 -1.8391964803340197 0.5396915228347738 -0.9914150649989958
Ni 6.807992808807608 0.5249558442274845 9.405813093513304 0.44100975529114367 0.3920855187866151 0.08570386722672337
Ni 7.744353594458238 1.2102128361858673 1.1763138008201683 -0.08102728768666045 -0.3268571458054242 1.6031815514231487
Ni 0.6832825974269192 8.928238074591901 12.813868801067168 2.424797621216714 -1.4858389742452216 -0.17507078512733076
Ni 6.041637979379781 4.670771093336038 0.7950114108282801 -0.9862348063496369 0.9221572591434377 -1.5559136195751204
P 4.2405648267532134 8.258002640275295 11.029646725003818 1.8902233650038482 0.2421228415808217 0.6430861224730409
P 0.8055780434618596 0.6890098274718555 5.705143015236454 -2.3380732831452766 -0.34888018704373464 1.7461073763868185
P 0.7959196694603455 6.244723866557771 11.877100320590896 -0.1490699901881949 -1.933452093785496 1.3291407780878077
P 9.221926939422556 3.015000748043786 12.646751070146738 0.5429054017863811 -3.2198122863726675 0.13121573561559335
P 6.570443242860754 7.65754895811963 4.95891103656486 0.39790212546839215 -2.0782985328106465 -1.0994155388403906
P 2.7951798705285578 7.104532751348324 6.999090239256218 -0.10047819732242051 0.5060506948518768 -0.4959848259754425
P 5.563743491164481 0.21930081122283918 7.433201646481 0.07120361672801931 0.5095610219979805 0.04888438440552872
P 2.801801428858442 0.844221755055802 0.2048819732663481 -1.4256589623212157 2.32286520794627 -0.7539022113863596
