# total energy = -381172.5865372291 ev
CRYSTAL
PRIMVEC
9.19989819138367 0.00000000000000 0.00000000000000
0.00000000000000 9.19989819138367 0.00000000000000
0.00000000000000 0.00000000000000 13.46498094305018
PRIMCOORD
 96 1
Ni 7.022963065825829 5.48971723666808 9.30154140521683 0.5816485839928498 -1.7364120034759256 -0.376645530082461
Ni 9.050519423671773 5.060652385803387 1.1558531263561493 0.4864974553102976 -0.878253615781952 0.03438079147271498
Ni 8.47987733986491 3.137156076161281 9.738076573395777 -0.286631465516158 0.27824015612866915 -0.18799726338101172
Ni 4.299958805595247 2.6140222665056547 10.174247425607183 -2.180759307780735 0.9431068648119113 0.6028306173871038
Ni 5.074332634382567 6.096790917229181 6.278694063821058 -0.3885931893626404 0.8438172884809532 -1.063080194744466
Ni 1.2993660178733395 0.7989899963214909 12.84486470568684 -0.06231608443040235 0.6480714915027742 -0.48732149387348983
Ni 8.182591830391054 1.6095773842764145 11.77066895550012 -0.36005625826521215 0.686380928605934 -1.3185532323799485
Ni 3.17079090387176 2.200155647418234 1.029935040089586 -0.36023520704523765 1.0558199136376267 0.10936033030339874
Ni 0.8373655315591062 4.164849101066774 7.904226831494158 -0.026420398975057727 -0.2380137045084546 -0.1414176158492597
Ni 4.824509399569093 7.629190355755265 3.030226579718139 -0.35368866417597156 -0.29048040694860294 0.5300748256806161
Ni 2.495867974304976 5.664662500273789 11.359650624886214 0.5617384753324841 0.2800823515437305 -1.0643595756775217
Ni 6.4812638616626135 2.656774193302864 4.229027590702524 -1.5330405716316886 1.281176077283071 0.8456481710421049
Ni 6.148052749833883 8.560266050076663 1.46682072438882 1.1636406673680477 0.31811899460147797 0.46275023229202883
Ni 2.094522416627282 1.584093666344788 3.4542121668030314 -1.1262439718871442 0.043603338512247486 -1.7890134317217254
Ni 2.9668567611315555 5.045426554331602 7.102373826862082 -1.0213216227504411 0.60578224381626 0.8893222148912878
Ni 5.107719064842449 4.116264438829619 1.4259014173071274 -1.732773892502706 0.17149566618156273 -0.5537433729421496
Ni 1.1643851119192508 0.8061576369859423 5.315476685262214 -1.3830102744127537 0.08555628590526555 1.3969160858605685
Ni 6.374554242785741 3.661945867487555 11.466494562276372 -0.4828369757395749 0.11413769708738405 -1.4232932903025166
Ni 4.362536512949371 3.84731461572017 5.509735295096754 -0.15003209699114806 0.09265458751294366 1.3607267804242051
Ni 8.887920423410556 2.461607553518919 0.486050860110933 0.5189918283935772 0.9967735010974319 1.808483110410563
Ni 7.504467336261018 6.5940638131282 7.213459837298549 1.186493660706821 -0.38310954054024987 -1.0931826705568013
Ni 0.3305256615528314 5.856903572439591 12.188971765485244 -0.33050914073571463 1.7525341058487691 1.8501475800288845
Ni 2.651070256437301 0.4113642467851094 7.065075599700204 0.9156641952199263 0.18031506424540558 -0.016626552813087496
Ni 8.569208351098158 4.612056151123226 3.6932687607878467 0.6057490765854794 0.032998309302891556 -0.5128551193682199
P 7.869050100850344 4.236681905980182 7.635331287783914 -0.14376271904266855 1.0010618440601404 0.4201863907878892
Ni 2.354364340548171 -0.023354861495027926 1.3759726499472966 -0.8914408038961873 -0.2594021974865597 0.7026992061499834
P 7.362080512279869 1.2387386889313106 5.629008294914938 0.11888318219216945 -0.4625959661023517 -0.2066184780266248
Ni 4.770975192116337 5.269122078341531 10.130863465805676 -0.5035161013554812 -0.12933060277773853 1.4513550815357392
P 5.673540402008093 8.630507272606616 10.129638039369397 0.2826439416233197 -0.1307436810751813 -0.06600047526052505
P 7.883834337209955 6.491402149446242 0.008439066591581628 -0.7589549433189188 1.3801895171345069 0.41399183194140315
P 8.661023334837376 6.623613886051082 3.9202891279965075 0.7593323812629955 2.3310888814076436 0.3900553757304637
Ni 3.047484668695734 5.809579296251761 4.7797850146041805 0.6824954775085987 1.0278116013501588 -0.8635805871508094
Ni 5.735087720767147 1.6490633472231804 2.076663574299169 -0.4234177532409934 0.6872581890045648 0.24369275717110286
Ni 1.2982436302965674 1.8417000150103033 8.618166529201027 -2.089312881643279 1.5412449618193522 0.6045524851742168
Ni 8.687592640753094 3.7621787580525625 12.066198204413276 0.6641010341618111 1.181746890050455 -0.8381271800747114
Ni 5.722345861801334 1.3643264988535617 11.423299200387357 1.1470902192085344 -1.0188129973959745 -0.2933734122256818
Ni 4.014550364659199 7.74405108441099 0.8587801345300258 1.6128221598367063 0.07906296487143803 -1.7333225659173246
Ni 4.59852310091477 6.526692958827369 12.330071523712373 0.6293312347807936 -0.0611958547830301 -1.1664028034942169
Ni 7.074740092728065 6.283788047437932 11.44861364019265 -0.12123934112917185 -0.8534905499046591 -0.04190512487421815
Ni 7.728898852124568 0.7665667952000356 9.518260646444249 1.1430980673300057 -0.34215212429128167 1.962426626640975
Ni 1.6785674206552117 7.635924681215896 5.882836245401926 -0.6789666384197338 0.07825563847879427 -0.11255981107730291
Ni 4.148592880999921 3.146365174229714 3.399652170704291 0.3865039109337795 0.31798786834025233 -2.0086110956168377
Ni 0.4169669847707992 -0.03051146228167499 7.799859506691435 -0.9276473357237315 -1.5501255521384336 -0.34374697958222733
Ni 2.1084234627625484 7.713406223605846 12.745681523503057 0.2758552008362604 -0.8611930607552395 0.6763669960133577
Ni 2.740346068281527 6.921856184934646 2.423844731499443 -1.7945086505083416 -1.190979978612949 0.9426756908117636
Ni 6.102458054502062 0.27957110554701653 3.9578421923377016 -0.4786147101281112 0.23887193874369184 0.46204395025362366
Ni 4.735067989557803 0.8031078707425005 0.0011472273018317113 0.23057473173190615 -1.1753129614996531 0.12661757472194968
Ni 6.3838093403450245 8.080574159581015 12.706673955261145 -1.2456732563907709 0.3825382414178121 -0.35046167259824157
Ni 8.113196998492764 7.6244524081975795 9.33848911625842 0.08497547370113108 -0.22230246442078488 0.22880915519105113
Ni 0.860193238888978 6.670790963868187 7.813499275718666 -0.08167726256583352 -0.08057708752311929 0.7575434076833727
Ni 1.1906416212971793 7.533345816617472 10.61063355543577 0.34082312106721296 1.1857159020005321 -1.4494272683854068
Ni 0.8426168334346918 5.330402600053648 5.69269734996803 -0.793942258027381 0.40714395578163426 -0.03776642011549625
Ni 8.532252360148213 8.34690201171194 11.795148044551556 0.837360477112016 -0.8724547497119877 -1.2553187499003349
Ni 0.5060192390894873 7.297000432623433 1.2613915981959476 -0.2709114836777399 1.276639622865298 -0.18067013359197917
Ni 8.01619327218552 0.3654558349256834 0.08194257301270948 -1.2156021480370032 -0.6130888047800022 3.173146763995329
Ni 3.8548217326271046 8.779637621946568 11.437720040769243 0.4775572153978743 1.1096256466041727 1.1774798872439851
P 2.405644572949213 2.4379362155268343 5.976404729732396 -0.26219492974034847 0.6397465165768467 -0.7422327454682314
Ni 3.942873958014685 4.062058638810433 12.328065025921438 1.5654819799898458 -1.2289736842479029 0.07602777758954003
P 0.29704171217234465 0.5506801447570258 1.6827588942615834 -0.27492626126408776 -0.2941622266755643 0.5288836335859924
Ni 4.084662788614768 1.4540347059117895 4.927819656072054 0.10393478841245325 -0.6099926823531817 0.7791324467080581
P 5.267778893208672 5.225091365698655 4.02646055283042 -0.12884749249373292 0.26807221445673185 -0.5414483576248804
P 3.34580056676466 5.698748122994611 0.3174728460288632 -0.5063484285979538 0.05373117097486876 -0.15697664662978125
P 0.7152240034914354 3.485537820072775 2.349935509569007 0.3730752962326994 -0.7468974979337524 0.033972757401018905
Ni 6.930669687381757 4.392518981086256 13.546174783185569 0.11486146262728604 1.1586020765028757 -1.2455107626709776
Ni 7.173114603862681 3.772556243188619 2.1976063556352545 0.2887166301799608 -1.8241532128476519 0.7690200408644046
Ni 1.0036168913939167 8.304177684609241 3.68461165660963 1.444108427275655 -0.949714599936416 -0.6746338153723349
Ni 5.05479205066893 4.614705721796262 8.046928291992732 0.9672464381725921 -1.401496249032083 -0.6772370573231368
Ni 6.579895969945996 7.122883159853048 4.494341614055085 0.9617735879834791 -1.3537691181594491 0.04704733119678994
Ni 6.579270376870417 6.18479714312591 2.1671749324676606 0.5532978007642987 -0.4197117651443158 -0.18504615117248777
Ni 8.455157213481415 1.7092490810530367 3.5547146143844284 1.7819711801629634 1.2319047418517688 -0.8110825172520933
Ni 5.41885042106255 2.1913513448692927 6.81066805562849 1.6247739328819437 -0.00926317046948082 -0.8272660689904914
Ni 3.568530101466711 7.485690344095513 7.2527102828521555 -0.6700521095389235 0.08886478145320824 0.5371055072751523
Ni 0.3300583067257821 5.386034384289224 10.038587567168129 -0.178814311330163 -0.4400877576975066 -1.4376449310384982
Ni 8.467981871530762 8.306321260882912 5.701651610857145 -0.05083842280810599 0.09203443743044148 -0.2549657589817609
Ni 1.7922597622433134 4.138095797187651 13.067144365368364 -1.175820240153375 -0.5098685259360703 0.9571576864780225
Ni 5.6884902365347685 7.21696131854215 8.348678512048616 -0.9208997325872528 0.9179085111694126 1.3775312535760533
Ni 6.185634333859404 2.3527635582665454 9.053153354517917 0.8890183104976237 1.4811557098369394 -0.21329100495079395
Ni 7.066800580607129 9.258225524661784 7.547862335940328 0.7681317247221804 -0.6263664957255147 -0.771320149752491
Ni 4.936545759486548 0.560262758691171 8.312794309235509 -1.8017941284261614 -1.4680533681270265 0.8281420438375415
Ni 3.542816386080828 7.35231942032122 9.743583632440496 0.16903460623557987 -0.9895978092845988 -0.7571181472204961
Ni 3.682213243156643 8.321418293780312 4.921046691039107 -1.530761545789525 -0.22026872182020774 -0.5653681016652714
Ni 2.607315540739534 0.3411386640820461 9.493215763655343 0.6135516033490336 -0.974491806881096 0.7365310670977637
Ni 2.7589298625854566 4.49192388081594 1.911340484189738 -1.143402485944302 -0.2053154429444851 0.835681032527064
Ni 3.2887059987200122 2.630821280564554 7.864841147437449 0.8850580402982952 0.9975905976820882 0.6048147376966682
Ni 1.7559201644707774 3.257867940053293 10.644161664327473 -1.0058911471279839 -1.5969044601651852 1.66723107360489
Ni 1.9506084095498686 3.7853901011361346 4.171747184714837 -0.6042220984179917 0.23982581801652889 0.8561115324672739
Ni 8.561342438162583 3.2641238708090716 5.419775930818479 1.1692747257253733 -0.9677066656384623 1.3232213272795794
Ni 5.581992215315812 8.454301622951581 6.039165515060109 0.06894413126988126 0.6373078252283669 1.4657139213605725
P 2.6931689904644216 4.511372465547875 9.40042835067953 1.3791471919129217 1.3905209809675019 -1.9808130995679627
Ni 8.094153209280321 8.766868163286244 3.1771829931204585 -0.9534167313783516 -2.10743813048908 -1.814808281297642
P 6.384940927819966 2.2561094280897693 13.600708099579618 1.0608482200901537 0.2639131979830358 -0.9943926595700809
Ni 8.20666796390263 2.1619024708262833 7.4533922615891735 0.40138622736225066 -0.76537164547854 0.7716338243381677
P 0.6275048144176183 0.7872343664395298 10.67696206127391 0.3445931296326065 -0.7333809515045563 -1.3072817732311874
P 3.223469520794682 1.7571805505201032 12.190170512216827 0.1308113010883231 0.7770202854610617 -0.36365605980132854
P 3.825455657667627 0.6057553351533013 2.820697978900598 1.9724796400016031 -0.6325844516107686 0.09305362272357522
Ni 6.786350884784852 4.718600171833034 5.775130277553214 0.08049481222195815 -0.44950982234235487 -0.6142211186122326
