# total energy = -340867.8461472184 ev
CRYSTAL
PRIMVEC
9.24349481584649 0.00000000000000 0.00000000000000

0.00000000000000 9.24349481584649 0.00000000000000

0.00000000000000 0.00000000000000 13.52878900976725

PRIMCOORD
 96 1
Ni 2.693767032820839 3.3751050465988324 0.7094900020395892 0.2520717252634175 0.6898341772618571 -1.4112900951940535
Ni 2.733477087185108 6.22897865568678 7.191308748518306 -1.1118221400348591 -0.6266135787393143 1.835710064447316
Ni 2.4247535988908306 2.2816088358822024 2.7130766938001125 -0.9584620071117428 -1.824371242395729 -0.8766636455870128
Ni 7.744514359458296 1.0928584095641314 8.539614838803647 -0.05391294796837167 -1.8074166168192614 -0.8221614007740743
Ni 4.042097156193086 6.528939310755423 10.681479593474384 0.9718582259129908 -1.0596323454051815 -2.440740774809532
Ni 7.499081081180813 6.759619971070762 4.391093627694924 -0.570875661747062 -1.0031174410375885 0.8461947875741944
Ni 4.54163411102405 0.2531007573499134 8.0282674704575 0.05174447956214315 0.49231766153650053 -0.3346879547037527
Ni 0.8761566866824716 3.5644395539413183 12.115206669418729 0.227791255449498 0.7998413971206353 0.9890139117566707
Ni 3.6543602729486753 2.809606511706551 4.448036329720112 1.255417223151412 0.5482599812300751 2.2184483376910764
Ni 1.0719496239561295 6.464022245625009 2.6123281447922184 0.848899330989551 -0.20108417847195692 0.6961392935442785
Ni 2.1263181204912067 7.9097788059151775 0.9140439238398891 -0.35379485073653266 0.9675074051434628 0.2798535233623761
Ni 4.252885815346435 1.6171679308979439 11.506640842791345 0.16467812903909704 2.0391072073231653 -0.01882767422946435
Ni 1.1855614205555776 2.553071795977605 6.61128960738747 0.04044988048493034 1.0816427882380018 -0.5639051439664998
Ni 8.363449538736015 5.2377986907238965 2.549365154497141 -0.7423870116579084 -0.5590033357895082 -0.9192871366844942
Ni 4.456917479681283 0.6095336205500888 3.735203879901631 -1.6585803399084276 1.3979761516939666 -1.9871891782976356
Ni 6.470659075008981 8.28398321253266 8.316836442332818 0.9155204705532103 0.5046286176933696 -1.391155015007075
Ni 3.7970151307242253 4.1611903453060375 9.091873915859349 -0.16724768953848615 0.7289198304094091 0.44346747280301685
Ni 1.7071348673801199 0.9935832736534591 4.753502410389164 -0.0693472802455709 0.4972495516204792 0.1564868514775563
Ni 6.030086374551779 4.668556540371297 4.227462506798138 0.37849543880700626 -0.7691403684923527 0.26243378522403193
Ni 4.450400815731839 7.614421411338483 6.567347881028796 -0.24492380136472655 0.45542541649584145 -0.1450564981534276
Ni 3.35404836507141 6.25101514768036 12.61980351339285 -0.40471940550054175 0.8471939182626699 3.39684148077795
Ni 6.050144758623114 6.6010755454525265 2.549892958059571 -0.2380900662723448 -1.5037279387105007 -0.38817461376798307
Ni 6.303028293841381 2.8919013473688153 10.513627892777148 -0.9944368825444551 -0.06543740366820343 1.3582775475527642
Ni 5.845262692751602 2.6827765173089406 5.892910136241243 0.7291062353886024 -0.1709634478271765 -0.13113063210095482
P 9.042864905561549 8.82618814011629 0.6493869490862957 0.8453090425351313 3.248556962605528 0.382429997974722
P 2.4946251773218147 -0.23239995037859587 3.0442073382360157 -1.017322786003693 1.811247303419261 -1.1391527095290126
P 3.122850069038102 6.048610338459132 1.4877608501044401 0.9499879082024607 -0.3066976401384137 -0.7764299601752306
P 6.301900587455802 8.772751495730853 2.6636702132188703 0.16894513184556711 1.158438811452134 1.284971539769761
P 7.6639018398794345 2.345472142586749 12.728763983326537 -0.20943820686360703 0.5175823496405603 -0.3146207516402324
P 5.67888902689907 9.094804103762858 12.163666616115684 0.8765649152256193 -0.5268072106729379 0.4487798861548658
P 6.99000483954726 5.778635581052893 0.6242011983585668 0.10924668754366992 -0.35026266921355803 0.13096633860894863
P 7.382372713768509 2.70333405010832 3.618883739277804 -0.011283286223303149 0.154470849488792 0.38471339469226007
Ni 2.2640924129258964 5.712821896910995 4.921976198297459 -1.003364266941072 0.7600589750163749 0.5518800944811656
Ni 3.670240597296398 8.962733047720802 12.854406188621306 -0.9428358705387117 -1.6019049987035703 -0.18357933681897415
Ni 5.510759097003426 2.4146689458853796 13.503098026886327 0.11826997408820278 -1.0546721731864288 -0.38566341731035514
Ni 1.01150641038817 0.3941444739532815 7.299079580650161 0.28381096534822736 1.2243444130060077 0.1643390005321234
Ni 8.210127687772298 8.79842992474015 11.981515228709526 0.07609411205110121 0.5407719003831462 -0.8023081134935731
Ni 8.75639975313998 8.013500062903413 6.885883339227094 -1.081867502654298 0.45139392673894524 -0.3065811691652075
Ni 1.437992024520619 5.575546753204348 0.19304114882294948 -1.0338015003850067 -1.1855246119253324 0.24051384522248898
Ni 9.049168969126825 4.045239944480761 7.802269564690797 -0.349468712557353 -1.6073709069141477 -0.4356574898402948
Ni 5.046430614489386 4.711058130214617 0.7970462350352194 -0.7562591416543105 0.869680015180328 0.7795224830576253
Ni 1.0422595181325651 5.517959779580188 8.997997905357003 0.9195753573488743 0.06608660721642812 1.2637918203683522
Ni 3.3919004769479657 7.172369751687079 3.506053018002793 -1.523271665170383 1.7410862690231435 -1.5055518792931166
Ni 3.6246331931452564 4.887266874708579 3.220514988126089 1.3112225030464901 -1.4354854614933343 -1.0943934030354507
Ni 8.410045996848277 8.973926920121903 4.441352358511825 0.12297200754956242 0.14716377430441752 1.3317478766933517
Ni 1.5664488740318492 0.16798573137420944 10.658764628950465 -0.439274774877908 0.03511895519032016 1.272894296890253
Ni 8.747257936620832 6.9750118907160585 -0.05191516511440401 -0.1282499681190501 -2.6127105524140357 -0.43919995577591453
Ni 0.07029585484982037 5.778496928628437 11.342293351034867 0.41429625055569935 0.8558729340939066 0.2309298010784797
Ni 6.962884425323619 3.224195747820654 8.373982501247209 -2.2036560098732503 -0.09109829876941732 -1.8626979058900694
Ni 6.714373063223206 7.452466136078624 10.370493297612981 -3.2327742458499746 -1.2118776479975646 2.010072253543396
Ni 7.071560195612425 3.2878187236561436 1.522204885387861 -1.4378017683313367 0.6388317180720611 1.1461268268540001
Ni 1.953926939417274 2.8533929473498336 10.382912857446275 0.2951389887665368 0.9997348977186008 -0.5759494767255435
Ni 0.44867647249192305 0.6981657963594995 2.5649774174909146 1.5913192527679239 -0.18222693655613778 0.1981145543206717
Ni 0.39415002005025973 1.7603773983713185 0.21239795162653782 -0.08287822485247018 0.019531642275024425 0.25450476018494234
Ni 2.107184085916245 8.081615377291286 5.6617848638181485 -0.45829425340320423 -0.4717033277202586 0.04997916013160425
Ni 7.572945849436138 1.0770058157013005 1.7392070218558426 -0.41670794532098554 -0.29470292967038275 0.1523149794880538
P 1.3742951007254196 7.975989960340517 12.326282801265451 0.11929635847018809 -0.8353868983254129 0.017524639147324654
P 2.238229114017325 5.139263034410325 11.114590020447352 -0.36111812387082326 -0.99429444342932 -0.7577395828545788
P 0.7255792293734921 3.7094052854578057 1.752221862764802 0.18021324856021867 0.11035483300618415 -0.31366712947771147
P 4.650032576463942 2.823702841526269 2.101318164012249 -0.5448681819397068 0.35040356566679653 0.39781573640217294
P 0.29872942153947124 6.96542638643865 4.64678718538217 0.9415647171357721 0.26737801660318467 0.36471304031093316
P 3.740620567950388 0.4885159357856844 5.857992834015678 -0.3733156943782796 0.44959929673236765 0.297406701754791
P 2.3766227206145856 1.8036739287815222 12.511735040723162 -0.2698565600506643 0.11031600934844873 0.2732085072420327
P 4.86234641228631 6.473090114184448 4.6123163439633545 2.433285346972751 -1.577421411739909 2.3123722788347467
Ni 4.551626329079863 8.181814862698333 1.6981880886047065 -1.505818502690942 0.3958773817288795 -1.3054550044350937
Ni 8.489068635293373 4.251804326435676 4.730611819460934 -0.6980213410583398 0.6790913369230562 1.138542329638523
Ni 3.950484877607362 8.881954145232593 10.599346518973986 0.008617052245049675 -1.139530147473089 -2.123411880209517
Ni 0.20831602425054593 5.848414724534241 6.642108343946108 0.6774604861878526 0.8887835687789982 -1.3769000477499578
Ni 8.279139621171653 7.836431673377824 2.3838807128601225 0.2504730133177299 -0.3654182939080739 -0.2723171057760149
Ni 6.645453564773489 6.579713828591301 6.693436547130314 0.4510637970930361 0.13270491856661015 -0.9855341807381865
Ni 5.859303561601537 6.833734313690107 12.412894349075787 -0.5583060526121675 -0.6762402406275064 0.9318433760829501
Ni 5.737391106524642 8.621638840063472 4.950291796419915 1.9607474391663393 -1.2073046839149013 0.18207318458709287
Ni 5.0301620633531865 6.379823250000213 8.584300666506902 0.9932323207133927 -0.5050513070530851 0.4581088768652755
Ni 6.10774097574224 0.6999054221116772 10.247286753241161 0.42743098816544456 -1.475424463780117 -1.032278378872261
Ni 8.193646536251933 4.134208583506852 9.996219564783273 1.9253459197385938 -0.34595709985966866 2.333227525017201
Ni 4.267971199127274 4.032030990177562 12.168983474418832 -1.3197256554214947 0.00907393727681018 -1.2011918861489441
Ni 8.557146975701391 1.9166109502486166 5.303596660924357 -0.5868658665277312 -0.5705295912615529 0.20554555667742022
Ni 3.4881437465105276 2.475093672463412 7.245708565078966 1.3298766278125678 -0.33456325620043026 -2.101097275872717
Ni 8.59323358003987 4.177634522846549 0.12401627453064472 0.27278016145536244 1.402139539043037 0.2843115591337297
Ni 6.622391044838934 4.350423174203922 12.270206214718366 0.36980536723217605 1.1738098945915656 0.13476000132342597
Ni 7.806113009896724 5.970585997470121 8.707669896390083 -0.3240780403983903 0.8816019634288945 -0.5882594044411482
Ni 3.591522994185105 1.0785679663501742 1.023689336750392 0.051039740185634674 0.6638313254401922 1.0763563430280818
Ni 2.7621041910878414 1.378371482004433 9.064518716863628 -0.4304340366578264 -1.6851416353367237 -0.2637147088189845
Ni 4.8010620406766495 5.123992780730211 6.6419992707055355 -0.34062900277853597 -1.7492549208768646 -1.274620021332108
Ni 1.415428653314106 3.9524722290245684 3.7638448490468095 -1.0839156434325783 0.039517598478648074 0.6325708247640138
Ni 6.77852291827163 8.392788391750956 0.4660976874501022 -0.6530391199206947 -0.09789449575564431 -0.195117933586193
Ni 8.902003285808966 1.7753426167176294 10.788397251021083 -0.7756835689275092 0.19626078894138457 0.8787110150343448
Ni 1.1958309434603034 7.9193365797076956 8.804440969515076 -0.06619536488015051 -0.7508351424252617 -0.3918492344060929
P 6.998453393944128 0.2314977852701339 6.468628279165446 1.2954786099486721 0.6599864977728053 0.3301211612686766
P 7.061928473860197 4.4875689089810775 6.631217658179818 0.44358625776906824 -0.2859429240895656 -1.0132725271937193
P 8.50273976434476 7.845416350482589 9.767920953120091 2.9268654201614437 1.0105217039214596 -0.8845854715372509
P 2.612960399847739 4.169019585540333 6.317917715528988 0.1310406434903098 0.29880461054358215 -0.0818137881436978
P 0.29215267487276325 2.1036068533652736 8.740152462042197 2.2420731761988675 0.4435518049867071 -0.22468896237509045
P 3.3390923902200633 7.7395413591677995 8.860720912951363 0.020044320245384835 -0.21840724313143675 -0.50907225528702
P 4.857567525390051 2.27438042282055 8.887319069709553 1.0187327789773424 -0.3749488591063284 0.9245327013541497
P 6.15046440946469 5.056228719150961 10.135213998553176 -0.599818055813025 1.2596145490622113 0.21343730072067113
