# total energy = -340869.52977472293 ev
CRYSTAL
PRIMVEC
9.27312017247612 0.00000000000000 0.00000000000000
0.00000000000000 9.27312017247612 0.00000000000000
0.00000000000000 0.00000000000000 13.57214871377086
PRIMCOORD
 96 1
Ni -0.1151767856111957 5.288135714872068 0.42514380034925553 1.126595441689292 -0.21109888239548158 -0.008062722403476438
Ni 4.330129698891018 0.4281325268902554 7.854731292175359 -1.077146443029545 -1.293116537474399 -2.214547459974773
Ni 8.269453033078664 -0.20038841160530532 3.0044797170713475 -0.09438134039606326 -0.07797487401358183 1.574454101581469
Ni 5.289851242051978 4.535445846406616 8.992159195687247 0.14743579701888157 -0.3957627105278862 -0.8185253466833838
Ni 8.590692452356716 5.568870146464463 9.971240231245494 -1.4446259903420218 -3.2408300262749155 -0.007421489275051735
Ni 1.0791500542423647 6.6835455230108 10.311942074551625 1.5143702489156952 0.5452967848366931 -0.13820219423575553
Ni 2.9934743783842284 1.4056566056187343 3.619366387390576 0.8496896881013303 1.7267353996181098 0.6461105111216615
Ni 5.11014745167644 4.035606138020104 5.142228737252745 1.146964235153631 -1.8591814080963789 0.36464182075336554
Ni 4.3093764565740535 0.6836431450660394 11.207812623388326 0.9336215510292953 -0.014158293778253034 0.1228658209890013
Ni 2.828264474398957 4.172839039293006 8.465898514106144 0.48130125582133887 0.12926503964712577 -0.054091382527764915
Ni 5.736157229305409 2.721632868767691 1.1956732968617922 -0.7818827557596857 -0.016805501593112993 -0.619326815269914
Ni 2.706916427500031 9.058957187512993 12.567103629550036 1.4299537330418277 0.8464467556840003 1.6752526583577858
Ni 0.9623180167305531 7.759347980972366 12.644423830516558 -1.6849652576598595 -2.7228517267475167 0.7470574205503844
Ni 2.151317449206501 7.522132301030336 1.1661940487270157 0.47431711119402187 -1.5804591701249686 -0.4988577766478634
Ni 3.6946057002534687 2.904572977985328 10.902615701522405 2.503250720418295 0.8665296424768044 1.7063126129873838
Ni 6.619236436563906 7.721977307810005 2.009682597921149 -1.345511249026031 -1.2572645607727961 0.3733807432882602
Ni 7.826216448509289 7.659411567902696 10.36885028401319 0.2579155856387042 2.543345274446336 0.015210646302167353
Ni 8.859177092572565 7.597884417423223 1.1035958529000864 -0.37420041097607815 0.12518058516510697 0.14481969955227317
Ni 5.66640482148226 5.440845453243725 3.120711783726185 0.36957319661671195 -0.43133983630154743 -0.7572934964560958
Ni 5.785926063762579 0.8642158267754013 2.872653972007124 -0.646305400741287 -0.05881964124136967 0.30917541225494494
Ni 2.8204472343305027 1.14498920547134 1.3431761784144258 1.1487897183981441 -1.2107443057240697 -1.282648033842907
Ni 6.884790770894071 7.16561793368538 13.120711669002882 0.26262301841670255 0.08283271632651541 -0.2843370130550264
Ni 3.844125485382482 6.207240992908673 7.212198669523885 1.305277598316965 -0.5004472326221704 -0.5606434424960925
Ni 7.1663505101568 4.239178938996118 12.851548236410983 -0.8048879584056073 1.1068252010409 0.30938470005227364
P 4.352533556548653 5.892502030674496 5.050291317401399 -2.519443528128074 2.6473741652344924 -0.30138599811751315
P 3.872232311773331 2.064465408303602 13.120711669002882 0.4591440029980092 -0.4880714846656369 0.03912421969497133
P 3.755613556019022 8.460989324435635 2.2090982592498456 1.6180414992541163 1.260475611510926 0.2234640888290539
P 8.68405422342338 6.439681016106631 12.190368296969881 -1.0969596211007302 -0.9167944521696276 -1.2649220773180538
P 2.63839734462244 7.131715407362403 11.643301516288433 2.546645285353846 -1.0113388005061164 0.2742804001499728
P 7.3175580031060505 4.728493656305885 4.500877510075437 0.6884727781379563 -1.2480921502449085 0.3971796454800708
P 5.643639312148861 5.415121818664968 0.8630353586132254 0.18130545318313293 -0.21018562655259285 -0.3760166382492105
P 2.0245539002909947 1.4586153933185482 9.614456016111696 0.15341618297203255 -0.8120942463460594 -0.3244408230544477
Ni 2.589110712399622 2.0756024252931793 7.20364885298401 -0.029905786420496884 -0.49757813860449146 0.08843515011495737
Ni 1.966652539689062 1.927315965109722 11.862682204743326 -1.957221428290952 -0.32170002708451695 0.39375416473828956
Ni 1.3679057345408245 8.81142052513183 7.94605854073785 0.12604781826140873 1.6686392668063261 0.017970725545807763
Ni 7.481970418780661 4.187370018162838 1.7778295632123169 -0.09156701087571972 0.579445148583628 0.28087990774436145
Ni 2.7831507461272715 4.342629864504632 4.529650146474488 -0.2552655496103668 0.07333326147651241 -0.902201384846801
Ni 1.7296315952647505 3.1103527814954965 1.3626710583621267 -0.39210711605316984 1.861709316724555 -0.5540408495779103
Ni 8.747129984924717 2.8447891740454407 5.815651976886468 -0.5926847872023535 -0.7349986896136373 -0.623399442677391
Ni 3.0453853035363134 8.22224357971152 9.37778466830729 1.166616976387552 -0.27563074353028016 0.7098468729383581
Ni 5.968189235228144 0.19070078325475454 9.360914081288858 0.7363012104751449 -1.379358279482463 1.5108462949228367
Ni 6.3296090829956535 8.455601641778728 6.724131186839512 0.021761560046807685 -0.08034980200366162 0.30620861631713714
Ni 8.472487993100977 6.070564478829255 6.081774753465974 0.44026105005057725 -0.6756640564090622 -1.3982474030774823
Ni 3.7082557327336163 4.541909210970925 1.9639438613687827 0.7716543931634581 -0.9100787307123488 -0.6950509455761061
Ni 4.147069039114792 8.998709727578536 4.630383120542831 1.2750347402720237 -3.5365865940207932 -2.4999903044994687
Ni 4.625710395429552 7.276051518472121 0.10675215618985426 -1.2741855048978508 -0.5508616805189803 0.5690910590428134
Ni 0.8355461220071446 8.954495491936317 10.613107971200751 0.6338900577960696 1.7760537862372638 -1.1136396528595724
Ni 7.015356298965053 2.3109356618972554 4.517883484644284 -0.5356181240963486 0.3941377733299535 -1.1515937635058424
Ni 9.214523046811204 6.947486334479859 8.065452741275656 0.26175012889344595 0.5854507313477595 0.7612290840650762
Ni 7.342975624728392 0.30567263291635016 0.8056097090617218 1.0441463339544403 1.0389015406157334 -0.24900697029516472
Ni 4.585928711095424 5.115247667616713 11.947113961354567 0.2372241187276237 -1.054320703384281 2.63801277862425
Ni 1.5530250269329426 8.340652047604872 3.281758984192205 0.9752693084770687 0.6498252409690873 0.05851882217149922
Ni 5.081753158568958 0.3481518678268873 0.5062835993990492 -1.0324136188985444 0.05322234965925028 -0.6049636045697065
Ni 6.697149189891491 1.5921297735149973 7.123341780100464 0.6787882038603407 -0.562629876798502 0.3318165466932285
Ni 1.178168428442787 3.9979943637405655 6.5648347514089895 1.2651812445167114 1.9690341046551634 1.4531353133646134
Ni 9.212223313078136 0.44085061082131727 12.71518886303185 -1.7535990567781736 1.9585524883975494 -0.8867161447270084
P 2.1325486545462975 6.3853219873032145 8.390030483714614 -1.3296303161297165 -0.20264329542896065 -0.07225442659003685
P 8.122826461355768 2.202811083963473 2.499189268812668 -0.8688492917489166 -1.167544373297828 -0.8277188402571939
P 1.603572803460991 5.351786409806672 2.060578116445125 -0.06197695592342875 -0.05129659339144714 0.1253659617030357
P 2.880685421145069 -0.007886788467639946 6.153951154828737 0.2655579326753104 -0.06645941717481459 2.976232657740661
P 1.4093843998150792 2.7049783454427274 4.861230949055435 0.5256327307488625 0.9327157513855744 -0.7116666997559163
P 0.9937446200425245 -0.0020104123924566024 0.8374489662088608 -0.24906661988850654 0.9450130806956887 0.786730056549658
P 1.0625048040372926 3.825755434877609 12.55408787847046 -0.388326308854499 0.24480398795741062 1.8433102453920769
P 8.620199519851166 4.6243936124049725 7.911721105091966 0.36194447642686056 -0.1542520486097666 -0.07492965942935481
Ni 6.777343130712361 1.850590171128237 12.504875431206774 -0.005801180062809364 0.005846431478447996 -0.8508081179764897
Ni 7.35326878780785 3.062021280621494 9.070402072082965 -0.37946397336786264 0.8177221340557982 -0.0231862083084762
Ni 4.932149915360922 1.5709036020835712 5.5229144189066375 -0.13813020334723952 0.6115075763358114 -0.12639440296755006
Ni 8.780958326288564 3.3481155755111205 11.062399903059216 0.045049584040470804 -0.17696131728182427 1.2657396881233427
Ni 8.414466081940455 5.997037911210304 3.1222047560287014 0.1740711402182228 1.1651545329094126 0.058025684585164584
Ni 8.802277228918904 8.711187372225632 6.195685758211993 -1.221200210950071 -0.22568603618103714 0.30877586282368114
Ni 2.159505614070612 4.335109364272703 10.866472789433667 -2.9800499746042224 1.1022854041890178 -0.023225289076527746
Ni 6.863193674666989 3.9691178683987305 6.746497952017581 0.4182945730818151 0.973891968513568 -0.18638775280204675
Ni 2.64961781969104 5.537990657226084 13.43349493025196 -1.020686046048971 -0.5695204332707483 -0.5952384068621426
Ni 6.401383030955129 5.9074039343399845 10.786465238322613 0.5160553714730726 -0.05097109173122835 -0.45850714074495874
Ni 6.902465337407088 6.179764738670441 8.057472294297114 -0.6044244442367849 0.3165305670684355 0.2726886301828207
Ni 6.335089496851474 6.621230157340558 5.055611306283098 0.2834726081722021 1.2725621103618148 0.5422302300962275
Ni 4.7273994281587 7.505449958345698 11.132270079504986 1.0347947175362116 1.9656523326671245 0.5626321907913471
Ni 3.607735113110786 5.798250040098257 10.146185056492762 -0.7481614522478406 1.3535883696072106 -2.9619882320065054
Ni 0.8401659903370424 1.2557566225741728 2.7021194425802073 -0.8021862432037282 1.1477281099028491 -0.4801087781751345
Ni 0.7256216315024406 3.117678546209707 9.018203680214247 0.5762245847638011 1.5342399912564288 0.9610896745425772
Ni 4.700646477271996 2.1202339513305115 9.250653903844086 1.111065207264177 0.9283119658909238 -2.0816175698815504
Ni 0.15061123134023247 3.7956177952305428 3.310220043762905 0.624107781598325 -0.15518304506446823 0.333980901334399
Ni 1.773168893154897 7.257264177572135 6.2229932416682034 -0.1561153270707505 -0.2394956883706198 -0.8736513411232502
Ni 1.2364499869602674 0.6855858636832887 5.16435161937767 -1.4744268757535381 -0.7643164647411481 -0.1490267956550853
Ni 8.197864547517018 1.2283081876956137 10.200229726531859 0.13404472042395624 -1.3347534962888947 0.4414486426007752
Ni 8.893515455530437 2.7036708355380394 0.2053291298834459 -0.6982365423929394 -0.39290647202601364 0.2491332114603839
Ni 9.216961877342644 1.6209691763772667 7.707623445530098 -1.0930055215489884 -2.1357668022304446 -0.5447105733159199
Ni 3.36876681350928 6.532922236614708 3.1594743521842474 -0.44990500089824453 0.3921752502869439 0.5659563700685737
P 6.120583687523494 3.8026375469883367 10.945760746441147 0.24764762805379284 -1.3994028568381642 -0.24987626027399548
P 4.795046837766498 3.0294448104429885 3.2763981935829833 -0.7192445121031743 -1.3897319094073033 -0.6625930821577168
P 6.524669159911357 8.904114631566314 4.540304033917723 0.09285924732458202 -0.0017308666481776643 0.3535002023142492
P 5.154055674362243 7.42646152311071 8.480448039215759 -0.40171455723594685 0.6267333921466303 1.071062441618994
P 6.2648085211945155 9.06157220732237 11.936175389130668 0.12906166538706806 -0.1889092336723198 -0.2508021145223745
P 0.18839734027372954 7.442374196844362 4.512617279857955 -0.9690600943425632 -0.4399262924189778 0.7536587279169858
P 4.922320408276032 2.9798057996642973 7.13441666718677 -0.954275479834221 0.45068533070769473 1.7541235618230757
P 7.829953515825524 9.152930984492492 8.423119757423114 1.7262995976322724 -0.031114462016617384 -0.873880683525237
