# total energy = -340852.5511366562 ev
CRYSTAL
PRIMVEC
9.52820344820528 0.00000000000000 0.00000000000000

0.00000000000000 9.52820344820528 0.00000000000000

0.00000000000000 0.00000000000000 13.94548887200792

PRIMCOORD
 96 1
Ni 6.181879318963148 7.364958224136065 9.506472441037717 -1.3420009218799274 -0.47295056986379835 -1.3538022853902296
Ni 1.4041808654079053 7.5292339792065865 3.6017428332550545 0.8653158246743614 -0.06350907629723901 0.05418805600662926
Ni 0.5823113875794521 9.411120851007139 5.279106818761962 1.141987607874646 -0.3120231661163852 -2.5436435224130447
Ni 9.066676297570602 0.4785787898254209 7.173489929340716 0.2972154116795913 0.6509135889372596 1.6817871170421936
Ni 1.641623694498873 6.3721765975588465 5.659177324765558 0.6807481558001889 1.3084930199304692 1.5827801049486612
Ni 8.797199648599866 6.370204259452032 5.163233384217093 -0.797537174467491 -0.0022756834080541453 1.5207717815666648
Ni 3.001117285892467 5.921292483778202 12.96902537317212 0.0042461768708636554 -0.5574758434013883 -2.0454927991345353
Ni 3.269059894113458 9.134107393135482 5.63877458279395 0.5454047711694672 0.2527155294950035 -0.31352494747289233
Ni 7.8550985359847205 4.213257211479808 5.907518512922105 -1.04564528709747 -0.16069729001447808 0.8991906230449354
Ni 7.678569511323068 8.829147714648904 1.0783353650366005 -1.904077497278121 -0.14581600202727146 -1.9319135456537826
Ni 4.539197993885258 3.9325563388867137 12.084644211201729 -0.22244130399149437 -0.027057518338424368 0.27981855635938263
Ni 6.552107190839498 6.50734369119787 13.699016291114601 0.19737947592686006 -0.774821220927214 0.7432632436152748
Ni 4.3696912551401415 0.5823190101421837 0.6540711459555679 -0.045032614759606314 0.3833774494896559 -0.3042676905406825
Ni 4.128856385633589 5.739103706288298 9.885622522591467 -1.2699658103895484 0.314250255674691 -0.822364517923816
Ni 6.538272239481549 1.6488270162802845 9.187371955863584 -1.4244937383685208 1.62516602611404 -0.20651357701764433
Ni 4.420914876696845 1.43520469572573 4.042476551938163 -1.1737235055253463 -0.6766102223724154 1.0084038862475084
Ni 2.174688562730144 8.287250201852329 7.554661895659037 -1.4117415809091751 0.23971217525680003 0.817168318434857
Ni 5.221293491723746 1.0840046460682669 12.137135083812568 -1.1526481729122857 0.0338791692459481 1.0114228755794905
Ni 4.4267842500002175 8.111626356515062 13.290050555435997 0.19630115526101677 -0.028824123320543904 -0.7687935266758953
Ni 0.9936677494947732 5.083525198552546 3.18792438357741 -0.18332762581948425 1.7053762172160436 0.9586761800050779
Ni 5.646222779403115 6.1448050794770745 5.377617961044812 -0.2262884456517264 -1.4263601021532983 -0.7923980534687127
Ni 4.303279677340621 3.2307565163869056 8.780288993179695 -0.36549157034817054 -0.1690027245563799 0.17957432942463913
Ni 6.486553151347289 7.942576971533844 6.420838085217373 0.38295990233626304 0.99434689393381 0.6525243850678053
Ni 5.527063067500562 4.120500151239015 2.530465008487623 1.3771877541937056 1.261113245094925 -2.0649408805568177
P 1.4985100792121018 5.326551554844449 0.9467565928035022 1.3457339065597984 2.7370167053939896 0.2494186039112866
P -0.15637878008052888 2.9109804815906792 7.541455805726449 -0.2750175354263134 0.9178280356404644 1.8550784416715986
P 6.241201913422232 9.432711759944544 4.834802882259416 -0.5191982879774284 -0.512049592747789 -1.5847200022838515
P 7.8948883134439445 7.434695144927269 12.255030403122008 0.12094803514099814 -0.895123137843781 1.4549885645232685
P 0.8826670381761117 0.7586279333049589 3.09405728763882 -1.6982630032100299 -0.6580733399104924 0.21038257305474736
P 2.6373685923380212 3.2385220021697765 10.310081117022158 -0.5895619253026556 -0.5910449376060852 -0.23874518335784048
P 2.0484493956905685 0.9627677858213378 6.8474862607927305 0.3582451731984024 0.372070766227585 0.2116357287355581
P 1.0727232532254216 3.558803031746975 13.107615950297996 -0.0913644079466104 0.8487622911910545 -1.2898427518191333
Ni 0.31538162738142905 8.419206290940645 1.4174193512321023 1.422076644286596 0.16322982662834468 0.5367344970889788
Ni 4.058833618739948 7.1270675694846135 2.923407164483955 0.5302077517140545 0.5962275102482893 -1.0912785115555528
Ni 7.590919568112482 3.9494974845578112 8.526229930154066 0.4158286280398258 -0.687490616730345 0.8016198291772969
Ni 8.078039439478719 9.308530684842513 3.231783656714996 0.5905014063977895 0.39956974297880216 1.378014363860059
Ni 3.042241011829731 0.9894372271787062 9.049897131357552 0.09576562233809958 0.39678986624081986 -0.9006121859828102
Ni 6.4981680313096435 8.920713749462877 11.219772998543 -3.6114231795157097 1.3919893379829122 1.6493737337084946
Ni 3.456346260430154 4.617167282426647 2.3217430429491794 -1.7921589193292427 1.916049582038332 3.0225233132770843
Ni 8.600156401986654 0.09732869223910179 12.299516632044273 0.17422797751106125 -0.34475099536670945 0.5123347280883758
Ni 2.73581399001731 7.146514632653741 0.8034047724313671 -0.6295752324707996 1.1551115468511137 1.6796147919812237
Ni 5.94915295056239 5.460270361564459 7.812388364178931 1.3520858169197554 1.1669620184317966 0.5433905689529157
Ni 8.176522949971666 3.9535946120260745 13.253694742487381 -0.7049283525908182 0.39763215963645715 0.9883749926210913
Ni 4.10427362082401 2.1952408974953617 6.652361041526872 -1.180290874330219 -0.21752664029869634 -1.1730053964123992
Ni 8.26763163102174 8.257083909841816 10.365263707097611 3.85914999754687 -1.3914231810667972 -1.9457059714521843
Ni 2.1905053803983225 1.5162325375631933 1.6134926267377103 -0.6728972922972024 -0.5168670687410906 -0.9667178193626319
Ni 0.7408845129063554 3.565177399831319 1.64449358936734 -1.0651321921774883 -2.5511601425050645 -0.7747862539242205
Ni 8.043594984135066 4.246243851701033 1.877787838691606 -1.1100542495011594 0.40178577679351446 -0.20587028700669058
Ni 7.120607447569538 1.7772671983086248 13.599473244401954 -0.7930248884194343 0.10304235850517093 0.119442140019433
Ni 7.881234397950872 3.0306356600707907 3.867391050093819 3.1218637974506365 0.8032391099482747 0.09359921081440009
Ni 5.496182160233956 6.648942322141726 11.588840335243455 -0.3365900568224719 -0.42397748239920535 0.5837895415952526
Ni 4.241870406333748 7.273830486679162 7.409154795674526 0.9098082506597814 0.5828816850690027 0.33031527955735374
Ni 5.68140090640969 9.480400418034442 2.5019042187524634 -0.10220932108091431 -1.2779316022038443 1.0707459388198397
Ni 0.3184163601689681 2.2709615300309123 5.645608210282876 -2.969038196874751 -0.9676071639461208 1.8111321179976356
Ni 7.853202423505222 5.285265849449138 11.201058654216451 -0.507406437548823 0.9870547311477709 -0.7577349548688885
Ni 2.7406447891484946 2.0222087234868553 12.851660774792869 -0.20786829127332587 -1.0514426105055377 -0.8911757231602587
P 1.2807525183756263 0.058162059283189606 13.75899537878895 0.15724481268950338 -0.24641606963953688 -0.974025922988271
P 8.320589385599893 1.1977999794484204 10.378888085160098 0.10869390036399346 0.03882854283142345 0.09241804602210535
P 2.557636586164939 7.266512826456776 10.90201122594861 -0.20986526709869663 -1.4237499182239608 1.0713051537574194
P 0.11245471515972423 7.901548527630726 6.699455139723702 -0.8497745345056527 -1.148257242933442 0.725672270006389
P 7.029136694789711 5.040495831932369 3.8135890966931343 0.39969264170991164 0.32420042490886747 0.7475911815666673
P 7.873144953251907 6.270996605499578 8.896566423549343 0.8023993876557987 -0.1455753467713751 0.5674712640512033
P 5.882398357439945 4.23283766949674 0.06791131701697284 1.093908492979232 0.01960543293575333 -0.2968225471165469
P 5.893603524655474 3.4423302732073284 6.828896735930914 0.4696253621453073 -0.14471248455044755 2.3427817443645393
Ni 0.6851311834463678 7.4827458747469215 12.516173685386367 0.03052619361331517 1.0209410994825707 0.6937515100383923
Ni 1.44474242734371 9.121663559476058 10.758498378938771 -0.43273620242844185 0.956062910751947 0.049521760879211486
Ni 9.354875866250959 5.420366245664259 7.591463628527453 -0.012419970930907642 1.5512547806468702 -2.1236983011016846
Ni 1.9885074680095378 1.959198714306335 4.55113778558405 3.7790555060871234 -0.5391495342883748 -2.0349687596747597
Ni 2.863720592654435 9.28514847366317 3.2841763888306663 0.29809807139486083 0.5459945822346661 -0.8055675009711352
Ni 0.7601200499596797 1.7849183456505207 9.540388081091862 0.15338018752777455 0.3999160705746274 -0.3841045574636675
Ni 8.757047799410888 1.6826426101985767 1.5674447252757993 -0.8310077954211107 -0.7468576458347524 2.655329158415511
Ni 0.6559091363942375 4.377228064041063 5.432771966510023 0.19508270947288336 0.23335280869767555 -0.812533133655691
Ni 3.947925330994408 4.993874332624901 7.037061301569605 -0.7535047188376249 0.06632212026600191 -1.2462412130790987
Ni 6.5583862768896966 2.733698728859277 11.248249940088112 1.1642477048244273 0.857179311610156 0.6848007286030077
Ni 6.045340164032428 0.8810529605176843 6.7330916034178 -0.8579737824869934 0.14728821569742376 1.2999780404809222
Ni 2.8185378520625664 3.6723125190246915 0.5569225367610013 0.25415329038279455 -0.39522406441559677 -3.790086052869672
Ni 3.882962040113902 9.00337091408423 10.678953125552614 0.9627302954697936 -0.510119722714928 0.6090544868096285
Ni 2.16480781578924 3.656695793628219 7.222215255962121 -1.7379304970029812 -1.0668746287898916 0.572773135880091
Ni 6.223231721782362 2.0851710916503032 3.005224894384486 0.5688720010534718 -1.8956712754922962 -2.3453019396832318
Ni 9.24194759938153 3.278435646273391 11.278246630077847 0.10160074096263792 -1.1738831710316622 -0.38922748051252964
Ni 0.9417514275498312 5.407579396681912 11.460081911221067 0.585605768868385 -0.37739963463966614 0.76529991170034
Ni 7.789830342594948 1.298427335709645 5.311417909361095 0.20097490658760225 -0.4884345244320104 -0.3885492234985824
Ni 7.320232837308096 9.278535900493463 8.553647335479479 0.6858373973976382 -1.3695142968088478 -1.0114709552086063
Ni 9.113869489082944 5.995383793529862 0.44346831306308915 -0.5227009018140482 0.8393217146034448 -0.3737874918083756
Ni 0.6787339476738287 7.240281682456478 9.477828755932851 0.5374279236115777 -1.2474028374873678 -0.7033185849015371
Ni 9.489842867618277 1.8235837951068268 13.505480376178292 1.0922375330347127 0.09522183401948763 -1.1659405191458176
Ni 5.618066938313074 3.406961582132462 4.820844064257078 -0.6221822824408382 0.48813319114150766 -0.25046992799393636
Ni 0.7469415918169945 4.507068891971344 9.327300292748866 1.4429360042341086 -1.7217348610797252 1.1054704867852188
P 3.5170028033672773 6.1827654418807025 4.647097274992479 0.6145587044573093 -0.1705934660822675 0.7347438932903539
P 2.8260460763532436 4.037385632853762 4.9414720723058165 -0.2850643781393542 -0.47220006485101895 0.2363095773331543
P 2.1146608812183825 5.974774289544157 8.126106367244176 0.5185076896683071 -0.12916270974130659 -0.2008599782762928
P 5.708070347767059 4.292331771617286 9.973771743660976 1.3275546645476104 0.1126433719300447 1.1880306661766378
P 5.416164307958436 7.747915775774275 1.2238681911703297 -0.06579838655204798 0.26883917452974343 -0.4576013411012377
P 8.906726346850293 7.1771763912418125 3.3278813050729354 -0.4552603516728869 0.8004754311602085 -2.7444708476791893
P 5.121085376412762 9.248903187874163 8.836085199555049 -0.5612990738022204 0.13766894744010483 -0.5070102305516687
P 4.073021113624236 2.478590610637705 1.7818293021035188 2.0877938738955915 -0.693011032327942 1.3395259779768738
