# total energy = -381169.9877223125 ev
CRYSTAL
PRIMVEC
9.17612158323587 0.00000000000000 0.00000000000000
0.00000000000000 9.17612158323587 0.00000000000000
0.00000000000000 0.00000000000000 13.43018147364793
PRIMCOORD
 96 1
Ni 7.752042676589583 3.8276356485226346 0.17423803423699444 0.7891510072863248 -0.3033801457294065 -2.3345405874016696
Ni 5.372334800913141 3.362305340531765 9.601854299093318 1.1340860936393824 0.7851280021698608 0.4138383370826743
Ni 4.221658314711981 8.689383509175556 6.755609455421259 1.481876132942732 0.06043789357108301 0.890992403504859
Ni 5.534109826644817 4.946342526689242 3.5772899432180796 0.662275293806982 -0.4411781625482079 -0.5415702279147254
Ni 4.951995017662056 4.376890765665059 7.358128288636404 0.638063729557785 -0.7427870753098046 0.8808581432843346
Ni 7.944126432326462 1.465261466754708 5.643925980810807 -0.4808546552022235 -0.60422286974894 -1.592453109262051
Ni 1.1508233041485056 2.286258252190828 7.923377385917814 0.10263149621999743 0.8737801533916307 1.122572179462512
Ni 7.510930902560909 5.825479219274307 8.450162933831132 -1.72777875328096 1.4629163040107773 1.092190224736545
Ni 8.572745826131012 0.3574686677489204 10.962533671504916 0.011721659312302393 -0.46184494686894006 0.10429140042092361
Ni 0.18480250316069716 3.1162476369018792 6.079426552349688 0.001176022585972168 1.397285296274529 -1.587064848366944
Ni 7.982923074912596 5.557288710082037 3.8606531696563677 -0.24369918492900608 0.06357232543500664 -0.3088599378970551
Ni 3.6702651612113333 4.969603995221845 12.974119402128157 0.4215796715909901 0.26915901976300743 0.9094410971283499
Ni 6.500263681397408 1.2882816073510301 9.360165347009143 0.8037911257970027 0.8322864050232183 2.8387799400764204
Ni 2.713443422236911 7.121688995782011 13.1997464707727 0.1220798347525962 1.42939503232488 -1.152996300280324
Ni 1.5037552973244401 0.05756823476646718 12.59141272923049 -1.0870570172750373 2.378945852989922 1.4059218889036045
Ni 0.06270227486271635 4.32903729095203 8.087293200844226 1.4478272708881388 0.5044584106640925 -0.17281592765488304
Ni 4.137458221909153 1.1432805321036141 4.929293292553709 2.1844678669805733 -0.6394775791861761 -1.8822801988973712
Ni 3.4514330106923876 6.251820186123151 6.849365561371958 -0.010487272684569034 0.651708059814097 -0.027152392045075815
Ni 3.365608744347046 8.053891200210881 4.824430408886298 0.0940247283875929 -1.4182523854444995 -1.229358321280831
Ni 1.1521630179180364 7.573062422653318 3.740319344787391 -1.3930293492116526 -1.11028796277852 -0.3074689710867995
Ni 3.1837838926809563 8.850525382509304 11.13719288972836 0.07942317642433419 -0.00454956704389539 -0.828416894765483
Ni 8.535187959975609 0.47431464875626267 3.3402074042318777 0.1790392828567755 -1.9013798958412993 -0.4250257211580616
Ni 0.27825487948282474 2.5605417061979483 1.5091893966005776 -0.03165130835669388 0.22960722561231425 -1.3623000384485957
Ni 5.720109813688553 0.5579201288723402 13.150565211248363 -0.07788051452756264 -0.9835127794327836 -0.4218370390174348
P 8.90627032189217 5.505553735886055 11.575661936640138 -4.318806935625556 -0.23875135400542752 -1.114390414982668
Ni 0.380800792418684 5.9712877932321256 9.641930093045701 -0.1163475602545093 1.2922948129040517 0.2315936599147237
P 3.5135461785413784 3.8838302178692476 10.958141979654933 -0.09841977213149501 0.04166035585326373 -0.5623136311096638
Ni 0.4618507226387734 7.576035486087072 11.673352763579706 0.8547881856701601 -1.594656801781589 -0.723439009800496
P 0.2500135296986852 6.112545010822222 5.433958881475036 0.4587367402572616 -0.9580310902219114 0.01622648916119141
P 7.551691235192793 3.5687680789868255 2.462867396277457 0.7019137341342105 1.0542582255774617 1.226428549228546
P 6.295608638919043 -0.04259647458587711 5.4544399851297785 -0.8565193094286538 1.530059634626494 1.8756367254389246
Ni 3.635496836055501 4.713470909955352 2.311885324900041 -0.4016770191297921 0.7791419597897549 -0.5037878669596292
Ni 6.147304159856345 8.165702243236431 9.009342026601962 -0.050460984864029224 -0.8693097763251028 -0.2369094157006823
Ni 3.2762333189002777 2.1818798677496583 6.566257431117182 -1.048322319709001 1.090089376343458 2.1899607717743446
Ni 0.32489618851807917 2.19749762689857 12.21066699354206 -1.0378455885473932 -0.04715506041924783 -0.17446734721537696
Ni 2.0987442050650875 4.427258497726385 6.201292789544087 -0.9078249016811657 0.19399050484996913 1.2827840452001391
Ni 4.54679583523101 2.384167470827072 0.4288258606076728 -0.38456324226764094 0.061818575968693536 0.6234248965986876
Ni 3.936602093818361 1.8752047041093665 11.695432347636176 0.07762751797649212 -0.8949884120381296 -1.0100437358437764
Ni 2.3731469486544263 6.771766770526666 2.0282936130311953 0.054895880706931265 -0.8498020453094783 -0.3327840528128204
Ni 1.9470078564831819 0.17501158129707273 7.633446809172312 0.8206074260233932 -0.673774295585517 0.8284922280881086
Ni 3.379427983640971 2.472395881060201 9.122893779915731 -0.13779570282595624 1.6608843054512556 -1.1619635367759409
Ni 4.760526062079688 7.347623464503811 11.389908787270377 0.8773989810911406 1.5730397377324457 2.5958253466229233
Ni 4.741595722993786 2.7722990668791665 2.703025771260554 0.10946445998143084 -1.0697810038034092 1.542772711317788
Ni 6.402693979264401 1.3374472674684619 3.6006716189450723 -0.5900314087399064 -0.6227057590444759 1.2364327116291094
Ni 2.643778306221319 1.9112576863044746 1.7352064504177591 -0.2808040602011035 0.3365268076847043 0.7229792965552582
Ni 2.5289207907883418 3.0399023042820525 4.228022872729422 1.4377027808596272 -0.03176495111642271 -0.2330324492437793
Ni 0.7041012533715484 8.183705794029713 5.891847354759814 0.5541226106584392 0.3764807223698226 1.2073422220210563
Ni 4.897149338206684 7.482925379104694 0.4702789904285944 0.0028122726378145115 0.6761345682875775 1.2644045142516869
Ni 6.579215032582622 8.784209550917538 1.9061319047177636 0.27555206777354474 -0.7526613970007231 -1.6722249272750556
Ni 3.9627815690544628 6.906674111894057 9.340396310399028 0.15560933396860943 0.9593927464561282 -2.6138333531645697
Ni 7.831645532416146 4.222667688099983 10.205822959538503 -1.0615879264696555 -1.5319841053427163 0.2012970658137114
Ni 7.408580441017453 3.293897353190322 7.436050078965857 -1.4546437795893399 -1.5382809940950217 0.952295987510347
Ni 5.848391995181965 4.269126392313226 1.2434828635549657 -2.514965951972694 -2.217057113770504 -0.8158884232811691
Ni 0.38325999303672653 2.37579884782836 3.72217448171979 -0.5961478060502895 0.22315735622191246 1.246687299477582
Ni 0.9391485285626688 4.573700224082131 3.2068994608783847 1.8753032533589058 0.04833699654249095 1.1840889079200703
Ni 5.651830292051038 1.6803405834946261 7.33228832990354 -1.6629537863857746 0.023660319731417318 -1.4850025943868554
P 4.227274101197958 7.223754997552484 2.915342875366029 1.0404714562060144 -0.6468556168178021 0.4695119764958946
Ni 0.528411556680172 7.379189323183163 0.6618048379655592 -1.5156532293931768 -0.03345956521002625 -0.3440904789645752
P 3.3329417510626014 0.19320874825841627 0.11712860555598295 1.7838092618129666 0.36465879003423 0.9692146176425567
Ni 2.3978215399302334 4.828989106151385 8.686480184266793 0.5706833432305977 -0.5537179190208528 -0.0887457393768407
P 4.2253929962475905 3.9732607000462705 5.419601921448956 -2.0817281273174855 1.0702162915686149 -1.1564089255062986
P 1.0671921308916428 1.151722564075999 5.916881650006618 -0.048697722316019355 1.009950404799022 -0.4706756577866926
P 5.435347228689625 6.519019674170836 7.736039520328888 0.5616675128852326 0.15874556560474595 -0.4240972958065212
Ni 2.7850079954462896 5.659987864250439 4.393186640208274 0.8255125766344945 0.6458181766922233 -0.31140507291641206
Ni 1.2187724854044932 5.40268023540518 12.74422176644019 2.325263532975118 -1.2205854601842074 3.0926555513177965
Ni 6.007882166608071 3.0451418697779564 5.150569044283792 1.2845861314058844 0.08090233207302196 0.4632785939916731
Ni 7.478383198858682 5.242043048765433 6.321250393422989 0.8314546531505423 -0.5677044631079319 -1.83920907873951
Ni 5.45310302419676 3.6870941684258476 12.142254418139762 1.076258383997637 0.2484948065454366 -0.5763423412885881
Ni 7.7107868333854075 7.5485988821768215 6.442417410143154 -1.2322852651196392 0.32967584620114193 0.0007196517748439219
Ni 6.691227950285774 7.8003182529012305 3.960480197729817 -0.2124137445521632 -1.6733168747876537 -0.17958281406507137
Ni 8.660900827390467 8.231238104482923 8.755860840509403 1.4189828358526209 -1.7426258455961212 0.7594745632678146
Ni 8.381368631765733 0.6549080648889893 0.22916354595123684 1.149247631871169 -0.9988064723670607 -0.64147301234965
Ni 7.226049027979762 2.121941440745727 11.864275739920382 -1.1416420516097694 -0.16554227681160522 -0.31910244156066975
Ni 2.7801997076707137 5.939354889684409 10.878823583601354 -1.4615556762178248 -0.6080826098146623 0.8990229871188194
Ni 1.0017755592273705 3.9110832993453153 10.602698481967215 1.2484341069653597 -0.8894140032741455 -0.02512661986429866
Ni 1.6365154262118986 7.039406712416389 8.132069004336017 0.5324968048585474 0.18945662153535758 -1.0526577138595612
Ni 7.616447126094009 0.5161082126925923 7.610911171866901 0.3062865207429241 0.36601144740738256 -0.8604356137639246
Ni 5.473382253173902 6.129814471878775 5.414458705230999 -0.3890117649572978 1.2488884208939588 1.420705217860366
Ni 4.199259401620034 0.4165050819888458 8.936402870360558 -0.36681903091034246 -0.6148011594854186 0.505151065855743
Ni 1.7052354016914517 1.4687759213692986 10.11332948793498 -0.29887840120431103 -1.6847112326675244 1.5788393751333585
Ni 5.789958452138327 5.718164475886221 10.537965531370272 0.443945697991016 -2.6667633683943817 -1.9504617409696152
Ni 7.43285128293806 7.709190188208022 13.033172333387158 -0.07088402860507148 0.9784495059772633 1.5464658438986592
Ni 2.0237110578496638 0.5498800110308147 4.045936501594622 -0.67828683874389 1.1178565191543974 -0.1980019400022074
Ni 1.314626252777896 9.155649781580756 1.8157737166359493 0.014069847829504802 0.6050037137790225 -0.2521588856605851
Ni 7.512068741652839 7.302293423260789 10.826579334650514 0.2258726982705465 -1.3080255933757474 -1.5860029827613331
Ni 6.970301339825052 1.8248736765348772 1.4337928749654731 -1.1738212074454752 1.2910879370801442 -0.3940650111104891
Ni 4.288726588283893 0.30242203122811767 2.497288864032685 -0.09474669415528199 -0.6224568762584635 -0.32102279851183424
Ni 2.2005899799145414 2.9375610188603063 13.012113134064743 1.0059708513259837 -0.6481563379070966 -1.6265690771091537
P 6.343728221161635 9.043756153459821 11.194781311962585 -0.33201349319538304 0.7030457908561247 -0.05077645922191901
Ni 8.933761982532674 5.248548919057196 1.5351367159574385 0.10098290487298092 0.6862328330638439 -1.10439319456064
P 1.5876617542325768 8.375596851210702 9.809780628960983 -0.6587713944187816 -0.12150647874762945 -0.22188748837055336
Ni 6.181549446074759 5.842280698123694 12.841752011249847 0.026570551399676817 -1.1196074404072331 -0.9184502426054957
P 2.0102680395458123 4.169051608953631 1.1487146313797514 -1.3774096403965248 1.0036722850997941 1.239763061553923
P 8.869620891785969 1.9906678435751453 9.655709875016278 -1.053910869540372 2.020596807223804 -0.4639825620372332
P 8.380028917996203 7.575659265096998 2.418332924786615 0.4156368237439939 -0.3635532156748771 -0.21410835864576674
Ni 6.705487643421737 6.105708800148932 1.630424316621389 1.1627317824005328 3.772897456905528 1.3730927581887253
