# total energy = -340864.0862122119 ev
CRYSTAL
PRIMVEC
9.28499794603401 0.00000000000000 0.00000000000000
0.00000000000000 9.28499794603401 0.00000000000000
0.00000000000000 0.00000000000000 13.58953303599627
PRIMCOORD
 96 1
Ni 7.866807238589857 4.624792410701482 9.646407986008372 1.9621486903892398 -0.8873717760331362 1.6763795728733772
Ni 4.645897210707755 5.698862386559656 12.923088353194336 0.5718022873263894 -1.4791409933997557 0.064260866861599
Ni 0.8350964164030725 3.0657205746023637 1.947217241757819 0.14545759024658822 0.3873932555172683 -0.2030580143688761
Ni 1.7348182745147505 6.394113737052268 9.023300139945473 -0.8740511476648302 -3.0291834989060797 0.6035207014755928
Ni 4.082901368921413 7.960845696338881 5.4803733892575845 0.19550642727386328 -1.2356436400689108 -0.21149200406884225
Ni 1.2646259857696303 3.5561355885624697 5.1944363109147895 0.9143645025718962 0.8239935688868067 -0.569195960051794
Ni 3.9429114570452244 0.8124196662687476 5.0524928355008445 0.49539578624119196 1.8178043878114887 -0.5061733364726702
Ni 3.9810170880288336 5.741378391499702 4.5551707116750695 -0.22598145593426885 0.27617504606952437 0.9665113597787808
Ni 7.71539677941595 1.302378786836725 12.418808052014972 0.6877027327411511 1.5877911850100073 0.130221232912808
Ni 9.299668099552473 3.3425342141039094 11.628074426614969 -1.093216094897898 -1.0217908490773757 0.33666590436572985
Ni 5.787970510475276 7.635462233329718 9.30524281223341 0.2702702505493152 -2.869665831022 1.8657549475488384
Ni 9.19101505526149 8.875807949844441 5.847644262855529 0.3049580317394877 -0.060869067571230645 -0.3529980658668502
Ni 5.395094398435933 3.4667674847083667 8.691661373916414 0.11302158120506986 0.25681669614757063 -0.9643272076432683
Ni 8.787349775775034 0.14970573357727227 3.5387550011749895 -1.1814291016997203 1.5413056398539584 -1.2755417618154288
Ni 5.473441209897848 7.036505595052265 1.5065763155203824 -0.02417685435651965 0.09758982003103193 -0.13685442195860947
Ni 5.770366154640743 2.1869976675220046 6.402232539131233 1.006779206159892 -0.4812513764200099 0.06344685560073589
Ni 6.640221888819214 6.707528837893333 11.689023009193576 0.5298179724748037 0.3989894449952999 0.4209626068322814
Ni 1.2959071433680174 1.866312413401172 13.276022261684629 0.2160361717960989 -0.16587909132573364 -0.6041341666898756
Ni 7.931430823298902 5.910096086578446 0.027320177535616923 -1.0974090499333229 2.086768775065187 -0.6194265740725718
Ni 8.852474750365444 0.5727079494883046 8.002427630499943 -1.1165336865779156 -0.22347103080758934 0.8596750814488162
Ni 6.960907142940046 2.3219086855999387 9.96856119828186 0.7800845262086823 -0.7661362915587063 0.5457516129859246
Ni 8.422523642098628 3.9872287515590568 5.998963729050966 -0.9211144197012201 0.08762139596441038 0.3045988486278561
Ni 1.0674312024290131 1.9005369153031175 6.870120291421642 -0.31175731404950824 0.8012465049982781 -1.063128274373582
Ni 2.955637640649715 3.3476316778977693 8.089115155488312 1.3992146520867579 -0.15100603086864317 -0.8086109157831494
P 7.35434035484757 4.918263336261651 4.062088117846155 -0.3305042556397082 -0.5800964090143816 -0.3149945900398833
P 4.36466391225197 8.11311966030847 3.0581068764038846 0.4801365460892763 0.3755345564064694 1.674716840458974
P 7.919676016080274 2.8207544775651896 7.8691006330472035 -0.4466579547158565 0.14562008396638146 0.6000304289341473
P 2.1717702711250455 1.837696050172253 11.016272922376812 -0.8070512846055133 0.10267494786342318 -0.14476544927557003
P 3.9595594581060465 8.073546999671983 10.9298843743177 -1.790360946888555 -0.7340352972591035 -1.263760452909785
P 2.6215077097101043 4.62665869525989 0.8349859249292164 0.4523619470791694 -0.41091165035418264 1.217313217190839
P 5.180146699295935 1.737390218906188 2.4492552159677494 -1.2309140958037252 3.4079545599719756 0.8369974373456425
P 0.7975822397795157 1.4408645290688231 4.631027286726212 0.6476377463994653 0.636556291774323 0.6627519763330844
Ni 1.4481532523441967 8.702874865763127 11.032376822566377 1.0757806730302697 -0.46569183141885606 0.07507364120638683
Ni 7.468545827824762 1.8884014231745654 1.6300240753107038 -0.7481151723909374 -2.8378736262120676 -0.2757770393001573
Ni 5.40917974010312 7.023423033147805 7.168777816754581 1.0649779259878112 0.46552470971337245 -1.086817904681038
Ni 0.4305147076334588 5.223999743919617 0.9472647608622805 2.6086060433273586 -0.9693801966861436 0.705729765446191
Ni 5.914125775624959 0.35292183799315036 8.547517354023153 1.5543228780492329 1.4543277910108179 -1.3111865076022322
Ni 7.582751300801953 6.536573458344061 5.452678097810726 2.014012469138067 -0.7758602037146896 2.558448705746678
Ni 5.704479810230486 9.056048327196738 11.16181711993877 2.9419577957181913 1.6879148272064866 -0.868038622922163
Ni 5.3647788806090615 3.1092393593051364 0.4472778426670378 0.061107151723965726 -0.0982999587241791 0.15596157510170558
Ni 4.592387768368929 4.036940629796446 2.764152202458177 -0.07481498822836147 0.17103698137758933 0.11182164735969775
Ni 0.7359512098623854 6.55748327339647 5.377337768637431 0.21627245617662108 2.117671378181314 -0.2645323196242734
Ni 8.935891170627809 6.580723622897439 7.8466912908496065 -1.0846815750643255 1.9670821231351157 -0.2325349407820705
Ni 6.181617277332268 9.067747424428548 5.6212425904257195 0.5640339562348802 1.1885122337987466 0.28103777347846437
Ni 3.0683760839740284 6.5457934611624635 2.5001342184289785 -0.913722241002207 -2.185598895261223 -1.2701259901164963
Ni 5.609030032815403 4.280541832156575 5.307106973755141 1.0479040012246599 0.6041411086684112 0.19482688470833542
Ni 2.7880712852985465 3.8290866689779572 10.301355018037617 -1.846025073220079 -0.40782246990589766 -1.037285345168549
Ni 2.5344237153155453 6.728615067904 6.766581423920564 0.7104240855980668 -0.5338625748578225 -0.10825269906151679
Ni 2.0687532205004975 4.292649469291718 12.417122824913726 0.029252726217530268 0.08630447692519976 0.8570571842099949
Ni 6.708540902653863 4.028092026890164 12.370945745339947 1.644801026736148 -0.11331725806861774 -0.3958053908403635
Ni 2.524609472637749 2.2720203924042925 3.430079672889279 0.10788708819198194 0.3826143460713862 3.2407014711168514
Ni 3.3555146410325367 2.355009702767718 1.449105893118787 -0.8753567538501311 0.1649432097750256 -2.6314580082248678
Ni 6.321477199239213 9.261924583483182 2.813427685798824 0.5834864085325371 -2.107435045165287 -0.961815496965008
Ni 8.442978492258689 8.422932182001961 12.300701951460733 0.7811204236723645 -1.5513452834781476 1.2991257197829562
Ni 3.34781737785383 7.903650109872254 8.628796367791262 1.4186383080290086 1.9615498804629767 1.1765653458495156
Ni 4.821922199057478 8.048551785586243 12.937140268869431 -0.6370489151400255 -0.575704450594273 1.2882139579664587
P 5.71305914820048 1.677483413081079 12.109809824628806 -0.4442866262702026 2.7560336128161245 0.2991275411006397
P 1.58180151072092 8.458410158607315 13.284895934084979 -1.5282063834678392 1.745422434504652 -1.6726123925214613
P 0.8449050880821867 5.22790872799469 6.87309613321751 1.2352659450145178 -3.5494423669375386 1.2584688654935423
P 1.0552957103004612 8.321512150999533 8.691294616503194 0.2501575389598401 1.5349827829597242 -0.34015180603180123
P 4.259817717060226 5.266785013795949 6.933691885879604 -0.15779554298665083 -2.0778208218432797 -2.9209220580938147
P 8.681500800820565 3.0682553790025895 0.1609322244209082 0.5183133142693137 -0.2477522719524572 -0.5754352560932864
P 6.2309206156663235 5.114938159725299 0.7876602911272047 -1.9287122651076656 -1.2839662384336983 0.6208339959430598
P 6.55290576947958 1.6505012094654923 4.065063959642024 1.3397411793114733 0.8192421702447504 2.4925217640365656
Ni 4.459129479899933 1.5487376335443526 10.050274749947151 -0.8791990104143569 0.6852267603968328 -0.18950752937795104
Ni 2.470347945476879 9.339315040171384 6.7637142165989905 0.1453305777504207 -0.8325802821145533 -0.41433507421343474
Ni 4.091712831836483 5.5185848692161485 8.903250689351058 0.19861771920933535 0.7615083058683917 2.2670995230398763
Ni 6.185869806326052 7.367571476716878 4.166577769122262 -2.3982070152123796 -0.797999201705574 -2.4185845504274672
Ni 9.023160864978427 0.25890102173995216 0.7415825610299194 -1.9614190113120673 0.5203226313898588 -0.6701935202127942
Ni 8.452774164940879 2.8950901699761973 3.7467705209552506 0.16943466988747594 -1.7035664177008143 1.6733369293923117
Ni 8.852224055424761 6.9886692863710875 10.195614677557442 -0.09912991082464219 -0.008820169394791261 0.01313833715417092
Ni 0.637259111214486 7.632695303984418 1.421859067065814 -0.17518108545294994 -1.9687163163044286 1.2782995270662243
Ni 1.5162030012425574 0.7982962561105683 1.9242637986889641 -0.18350143239318717 -0.18766199152878002 1.0897304503421428
Ni 7.139624780652647 5.1176215240903735 7.681089641033557 -2.0340657882445163 -0.016938170516235345 -1.7570782735760255
Ni 3.5728300146123066 3.0909757686265884 5.914531530028951 -0.21035506225092157 0.23870507414852435 -0.8221143495862229
Ni 3.6990317047510044 1.3075133906217968 12.410926017379987 -0.9583879593406978 -0.5428861185126715 0.9135672034815815
Ni 9.300782299288837 1.1944592573721804 10.309005856227309 0.27411173578259246 0.8754626833003762 0.3516317816469428
Ni 0.8010176889666346 3.513963128541136 8.704707724329442 -1.762653710781274 0.3749108067795414 0.11011777729471357
Ni 2.637533615918123 6.668058312232679 -0.1346268971451618 -0.12346026003989059 -1.3910418864679786 0.8119908879989758
Ni 2.083822771934805 1.1344688865668442 8.873475558396322 0.4073218761203953 -0.4512805410895325 1.1212555175336174
Ni 5.089450840755999 0.6829199449104156 0.7674087824190297 0.5924595585654248 -1.717128215545649 -2.114097030566495
Ni 2.960707249450166 8.519969694041363 1.2914577724208083 2.08511221329837 1.1932268656655967 0.025749598160278237
Ni 2.3739975232749018 8.354130348281556 3.933028505383686 -0.9061377437867297 1.08769773618283 0.4083991683449741
Ni 0.44147379054036767 6.395692186678782 12.30195171216502 1.2943884622082868 -0.28342401432245384 -0.24531718014840334
Ni 0.263184191226487 5.197323945231529 3.6759956252017028 -0.4273996207068768 -0.24813022411716623 -2.2454642041582873
Ni 7.786742702534383 3.9609429227786963 1.938125371909098 -0.860852132476053 4.615194452087214 -0.30982255892064064
Ni 2.914885785292244 6.2409391282957865 11.191741739358136 -0.18356031065558065 -0.10359051769915709 -0.8969540204049327
Ni 4.789647546694168 4.099057265098674 11.054622748802641 -0.20280090405274748 -1.3890824487487625 1.1615359623202188
P 2.4805057330733864 4.64652859055836 3.487699583755503 -0.49585447104516545 -1.4573370101507868 0.6077110854078567
P 7.863473924378572 8.905603507794345 10.410669154172176 -1.6337365413918703 0.4919618208589785 -1.7597879591977046
P 4.230068584099339 1.1971240517416482 7.598247962135199 -1.7343669480214388 0.8036348027247967 0.053909091313629746
P 0.7470532817354609 4.925784184482102 10.500469010424121 0.4707404495863571 1.6656781272954733 -0.30148807091301627
P 6.010894022728071 5.413636539048572 10.173450459301844 0.20966266416958731 0.9307735400575389 -1.5843078544470972
P 0.33144378107519595 7.577644552010289 3.59823655410072 0.13208553981505639 -1.390420965054528 -0.8211355306127214
P 7.089142247597607 8.112376860484227 0.4912998742507338 0.24836033785010128 0.5843119897576259 -0.2851715931411798
P 7.445212628345763 8.26021259550397 7.150947835473435 -0.2481942445858822 -0.39952552000442804 0.4940235884840137
