# total energy = -340872.7183784253 ev
CRYSTAL
PRIMVEC
9.28295964794772 0.00000000000000 0.00000000000000

0.00000000000000 9.28295964794772 0.00000000000000

0.00000000000000 0.00000000000000 13.58654978071105

PRIMCOORD
 96 1
Ni 3.893403138999514 8.594349483204017 6.046217969516933 -1.9603322060057917 0.4096476960400945 1.6024349030651113
Ni 1.5092792390272498 0.17337040657818462 0.6455360692435452 -0.9890545351866191 -0.9602741206198172 0.37458453378837425
Ni 2.4487889952391613 4.676309369923948 2.59390300166189 0.22314398648547373 1.65812191221477 -0.6446714646822898
Ni 7.076613468152055 1.402506639865628 2.270407647170154 -0.6319511889021439 1.1078438721134019 0.27760252254467027
Ni 6.428208036154133 7.311713698230932 13.20161498590623 0.6085978588881842 0.7335740413519689 -0.08634535746546419
Ni 7.068082428452044 8.356817117759089 2.6793489298694246 0.8276476206996263 0.3913098169628551 -0.528834782625928
Ni 4.265733358072152 4.62243107349428 9.935993327978075 0.5448684390500229 0.39038576248668894 0.8948246327667557
Ni 8.626412825014507 7.747650755197451 8.728610781777688 -0.9617630464605179 -0.18424293854490206 1.6490387189665794
Ni 7.7617701364637375 3.95595171952038 1.4562744690782892 -0.34187547359112735 -0.7709031168197304 0.15225301590186682
Ni 1.3173262042972886 2.7049244113465742 7.749455362507225 -0.6983627835581585 1.8082859067980923 0.8509960656175796
Ni 9.098107841637658 6.008209820498732 7.287607709228767 -0.37327584227927973 1.2903307471991454 -0.004478347486327771
Ni 0.15859843326520523 8.994287223569184 2.7434366250608693 -0.489193514085222 0.5059241965763417 -0.04881033663448368
Ni 4.984912072630344 8.990379097656556 2.056460496704353 1.2080945268060483 1.2194192077902484 -0.20757672817483605
Ni 0.9789437677958597 8.654057478144685 10.089263342540551 0.054130206185500324 0.5358117281643933 2.120794240081012
Ni 5.75925941497653 9.181905116253548 11.164679337734015 0.4911033295134252 0.9615905254383955 -0.547078045106832
Ni 1.8965271738756424 8.203156290605348 4.42496210428146 0.2752769597352872 -1.0246897678917255 -0.7759975006235023
Ni 9.192144220485442 1.1181138953068173 8.946838304828555 -1.5173966944468449 1.2125109107061893 0.9118463641357327
Ni 3.9430948207341823 3.1850205062379633 3.192132181443816 0.5952342930970845 -0.27350572676747736 0.7573094372956957
Ni 8.843671207102716 5.883873862128817 0.5636715067773211 -0.5750894427180934 1.0416963297520514 0.14903090942014333
Ni 2.089454919343907 1.8505486759059402 2.948593741259053 -0.8237935370608588 -1.5586837261210897 -0.2628287066696054
Ni 1.8887016390909745 7.322064197975776 12.594676533603574 -0.3081184317453403 0.8923486604224374 -0.34239509354002323
Ni 2.201927255584753 5.5413883575671 10.968000348367193 -0.8584656345217474 1.5599903607476553 -0.9613426710936475
Ni 7.164402415315284 5.815133547679868 8.785456840331507 -0.9958959835884849 0.4800488714714764 -0.5329395488229208
Ni 8.90594129884121 8.481245905723126 12.518741925610003 -0.0013539429247331522 -0.14336059850824343 -0.5343515986790992
P 0.25266823076687533 5.110742587465658 2.4344245438443872 -0.03669118477344648 -0.7567908457880644 0.5010552985198145
P 2.003411168550213 4.75316299089935 8.722469175830433 0.5205609726529099 -0.7409657058303497 1.587918454616491
P 4.9368263428740224 7.426608886878419 7.572965881566469 0.6251719611967814 0.7996732469738873 0.2056777113799103
P 5.097662897653562 9.17769993563972 13.267577838898983 -0.42286470895100076 -0.12078348453867585 1.23732128488165
P 7.869053298393043 8.952300398146821 10.420530390652363 0.46997040418955194 1.5252138764984184 -0.13521354392107682
P 6.595477681806477 6.805411808918289 3.944867865981954 -0.33279253745325266 -1.3386736572789073 -0.06495892136988814
P 5.954201562637289 5.7240398669658195 11.538104946017318 -1.30592345943108 -0.9307192897808357 -0.20542857148358168
P 3.390025381901783 5.190037626766524 4.543804407271107 -0.7752832481652969 -0.13053593593974938 -0.3066397903172848
Ni 0.8128836917549536 1.1763366167414973 11.985618781667064 0.35882752806443363 1.2658854696725876 -0.8970476085600034
Ni 2.000542734091776 3.284812319921447 4.821744566742346 -0.581922920700159 0.4678564431703426 0.6296533940069027
Ni 3.0574169461548775 0.4349604896363341 12.534611144725531 0.3339868148716699 -0.4241870273068501 -1.6086160921751587
Ni 7.890803272296336 0.7687014464315544 4.641437004595263 -0.38891380592685276 -0.6741854149810067 -0.14985469087301934
Ni 4.341203818095103 7.459841881574872 12.02605256797973 -0.949130702408488 0.09407615045081863 -0.827645306706781
Ni 6.434947464687547 3.4297750141057533 9.737996158374688 0.16625267261506851 0.3944136526991594 2.1857174231169583
Ni 5.721681995275065 8.768896969035696 4.836784817582345 2.727074506579613 -0.7488530789982264 -0.5155714898581185
Ni 7.77948202302263 1.9553161558344798 11.816602083053303 -1.2539298399726082 -0.25902038866710875 -0.6541032995191508
Ni 8.014192368806183 3.2282419652621774 4.0919424334325845 -0.11670597203519255 0.8552309296345335 0.283668269122776
Ni 2.305051651697295 5.230975477775283 0.17686544079695962 -1.6339293741289664 0.09837992003249509 1.239199475740969
Ni 0.9330024016638074 3.2765597690038084 1.4079195334990084 -0.28286094273013224 -0.8766834430813546 -0.3859444388858837
Ni 4.020143383857245 3.730626445702779 6.058717474365753 0.6476714278508781 -0.5184578102669781 0.0901153660308577
Ni 8.28965490641025 3.8331567324129265 8.071945372494596 0.02096348962554454 -0.99491870727688 0.06338000691854247
Ni 8.445237306162362 7.583212412165895 4.581071776128196 1.0671165695973688 0.04004441751639555 0.8421717824577304
Ni 1.1479214779800886 1.0558809354059728 5.095797951107607 0.15298552319251718 -0.7452059691639423 -0.10564765733850191
Ni 8.981448890701811 8.783944646243224 6.838042339548877 1.121388700677372 0.8525371848524543 -1.8866317909978474
Ni 1.817315681209487 6.979485863819935 8.82650144537351 0.17645918083442513 -0.8003435335680344 -1.5475883875388767
Ni 4.186577563162471 6.956018542425345 3.0708187546585837 -0.4802000523373601 -0.831760100206103 -0.4148981458057564
Ni 1.166376001291974 7.053220410432765 2.127014701422488 0.8747096071844356 -0.2744020133295016 -0.38967382402132894
Ni 3.530857159147563 1.329356919695781 1.1241153285669447 -0.1468354444307213 0.9962780495182519 -0.2877190421533819
Ni 1.6942607712384858 0.34033278627397767 7.807537911254778 1.8337789088628742 -0.7285670750556807 -0.1523851706043569
Ni 6.535333387773426 3.3285721905915815 6.143266668694047 0.19116589091698044 -0.8817942819453588 -0.9448909532955275
Ni 4.914667918756583 3.228056306073929 1.0598651815857822 1.3509876987595701 1.097229329822349 0.9567558230539137
Ni 4.860771056408089 2.146313045744962 12.6364554207351 -0.13250951472635245 -0.7611303537036828 -2.029913199528724
P 4.525953276321029 1.9891803917709776 10.227370571198788 1.6695463520016278 -0.04469760001769076 1.0606898401354186
P 9.153981974340995 1.768663690929009 3.0277356117296153 0.6700438820088074 0.9005450801903008 -0.352040072828955
P 0.16230604725452466 6.037980271334354 12.14046504273777 0.6190293386341532 0.4595160416254473 -2.0893051683337953
P 1.8098707477607285 7.848352298903353 6.565930950292694 -0.4748822396688725 -1.0691677956994425 0.1490491642525885
P 4.349929799942775 5.308701696935453 1.0662982724585872 -0.32751149155997145 0.9216227267962064 0.9060135595040396
P 2.714300200353116 1.7909056616811605 6.504343156071012 1.987360156657861 0.049670884862566066 -1.1262848524274087
P 5.727623089299012 2.496178503039551 3.984908054815533 1.6445858254015482 -0.610624916620542 0.8026382431394823
P 7.032278053998351 0.4904577341875285 6.932699748381353 -0.07120104562485802 1.0226285144873226 -0.5141661248701597
Ni 8.722491454933023 1.4317758108929792 0.412032508183605 0.2719736063936671 -0.33731562213458677 0.7992071059707462
Ni 2.4609125402317784 3.339656044130008 11.202898209930876 0.6429904774354409 -1.2602591246247459 -0.09264096066618885
Ni 6.388792590489008 6.063276335733191 1.581569357155507 -0.4820895560505891 0.4462077545523154 0.0808236563162866
Ni 6.708813333272676 1.2830071033495825 9.072106272323477 -0.014608236831478067 -1.6938422484345153 0.3806379390713058
Ni 4.105286687587935 0.8406648043884943 4.2506745413133284 -1.505355961232227 1.6214734077538009 -0.6114882930621017
Ni 0.4836505400504031 3.9397900871833618 12.67601939375082 1.2792714040611903 -1.4884072491930302 -0.39300751638025216
Ni 3.516106536641232 7.790742252789892 0.7791401342908174 -0.415087121888111 -1.3907464667147469 -0.8868102471027113
Ni 5.215779273217157 1.709735464578985 7.263858185868039 -0.18666106106809144 -0.04290734088648739 -1.599583035438613
Ni 2.0381201537932405 5.523676471008208 6.700587702937334 -0.34914835310345677 -0.09527711273745527 -1.717227460127675
Ni 8.806409408021274 2.1292324004261145 6.356358858597965 -1.0902467278569288 0.45155487779684167 0.2657235117188972
Ni 3.5822383394952917 2.808865707887409 8.526877221010805 -0.46937262270455293 1.0671227402449557 -0.898546304592717
Ni 7.605770003538068 6.907357269185455 11.032400879290837 1.100260146228873 -0.14251110602375455 -0.2836297025753567
Ni 7.673517041329889 4.55238186176818 12.372591012620909 -1.9950387562490413 0.5633788391493846 -0.4953623619000953
Ni 9.219751741777971 5.275663644386659 9.810969502315698 0.9057873024258465 -0.2480649180968695 0.6600854852445148
Ni 4.250574285351675 0.17594921270295405 8.647675443548648 0.07195746417490834 -1.708341984712587 0.8737837529360564
Ni 4.045003149163698 5.495409859597398 7.690177168587353 1.3413830857902707 -0.07429845360325914 0.7494675726537738
Ni 4.0449753002854605 5.203878519250438 12.443825658263973 1.6576917666558872 -1.1744004769877128 -0.47462435802179553
Ni 6.182497383466863 4.710155039941622 3.443347629062648 -0.9774855994020971 -0.7109509046358143 0.4805515221395079
Ni 4.956812554488957 6.477909000848213 5.2584019813592695 -0.2845712405530196 -0.2731545140756457 2.177059490331644
Ni 7.2348507942961175 5.44476203304325 5.6470859900287635 1.085250303083602 0.4082225335577937 -0.20465029855666048
Ni 5.379437847658071 7.015698688487775 9.783755578502257 -1.1407683907555644 0.6518163032571871 -0.312034736080611
Ni 1.0905249399331134 5.519025708342586 4.4169871138502526 -0.6836763851905775 0.9626606185741228 0.26137989003822076
Ni 2.542361226116326 1.2297043504034835 9.982336646252683 -1.1955881668089214 -0.9381659758668682 0.6854985260009807
Ni 6.968717630901532 7.630852559870419 6.763343293453097 -0.5904127033387251 -1.3166447025033259 -0.13988009615881072
P 2.8389703452618775 8.89622204033641 2.53491072289192 -0.8394240445092641 0.19772348952984012 0.402556593521268
P 3.0731144305212745 8.001558261045885 10.268415176240788 0.6819018097886579 0.6312122538535904 0.7838583914288177
P 8.267292257185737 8.050711531134633 0.8908494112679625 0.41299270125292753 -0.0595230950662975 1.1534166756471942
P 2.2070421662209947 2.5597482090957837 13.145597895627942 0.33723694637785145 -1.0835654591820114 1.2507576128922138
P 9.024159786958343 3.0741726878942903 10.469659525046639 0.012142034679172638 0.22344531977597645 -0.6262207141762699
P 6.730878927795993 2.323171988470333 0.1630533254872242 0.7297230430369949 0.6905422590724752 0.33998751253979514
P -0.04902702184073977 4.369925294517122 6.013121434323843 -0.18218657023650559 -1.7491479629853557 -0.9030009979299609
P 5.89606238783732 4.2489404844950895 7.940958173705685 -0.9465637130122602 0.01064873796309779 -1.1180094997924939
