# total energy = -340898.3434918116 ev
CRYSTAL
PRIMVEC
8.98048568878334 0.00000000000000 0.00000000000000

0.00000000000000 8.98048568878334 0.00000000000000

0.00000000000000 0.00000000000000 13.14384856694264

PRIMCOORD
 96 1
Ni 6.304686928775857 2.1949833059664563 11.272308896854222 -0.16994914763004923 -0.9387501305051124 0.7233148255178059
Ni 4.533483749499653 0.25771478632002104 5.887695151017882 -0.01635761542241699 -0.120211928305922 0.46030614162691047
Ni 2.5973449749196025 1.4145252396767922 4.6462319479054415 1.090447016793193 0.2951377032149562 1.603584186178206
Ni 3.243957886444565 4.326052497167723 4.678487157404124 0.16095440033060668 -0.6113965046792438 0.949810759194648
Ni 5.189562092661894 4.434743312258784 2.9345352611481483 -0.20407977076517111 -0.0016318791764681573 -0.6316069181888477
Ni 7.141659189841036 6.031302991487409 2.6833690447995724 0.5036212594747779 -0.01743979274300222 -0.7693352581119782
Ni 4.94681957164137 4.514660652050188 11.263699305477884 -0.38745161955902946 0.03485438867502385 0.06234745188897004
Ni 5.733770528892848 7.7260463178605905 12.38115008731676 -1.0661552341253637 1.2390943176216724 0.40635591266270016
Ni 1.8882997287244703 6.428482920350698 0.41036507756333807 0.1933929804752863 0.443835654775713 -0.612580754795332
Ni 2.8394768229312692 1.4949275256811112 0.41350016502498316 -0.7558138265867758 0.272765249057027 0.33026514304570864
Ni 0.5637176427668403 0.0369627799581344 4.534062092760982 0.10437958925935573 0.014681256161258587 0.17319233715769528
Ni 8.614081619048696 2.476395797224286 1.3222714070579413 0.2705209331075406 -0.17524279192882075 0.7000926217650717
Ni 6.8188107388351975 0.7973719125379088 4.731785440349175 -0.38555208854347145 -0.32456783555061525 -0.17431719479075786
Ni 0.837282087812319 7.281260835762755 2.51842716315593 -0.5703910088011596 0.7162913430121213 -0.24092316484576573
Ni 7.7006764465367645 3.868002838098104 3.7911855618751904 0.1577037546037929 -0.2582567710282069 -0.15567412576827383
Ni 7.557671196639214 3.9323120942219654 12.57899107926401 1.1322266718331404 -0.33420972951575345 -0.59713665232612
Ni 8.05727356176736 8.612563917011977 6.708199895960407 -0.6949023358133838 1.5087601018177692 0.6620919741515824
Ni 6.752723346597312 0.815336475580804 0.47781660553718386 0.24033412511151508 -0.29768618066842284 -0.5774044640045153
Ni 1.690630264048823 6.496321507246333 9.152205776404644 0.4300910514961109 -0.32680160997714036 -0.4103694046974674
Ni 0.12196576864535459 4.967115468700429 1.3086489087177255 -0.45011043204083123 -0.38561199524712947 0.4236442674295027
Ni 6.339962275522755 1.779743620914774 6.92414015823192 0.23639056708273481 0.3077253100719797 -0.011721145091670136
Ni 3.443324662865417 4.367650105653371 0.3730825923240964 -0.1348582174641871 0.3828352038329406 -0.046405069627100726
Ni 6.007747178219305 5.693214656716426 4.926524572630853 -0.009067252408590836 -0.5017458968289359 -0.3229408414701535
Ni 5.469995711008467 2.9526848221907853 9.043966679730428 -1.2250393821905032 -0.3612024560545134 0.2966055460097344
P 0.3440423966073347 5.4839693463287755 12.259688123903711 -0.4679176354255812 1.0676701281079934 0.8413287177311445
P 4.086183731482995 6.180414971473526 12.405439606244034 -0.9838753049785248 -0.39314995549538745 0.5120148828551118
P 2.422405118853017 8.35149222524033 1.4504633462480068 0.22512347880934777 0.7215230237247057 -1.0365525807675826
P 6.280834759488751 7.729836082709671 5.8401533592298485 -0.06289792507580136 -0.1324580926631267 0.045233932137135
P 4.661294018059182 1.0619693428871615 12.504413536105934 1.2795454836581837 -1.0419166732929734 0.1592127350491516
P 4.0214164706024915 6.108642931962019 8.093376909270381 -0.7251531642781254 0.46366734478965954 0.23038035633291293
P 4.719532466036174 0.9377422880119524 3.7798027965998107 -0.08426713478019682 0.557723183525504 -0.42771200974097306
P 0.27429455851047946 5.562288159714643 3.6056595095903665 -0.9423519889237578 -1.671716363069753 -0.11556774466569128
Ni 1.644874690811695 1.1908123672704929 2.5389053640691044 -1.3394717277001706 -0.7603227702007228 -0.892320121177347
Ni 1.7924510077902471 6.366786985485326 4.809163098862569 0.6070451696890835 0.6232384916194944 0.2768337626994458
Ni 5.942225556563155 5.572211596108564 9.055900846810863 0.1169905931551469 0.02481654482304758 1.0720911399938244
Ni 8.497137737852643 2.2693417252801793 9.942217283088745 0.3732928115601442 -0.34065085715540694 1.681505838356349
Ni 2.3671930944640356 5.093066776777117 6.99802171376961 -0.2062299843389545 0.042791384133913396 -0.1367142968363194
Ni 0.4831501158307129 9.019370926250183 9.095661047978686 -0.27358568807579337 -0.17536106267423993 -0.045693645382372916
Ni 1.4001115605706898 1.073886447045291 11.44969773129603 -0.2286258355356514 0.6085484937074873 -0.747330728816429
Ni 4.042727162514504 6.735274263417776 1.616706500229639 0.8507605525680058 0.15060571010643095 -0.21999155689942113
Ni 5.535571215577163 7.781446932443483 8.048911831788734 0.20720726065055925 0.5499468820141948 -0.47675348854965627
Ni 5.051541012174862 2.8408149152594993 4.967362432049599 0.5451867416213901 -0.5517978191800046 -0.21522910251377125
Ni 0.6987194840541998 7.089518491467187 6.897694424754257 0.867898497799873 -0.11018102643248122 0.18013097325905753
Ni 5.023872136582401 4.550340120641182 6.938203598406472 0.5274255609832272 -0.08642377611188341 -0.3248128616818858
Ni 8.054669220994294 7.140752160813175 9.053969144396083 -0.20201311804412952 -0.03401209527938658 0.279927314023105
Ni 4.5483195114207 0.5401070485376483 10.358653168798952 -0.13416504805190443 -1.14134714607717 0.026864171380695665
Ni 8.190481102066931 7.161074999328508 4.703158346961934 -0.6464555531659061 -0.5492190027092348 0.21225073661173768
Ni 7.198209306558248 6.0179849316030785 7.032484326585601 0.0754716479757539 -0.13103010196734852 -0.5513013391595601
Ni 2.3492860065278562 5.1612196806626045 2.5654822126339636 -0.19282836622106792 0.18430721612393422 0.01592618431195322
Ni 2.2812049465257624 5.264872443430599 11.283191449091463 0.9403735250411482 -0.1245493793390113 -0.39545392103821575
Ni 1.249598624858371 3.2272631640406746 3.747955301139393 -1.2056787182757043 0.7447601398757754 -0.03676163300006571
Ni 3.645376604428153 2.578638623780655 2.6675041192488935 0.40524211077323113 0.4289829060335967 -0.15146137323850692
Ni 0.9992226912271394 3.3803445185843612 8.223461934787903 0.41991848183848324 -0.37596058820029443 -0.7249970983162353
Ni 3.610415574671109 2.74625040374096 7.180668622427383 -0.5583906419061738 -0.31282149364796447 -0.9426960025267378
Ni 3.9828812076465514 6.8122549844754126 5.981765735838081 0.26291920950088266 0.18068915975537267 -0.41001304979931325
Ni 0.6962112344751752 7.376750337280003 11.178540954392822 -0.09171716330033881 0.5809754691852254 0.729431222828189
P 0.050261082774530674 5.3689562694989625 8.095545696500364 0.5009036034332986 0.5474649961326055 0.16130689857401898
P 8.343337944475008 1.5488822821106822 7.9179458206510835 0.1789474944739176 -0.1716519892537689 -0.6741609895009745
P 1.8669441343853357 3.0882452496715405 10.216016118803799 -0.9311252669700029 1.1436883926158368 1.1154661645453499
P 4.042314060184984 6.0887780982033295 3.807759945774394 -0.10438961656168473 0.6424883409880419 -0.33355409820962556
P 6.855020056066228 4.093008900405511 10.455523868974469 0.6226003438148632 0.407127243611086 -1.1808724578653016
P 6.244302144782443 7.750967164913196 10.222680537037219 -0.10741709053409888 0.11204224801093605 -0.8239884266804842
P 2.251820798217248 8.38298678762357 5.7974493549399195 0.4224255645310532 0.09468704456194016 0.23301830817639224
P 6.855747475385601 4.058020929192194 1.517864583503476 0.2567583321058094 -0.46249646441000997 0.9983832687867128
Ni 5.161237641633454 2.861766387754537 0.4334090031622527 0.6283274761066275 0.11409501677490673 0.0905380553905731
Ni 1.3739065041023997 1.1363906255988552 6.964097032030537 0.634422790371088 -0.6905306891082494 0.08140729673389852
Ni 6.725683104984556 0.6961609437567988 9.19004684783728 -0.03840199681696613 -0.2246858770512969 -0.2810344310443547
Ni 2.678528563155841 1.5174416026399886 9.057925048225515 -0.4925310630988872 -0.7399442065443708 0.3757620990362432
Ni 6.264544158928956 2.1384152282783955 2.5193602355915212 0.4766136205376824 -0.40028476676795577 0.6863259069982826
Ni 4.069749443156412 6.8496766672387315 10.285771141288995 -0.016354787208939577 0.6653811864258153 -0.42921096288400273
Ni 8.195258720312692 7.211742898092763 0.20741149526399585 -0.24987266072956968 0.17904596772499487 1.543146292607123
Ni 7.523778844647668 3.677697371470434 8.189564194505104 0.20019611944004875 0.6981005310357074 -0.9070761964405992
Ni 3.172078081107966 8.229070247935418 12.30517877282082 -0.10721217361214438 0.34594167324070096 0.02838446467996402
Ni 0.0644295946285477 4.594146928541222 10.280684594344635 -0.011439609295509332 0.5386630815702594 -0.29599105235418705
Ni 8.700770244850068 2.2264599073788474 5.694230349617921 -0.9790539723304816 0.6421229872288231 -0.2806117416846393
Ni 3.5196677694579237 2.5793211406729064 11.482925527366174 0.11629948062539325 0.9623137767576653 -0.5528164902525059
Ni 1.219487057230483 3.460791707015802 12.525232995465235 -0.607106104834006 -0.9888521893678258 -0.1219538506976932
Ni 3.112016594589828 8.203933869232626 7.97144167427547 -0.5281272150359422 0.43419607480342 -0.11535819975804648
Ni 5.659232499870638 7.790158003305114 3.63961023473717 -0.8777594497543528 0.46044343853572317 0.09456440294114682
Ni 3.033967195766692 8.186592551878181 3.525837362944461 0.782617319932865 -0.10945211868625668 0.8016085163233873
Ni 3.4539575576078616 4.334458231524927 9.136314807446235 -0.29131190171096283 -0.39441468114042394 0.7056922273400362
Ni 7.378564395335724 6.310712834495605 11.42200371034438 -0.03002200028338701 -1.904067984196424 -1.564173031370435
Ni 0.6629196769585204 9.091484224207814 0.38454797806538027 -0.5628026549309404 0.02709145690015334 0.17762234790459086
Ni 4.643458774006398 0.2539824965776559 1.5787468863894003 -0.39790495368186957 -0.10273716855992629 0.33848547407297186
Ni 5.985969501065226 5.506142164841527 0.2153726955926934 -0.7425939854623921 1.0747339769333104 0.9028557306013484
Ni 7.719598329325898 8.941599922475202 11.403944852204528 0.8582236937142703 0.03740466590070333 -0.054003193689332804
Ni 0.11759945663202946 4.735418944751872 5.909802411987036 -0.4622563233747458 -0.23694772513778548 -0.4604475523007812
Ni 7.8401613461479664 8.711717456582367 2.6143504221191756 0.16584978074969503 0.1466806640204119 -0.3530350897523727
P 8.452387978983044 1.6496792505137292 3.467136419968114 0.10178328928708921 0.48954241278420846 -0.15944439144398345
P 1.8630466037111624 3.2967182383126956 1.5055747892002358 -0.2079675358553515 -0.6772684247817046 0.09186885838685468
P 4.577173811089177 1.057155802699703 8.107309234357738 1.1852711011536299 -0.5523673185302294 -0.03234113533486688
P 8.368429420750678 1.849917134020744 12.341573986100135 0.30124587299522315 -1.0233512515859602 0.017734955385917843
P 6.247705748758277 7.6947762676129585 1.4702841756281175 0.8280636251911222 -0.4032528482573442 -0.8027539427817401
P 1.7806416694572105 3.136524339312914 5.981817822653543 0.36610426423150494 -0.03754119147856761 -0.19161377708767646
P 6.860686742369001 3.7928092336399155 5.8898765109274605 0.19244552896035244 0.28430461715519423 0.19990815588598476
P 2.2867189645763215 8.503747375124975 10.128018138227555 1.117440000442269 -0.4862657989154658 0.3173957432822082
