# total energy = -381166.62521051976 ev
CRYSTAL
PRIMVEC
9.23848579312119 0.00000000000000 0.00000000000000

0.00000000000000 9.23848579312119 0.00000000000000

0.00000000000000 0.00000000000000 13.52145779868449

PRIMCOORD
 96 1
Ni 6.0131086655285815 2.3944122654919933 0.3786079285259037 1.6185942864337932 -0.7941404900811162 -1.1111181719892995
Ni 1.5785153945117194 8.081864307547159 5.415330595935049 0.8812294105808242 -0.678828827290289 -0.2071085302891659
Ni 1.06392249850909 8.663048208996495 2.3754087002583812 -1.1398193965787335 0.21297861591669773 1.0368549424993498
Ni 6.419943863483156 8.298137259476595 7.143980622732342 -1.4102236016027518 0.124760724018869 -1.0864090992783935
Ni 8.896079774116876 0.24903539402372815 4.526118949562993 0.2514279210318315 0.36211159813234406 -0.2441954078391343
Ni 8.303532535167617 1.7934025735753119 1.549802180731425 -0.5863812135818288 0.32679466799860496 2.692832040456975
Ni 3.394164241826719 5.325922378327928 4.649204219355863 -2.902953389430536 1.525794945812869 2.4597895639108667
Ni 6.6504533219877 2.4499540419550336 4.021524866711719 -2.1258477433445195 0.1267769831179494 -2.358846768247202
Ni 8.521477653021838 3.0302880027133177 4.819304143243944 1.3089961848191327 0.09085250130719837 2.108426205433962
Ni 0.2567495296435949 1.0846259451248041 11.297002400532605 -0.5678692708205705 0.5259145236553393 0.5349015576452982
Ni 4.721679216390943 2.656314098650797 2.216910466803149 -0.5523590910001132 2.1145341181039132 -0.15080908436648865
Ni 3.9145958608374394 1.7001400597039893 13.141315497653306 -0.554190230671581 -0.6482537827169094 -0.5446110716235781
Ni 6.383359459824867 3.5093034900068374 8.427167494863937 1.192727557431675 0.7585993597517129 -0.4909477777721674
Ni 0.7115564888193916 3.489958100799651 11.3578082661887 0.17168695625676236 1.156675291793808 -2.228421646853704
Ni 2.7190711325020005 6.333915083971541 13.115232480772384 0.9016439696814343 0.08590929836931012 1.176172224176155
Ni 6.708600351438528 1.0037707176456743 9.184477584470622 0.5736491107271411 0.960185674671069 -1.8364181462579339
Ni 5.74296610306089 7.826300075628151 3.2424045598937985 -1.1466528745607993 0.4289767353860096 -0.1260233927813765
Ni 5.495282299505648 0.7545810409095488 11.158839921959348 -0.31413687002527835 1.5530540386391383 3.188380550225948
Ni 6.52037544231378 5.735676937786549 7.062865793803011 0.07315636957901595 0.8164016154721616 -0.0009129987325726211
Ni 2.6512791239048963 4.460941432439448 1.6943466052761829 -0.13207911205715317 0.00045251415638631747 -0.7162355500735214
Ni -0.1981322612669574 6.789852833805867 4.201400956244043 0.7174773929004225 1.163439349990519 0.6058449787333953
Ni 2.948305679969968 8.024705796073967 3.4614259613404936 0.5285041387593866 0.7787089860173944 0.3277542036983968
Ni 8.575596702675947 8.026950748116635 6.224738354508863 -1.6840494307138094 -0.3819990810848905 -0.021972390506033126
Ni 1.428694870742404 4.541547220802727 7.601979478742466 0.7735773212177838 -0.039644353864499465 -0.5829891571811443
P 4.774467924093839 3.9256635667926494 4.48919179808255 2.766037775216688 -2.0230146726366773 -2.195920074681573
Ni 4.520575858099615 7.092413242848544 8.68926703161827 0.7456155458975353 2.6485136781555743 -1.9040121912578238
P 2.490982157269798 0.6841357391986415 11.62948164574886 1.3218223900495234 0.5167415989068197 1.2086897371878862
Ni 1.7579914576101034 0.5088354716693351 0.5336500444537206 0.36071034690944326 -0.7088557126696824 -1.6724889795697195
P 6.205222977163466 1.0933193602365343 2.28666750132402 0.6963218418687298 -0.9065794593098387 -0.12232151844975708
P 2.2731017088159815 3.2531110410553117 9.87962929410415 0.49147048304485685 0.6401542935382265 -0.39566012351175084
P 4.728580365262848 2.3125962354925447 7.913946513998495 0.22911177403313446 0.1386498232961354 0.988154649080169
Ni 4.767400482478033 0.6932033129841494 6.613520627415794 -0.4079726223305168 1.1673222299846928 0.16258910772055224
Ni 2.8529829837714233 4.211594701445193 11.876248067666912 1.230293688610907 0.06401224118590267 -0.12498081044947508
Ni 8.668406530744427 2.8279189718711852 13.01099556965215 -2.1724343328548072 -0.8824455423761125 0.4887240306479712
Ni 6.1294951092879595 5.668023506476029 9.623140289759334 0.416658837250605 -0.7781883376272339 1.2807441319519748
Ni 0.20447725329536992 7.219165267644437 10.024241159595045 -1.1308431612220524 1.3772219498657507 -1.0421511579012828
Ni 2.4878318336214447 2.4358745896380554 7.849652196114782 1.716394165593102 -0.43046540411639417 -0.26082376042443467
Ni 4.7586608749374415 3.2244347812181067 10.088278647574288 -1.5731086432971682 -1.1947127061825036 -1.4490850545546399
Ni 4.569428970863513 4.458428564309384 0.4966591474214496 -0.2816239849992375 0.04628834154357834 0.21901839435287443
Ni 7.536211622378073 8.864983031007329 10.838394728310087 0.8120358823042982 -0.06942595600230624 -0.7628236822457056
Ni 4.16130962338659 8.036318572689742 5.569853508962463 0.4775315043662614 -1.3920124779113638 -0.6441042793249101
Ni 5.313265652819884 3.974710687757766 11.991166516037072 1.0586787232426604 0.3433440877168539 0.40584014936854623
Ni 2.822191110692362 2.9668380824291924 3.7742983682022055 2.4491513674707304 0.9250664623704328 0.9260802483469278
Ni 8.260786061499205 3.8382767298725065 2.617267638534191 0.5948229165912788 0.46282813671781586 -0.26892582070627874
Ni 1.6790670736573832 5.501915532290157 9.617826312743109 1.0706600639742527 -1.4167529180808376 -0.649478913373262
Ni 7.75844339763064 5.006409347893089 11.491156569826012 1.1509376179790825 -1.1823834951931895 -0.5385589518922274
Ni 2.9720393499189948 1.151069134799153 2.4493988089601184 -2.239992896631071 -1.4526537457425048 -2.484452613875186
Ni 7.489409453455624 5.04983946950865 4.539667188948064 -0.9698177984441945 1.640275885172285 -0.683763545587745
Ni 1.2453571205912006 4.542785177896214 3.5321567322617646 -2.136424233308785 1.4480427293330544 0.7136685606772936
Ni -0.21196135061950647 5.466726139983483 6.311207809791816 0.05774723411279732 1.3061538302743312 -0.7524716495874202
Ni 0.5493499271751595 4.793517681756312 -0.11322965317098486 -0.19704677517778968 0.38516925128275603 1.8771719311365285
Ni 6.210692160740665 4.7498843134537605 2.389593471313164 -1.5776967768884829 0.022366283510342127 1.140341073410159
Ni 1.313001313415948 8.187450961438724 11.73726059231419 -0.053726800099494564 1.1320670063268246 2.3693939476354293
Ni 3.7888508309907256 6.1555568776516045 10.756157423359422 1.4526195500704595 -1.7512380127451648 1.8210971996301473
Ni 1.7448543308418993 2.7056845666179443 13.307372660167431 0.7164900892864887 -0.4371168479946408 0.4817612261768928
Ni 4.143276099159069 3.870029405471886 6.486973697004046 -1.5512558090881348 0.2494399440675253 1.1526736268335827
P 1.8135332340731438 6.4621175510336855 2.294848180475388 -0.502726001354018 0.3670095496545937 -0.10793079694572381
Ni 4.293789509361306 8.104193727658798 12.442053585699686 -1.1196094972897621 0.22158924040384417 -1.2606494180846288
P 7.2615791558250455 7.494388997286891 0.6339282644205245 4.111240234753049 0.9944173421604293 -0.8786819615686221
Ni 8.202925425107319 7.185500225490192 12.031135900882333 0.5817444861407658 -0.45299829511158757 2.5491983907930034
P 6.6912412366723855 7.1964847850734515 5.040799611180459 0.6764659834850673 -0.0526065704521223 1.3479535399189366
P 2.6549283257849527 1.053575394444119 5.431123787362788 0.7646327104299863 -0.6385720366527713 -0.286185636227991
P 7.343348993395633 1.4837100535164234 11.924113586301752 0.027936835619584145 0.6988209541414997 0.7977618888837873
Ni 7.483302814360137 7.417986719950007 8.858082805984 0.2034531929247657 0.207154810146069 0.20850309664384736
Ni 8.04467940231367 3.057855644257847 10.081856052265389 -1.1918104449340443 -1.0933076261704398 1.2152565917721265
Ni 2.612717684291335 7.695815702580249 9.930375372602791 -1.0018758553210034 2.065229358331514 -1.1694467325268636
Ni 5.572044877787651 6.61523621422371 0.9950819217768304 -1.8123271667470013 -1.3683027929992497 -0.05142283455666627
Ni 2.8465529976739052 8.83456069735916 7.621747990598025 0.8271025468294335 -1.323724749278559 0.09728668696831633
Ni 8.497956468245574 5.116809252872019 8.968958492980205 -0.01934677995772797 0.2419608620816607 -0.597098857109649
Ni 6.92042959171149 4.480942754136468 0.17884415067155893 1.1872320815347424 1.2735859236406388 0.14647934664288323
Ni 1.7880996827420144 0.8596688165694096 9.545675586558636 1.1193228192872788 -0.5296984161778039 0.04098415572184554
Ni 8.354408876315649 6.241317741075823 2.1881501367454157 -0.7209530101538487 -0.9464752670635119 -1.4455852689314976
Ni 6.375783901491584 3.612044690280535 6.006637106245089 0.4585127971719136 -1.2560962514963079 0.6472086292818466
Ni 7.90385716368657 1.0906679148198852 6.864194928815528 -0.6331434094380322 0.5557992270299138 -0.11068650531399002
Ni 4.5100070303761095 1.21275450430077 3.9224125436493784 0.8216574645544624 -1.764853032425438 3.0366612953403633
Ni 0.21277710891320015 2.199415546296153 8.358572661853222 -0.41060826018115093 1.952928457342553 0.30679688472043937
Ni 4.10754163619183 5.046873915575743 8.608720369563933 -1.3870908722400304 -2.8527356309255643 -0.7863490190611555
Ni 1.380035766179724 2.824953417938279 5.6599740138226275 0.5091912973633876 0.532819735415605 1.3447849123829678
Ni 5.966500504807351 -0.08193428261733399 0.14393468448378607 0.0627050923387049 0.7945806629423283 0.9027114917140001
Ni 0.9991791902168434 0.5948836520010722 6.801361215532415 -0.9761488828685445 0.3634154045454322 0.053783878589675115
Ni 1.0127597643021178 6.014863977825318 11.641596995990648 -0.15143823331005532 -1.5774646062730189 0.6969389066274384
Ni 5.997708109746165 6.306855559144487 12.127179198971117 -0.7660851266057969 0.15031877499363144 0.41434458729513163
Ni 8.562357952564247 9.500212074224592 0.15103076540548624 0.0426592294314233 -2.2900859566327205 -2.405471924304909
Ni 0.5725135825520359 7.295059428263843 0.4967367507019369 0.2350883033315435 -0.3411828183994769 -0.1984397988705744
Ni 4.05900263194419 6.171105249206378 2.840128554667851 0.8706907158330296 -0.2914530552745174 -2.540391334024335
Ni 4.49857902347578 0.07196688031760441 9.411678741220108 -1.7751693267497815 0.5713117208432161 -2.3285257486661575
Ni 7.868298231949005 8.588900122188052 2.591793437865663 -0.013597021958144325 0.9478952873394901 -0.6568497519160365
Ni 0.7375184815366963 7.3156612515360635 7.800163475529749 1.6281245945217313 -0.5358904039211287 0.09082293362084358
P 5.606606053061809 7.807120979164864 10.603162555878745 -0.11758168977192654 -0.6292559014581678 -0.5626571304920116
Ni 6.510240823421572 0.37457532948629674 5.01886744595703 0.5286622616038057 -1.5019006556937746 -0.06960850432675754
P 8.432464842605771 3.646910735585178 7.080673898977687 -0.738796980313805 -0.8112671224590738 0.405279905989702
Ni 0.8433628891813081 1.946114743391356 3.5638909308895994 -0.18975718349491189 -0.9735849787961104 -2.1290716495984556
P 0.8534882695877439 3.1811709523464473 1.660664933847548 -0.12247938418386004 -0.09303202545702043 0.03265172459675021
P 8.961127952439607 0.22305677203203333 8.909978152112716 -1.0376856659307614 -1.667545262411199 0.15120297737079766
P 2.930318348171309 6.567870497669151 6.763108341343649 -0.30875529399839086 -0.08223339217961967 0.7148186151213367
Ni 3.860236610553253 8.16312602840027 1.1790950052379887 -1.0587131760250217 0.6775617876524073 0.6757615012188749
