# total energy = -340888.56462250766 ev
CRYSTAL
PRIMVEC
9.09263394914721 0.00000000000000 0.00000000000000

0.00000000000000 9.09263394914721 0.00000000000000

0.00000000000000 0.00000000000000 13.30798888210322

PRIMCOORD
 96 1
Ni 6.470800228511195 1.9740017379390684 11.211022168879202 0.9368225744650963 0.5093206238524003 1.6035661884560772
Ni 4.771596073812927 0.3791010058095209 5.971400947751282 0.06182654638849351 -0.6252876608390392 -0.4947627806428834
Ni 2.8507953371160633 1.5596685940995876 4.877431605202244 -0.311059002430903 0.8427996458497163 0.44924062784136826
Ni 3.4496907648752644 4.295905836077975 4.45616714650258 0.3359837906970407 -0.0752595319649478 1.787923026871024
Ni 3.525195997197136 3.1305484058596846 2.52540361078656 0.4630649353189702 -1.4333725289153894 -1.1546356356559597
Ni 4.95363060549451 4.989455583258019 2.411793877369883 1.4273540906354514 -0.6439808663731683 -0.14748490508926212
Ni 5.110442170598437 4.860803905497644 11.182316723498644 0.5194847088695956 -0.24916689291179667 0.17049499283119027
Ni 5.528021384758114 8.188780672316481 12.153268184282805 0.7897415896824722 0.23630494934746402 0.7189074404787297
Ni 2.1256123164235206 6.533984941830642 -0.03025301167886941 -0.598078190303783 -0.25821357649509724 1.4205537798841663
Ni 2.761914840253552 1.7124157518278056 0.3066054353251419 0.4354808550531145 0.21739551403747076 0.5505660036554325
Ni 8.0915804153896 8.832757379200421 6.800781916458724 0.4843035329827724 1.2998548846394968 0.564831255325195
Ni 8.92919385487549 2.751949313444211 1.3611282040083346 0.5235377958930467 0.23372021933942327 -0.1655967841986245
Ni 7.017976754362063 0.9129550043966582 4.596512860786217 0.8635700456278481 -0.4214889116493967 -0.2401340932855671
Ni 0.8118731020364686 7.439229392637591 2.7212307589070948 0.41054578237433165 1.0109981293372459 -1.0964083765829504
Ni 7.814055041963761 3.6885451661112043 3.6093392317716306 0.9634342635153537 0.7647895477228248 1.596859980080495
Ni 7.783212827604923 4.1636625679072985 12.74257270175141 0.6833274864915909 -0.42687177322786485 -0.613178536280331
Ni 8.387700225243453 7.3250440954918705 9.36859811830566 -0.09643796581477584 -0.17268145895954776 -0.4951854700025988
Ni 6.918857951671705 0.8345492218446955 0.3921543911083262 -0.33076985059626907 0.110766466622306 -1.6810726074736724
Ni 1.8918861607354531 6.735195838513048 8.943168323993442 0.4726842035762892 -0.48864921154597785 0.43921306840203717
Ni 0.21129189994291403 5.318390709037888 1.201724328965227 -0.34652068567262256 -0.414529449612428 0.7214656881242091
Ni 6.486930561138725 1.9051614063026414 6.707253265120906 1.2035156491861143 0.13860380054954838 0.3653933542074094
Ni 3.765514312499047 4.505181899074146 13.239985241993221 -0.38549578138423934 -0.6417920862519657 1.1988388125357354
Ni 6.1727164097241145 5.583577378193402 4.658714660375654 -0.8546097511107669 0.5006747752519441 0.23096785340526674
Ni 5.601989961942414 2.977710321791965 9.239976446237321 -0.6817953661177806 1.2244835096870332 -0.20407282878663566
P 0.32582089865194963 5.806137779390711 12.414024922177818 -0.9464385002883053 0.13346133711666044 -0.7304547789966968
P 4.0959951860504376 6.4505873032400585 12.368750879213335 0.5558431928939717 0.11127014573160192 -0.2297164974966689
P 2.221348659284429 8.507986679769711 1.2032164301964432 0.6416049099418241 -0.06270560655933717 0.1937267096656212
P 6.540486175104984 7.912346414964657 5.734119572188714 -0.2746056446998754 -0.4258767563044472 -1.1021342233231342
P 4.789199413140377 1.4611771831517897 12.480258395660742 -0.7131522831625073 -0.9301310213775337 1.1205736609752441
P 4.087266257458314 6.343539723745189 8.186981240057749 0.6516499528826519 -1.1813026034241847 -0.2919449073092714
P 4.2549435201326435 1.2054104827686094 3.365191099049925 1.8125719357679557 0.49228963651204255 -0.08480963754722813
P 0.3983864824177446 5.496460852317216 3.680950088972662 -1.2501904275348341 0.30934639061517044 -1.0200910927774496
Ni 0.86727906701158 0.16752450642396782 4.599267928873106 -0.03689147370971066 -0.32956657431678726 1.2018308052845237
Ni 2.03117622021748 6.406124323223928 4.829575254195925 0.18018188110165098 1.3470315423252994 0.10544222619591517
Ni 6.181381689878587 5.817403552854921 9.265048475091406 -0.27413616126262463 -0.6636441491300505 -1.1299034230166023
Ni 8.679073680175339 2.3996279331446098 10.042181350594618 0.9213301352564519 -0.09679920580893651 0.3915381309235773
Ni 2.74979435919803 5.283975089536649 6.709342752402646 0.020559826429222654 -0.22874359206043832 1.2020434355159622
Ni 0.7180962217918125 9.126822253781544 8.675025639540742 -0.31923896713853406 0.39344820346209664 1.4737365345547329
Ni 2.0258388440887543 1.348110279981935 11.355534128038789 -1.544115855609244 -1.3767696928196806 -1.2918718664340203
Ni 4.035947431443786 6.941844130297631 1.4128825671890741 0.421485569215287 0.38031603695551275 -0.16875487021163196
Ni 5.967159234013547 7.882258889223679 8.013698368553165 0.09177501312146776 0.081800161296943 -0.8550049296666566
Ni 5.3777474234643305 2.7593961806493668 4.3892271753617305 0.22269070099813906 0.3291068610715493 0.15059388303188906
Ni 0.8424016205240269 7.4018586671025615 6.867827362153395 -0.08272730109690268 -0.7277168112402435 -0.22896753514578633
Ni 5.3213094445358795 4.686516297941569 7.1946448134862795 -0.09381904013469003 0.13274631332750686 -0.41455130398929896
Ni 0.9571724832961359 7.569863264599095 11.237305336575444 -1.0916605774853199 -0.4165745050669148 0.6093735607119442
Ni 4.432240789526211 0.7572672888489685 10.428087283652413 0.4996393920088943 -0.6813086562893492 0.020758058482957798
Ni 8.614179551673269 7.470462590256284 4.685410633653234 -1.9807027992423434 -1.2543095919095302 1.0153926588605158
Ni 7.452577379276381 5.938635641311992 6.824283647429622 -0.6565623025826047 1.7056857780366625 -0.14875323027872447
Ni 2.3004545746505523 5.530276357977745 2.62964520344442 0.45115121460051977 -0.8219251163935521 -1.7405270540855637
Ni 2.5971744983451135 5.276400925456192 11.133582933316138 -1.009686609614674 0.42732557293583184 -0.45284968534886527
Ni 1.3120216158338727 3.3233758940400713 3.6623983879242137 -0.9828265519990363 0.2704635975070439 0.3507354950849185
Ni 1.9434323025987348 1.0873062603903831 2.8061359562066097 -0.7169680573641716 0.4620614337551204 -3.0965291753405895
Ni 0.8577290735737594 3.879208607411461 7.796938158552643 2.080074393764147 -2.7013639891873864 1.117253852573392
Ni 4.178119855888004 2.6396552841601166 6.533237527319942 -0.9546189792165688 0.8591030109954301 1.1755587589618723
Ni 4.474885242752316 7.052092316942947 5.981594699672772 -0.09025009183650909 -0.6221617136155478 -0.27693275017115526
Ni 0.3884136815012431 0.47585026809247416 0.6525828849177376 0.5908675314879566 -0.15602868089421515 -0.8228064905572411
P 0.02193688866808137 5.672603357199116 8.183375101433128 -0.4175183570374229 1.7686605790969863 -0.08259926015947065
P 8.475271382817146 1.808106631518964 7.96931631297919 1.0493952410582055 -1.3667647590881689 -1.5339031767423001
P 1.8599073671328492 3.303608507832491 10.06987569507992 -0.5092373201099746 0.17475068278375064 -0.7019245327674879
P 4.017625774034276 6.280491399934994 3.856815268519083 1.050493873439023 0.6127959561299318 -0.36874787250193913
P 7.15027457833644 4.002968448106667 10.485830055552709 -1.4600932327396854 0.6512390905974784 -0.1361728225105526
P 6.464499033183756 8.000444945307457 10.146689357427215 -0.3994586713222346 -0.8829852169296664 1.0277766343471653
P 2.567859846489898 8.283044008477468 5.867052971276205 1.0674806378050068 -0.10714429648868644 -0.5493742973401764
P 7.139554362909237 4.34198730493723 1.6999361117312535 -0.5647466660311886 0.07963246422166285 -1.0833934523805213
Ni 5.805146682290148 3.0521789938435218 0.32336134116843973 -0.9524494823690758 0.628338274739905 -0.29857166859716966
Ni 1.874264636140103 0.8120713214565813 6.878500295884057 -1.0214118684714024 1.678270619248503 -0.0033863999737296516
Ni 6.964984883700709 0.7460387951839541 9.17120067230194 -0.040149575635692145 0.36863063019778447 -0.5192569091295057
Ni 2.919081018081533 1.6222895641141264 8.838221142941054 -0.49067138418232914 0.9950333784778734 0.3150786651132574
Ni 6.675775475648955 2.109791133350296 2.3060883706460524 -0.6672395797907928 -0.7119716325908447 0.802551854073263
Ni 4.15468813819852 7.344174997322942 10.199309339360008 0.7033782344948789 -1.0319698464929066 0.21247570813835023
Ni 7.860172881358816 7.588157644106755 13.389567253843397 2.2542046693550795 -0.8142796840331525 -1.121998823457545
Ni 7.608025049287787 3.80587651460367 7.897851847184755 -0.4021529303249461 0.2392306076346912 0.8532743201287951
Ni 3.0952508008652835 8.516124587155076 12.399492165335326 0.45392517780123115 0.6100592739250591 0.24887558692362297
Ni 0.0476754075907117 4.781325192139565 10.476328253074826 1.2069007636082634 0.6849989606567429 -0.7579972073913397
Ni 8.779319969475512 2.254391291059198 5.662056811080361 0.752253105818711 0.7008752655673671 0.5934391488698747
Ni 3.5987099426839295 3.025037481502387 11.24020679606893 2.0495564276809475 -0.11658127353187017 0.23441158897949305
Ni 1.3433002766223165 3.3197297478260697 12.344344431164398 -1.1750653642652213 1.4942894190054201 0.7479315956252216
Ni 3.6476464986035237 8.425934751003746 8.027937433319067 -1.2676824136720104 1.2554773869653861 -0.03401260950001884
Ni 5.810684096365776 8.312440494038235 3.5322327866111407 -0.7917815029306364 -0.8992698130223029 -0.13476462930911629
Ni 3.2328405377986362 8.416578430669064 3.5935162301716157 0.024178654128732553 -1.8087643890964074 0.6324481831432204
Ni 3.572177636817453 4.348261222362818 8.95288289410576 -0.5768205664765873 -0.06110509484143669 0.23892027548312403
Ni 7.21018594343384 6.233155147590622 11.317952453396115 1.0738166073253634 0.3506956429859186 1.0715548078743804
Ni 7.931368205188326 8.834330404873793 2.2636357719962947 0.06318743129176214 -0.03713572851003282 1.3920569579960542
Ni 4.462000980444983 0.2089514559641508 1.5286090657893416 0.33282416202213644 0.7629301259165828 -1.6186086846114962
Ni 6.060786085798026 5.73772480154994 0.2115146694746922 -0.2834756934959956 0.7660887261502226 0.28745601829998235
Ni 8.060574533619661 0.03322448445377158 11.34357004028721 0.3880185478060931 0.09472612532999171 0.20115488380889227
Ni 0.22683302989047463 4.946992982710917 5.699918538848699 0.06653835004186606 -0.868937994807981 0.27927142560666096
Ni 7.43208258235279 6.3550782762279034 2.7934662800605 0.19235682590128808 -0.6545879524650533 -1.230253579401591
P 8.830829740802994 1.4653688874027992 3.3115200086324985 -0.5606642684316989 1.4029813182180417 -0.18811424857485023
P 2.015027702322051 3.79248306479513 1.1566703277423376 -0.43244361088868744 -0.1571154862004907 0.12389811890825758
P 5.035227902562969 1.2550017083326133 8.159101405839865 -1.4022714366352107 -1.248592744030411 -0.6270455240704105
P 8.707033529571985 1.9473875983670408 12.402872806637983 -0.6486541034791216 -1.025992031642917 0.39030374429584397
P 6.231172953389494 7.8855049595438755 1.2011924098791444 -1.9174911995808657 -0.19589929183690777 1.5938906130395258
P 2.104872018383276 3.3225393717166596 6.025830363840149 -0.5389551588893815 -0.584858092069083 -0.617865143122723
P 6.902018393596066 3.856095131910233 5.753908780717775 0.3814678911717688 0.15809507650494065 -0.19595559899613996
P 2.3954907846973015 8.633737807299996 10.143588769250222 0.3177130174123109 1.0992090792565392 -1.0110662635710201
