# total energy = -340868.91757695435 ev
CRYSTAL
PRIMVEC
9.26678759915259 0.00000000000000 0.00000000000000
0.00000000000000 9.26678759915259 0.00000000000000
0.00000000000000 0.00000000000000 13.56288035260366
PRIMCOORD
 96 1
Ni 5.901451848335438 5.6480886042732195 12.597420472053303 -2.190081099402293 -4.655831508882285 -0.7512763437277384
Ni 7.661029507621275 7.638881884882212 7.314055026996102 1.8423080293798078 -1.6036852305324447 -0.09317060791741373
Ni 5.649599090677599 7.363815823893264 3.627406226433025 -1.0998297435596736 0.6456130026599526 -1.025464698384537
Ni 1.1269062587569663 7.8950900327858085 1.581540426184598 1.201986871246414 1.9316705764050408 1.012580129112385
Ni 0.8218250722233222 4.29415531225923 5.279961753914079 -2.1938657632557055 -1.4704311243305836 1.7928446325423573
Ni 9.173452670642037 6.165471898318126 11.691067468626368 -0.46918441795314675 0.38467868479958267 1.0212030948947057
Ni 2.296541675861136 5.238969191592524 11.859098424307675 0.7229736401283032 -0.26730731126624935 1.2624059957644194
Ni 4.4502914191757394 3.8341890351562604 5.507125935629905 -0.7216307529471636 -0.24705010367911 -0.2981937164324606
Ni 3.417785927298618 0.4918143732659857 12.095038254029314 -0.11436678237905465 0.32310590629310804 0.4501672534206957
Ni 7.099072964465536 2.029546987008474 2.789070518463181 1.1362401638679076 -0.5872078232481823 -0.48807097044500464
Ni 8.361895199253393 4.270497203115787 3.3819178986066456 1.3260482552054131 0.4457498410792904 -1.127620797630013
Ni 2.1237346177699084 6.179140410259597 5.624838233791083 0.5502507864078588 0.7713072942366845 -0.637052000463819
Ni 5.6544826878255 3.235424811029996 7.694818995819368 0.3860495970051803 -0.06319385904966536 -0.012453395272004359
Ni 5.701437501389864 7.830268852426085 6.101370747367115 -0.17752516020509426 -0.35044650308958997 -0.19856732558737417
Ni 7.459115469185531 6.316585406270382 4.446739459428509 0.673062357120157 0.002516338663950505 1.4306674712794005
Ni 4.269626125066636 5.0511777376983416 8.861294438298424 2.0132663350006617 -2.7070561544761573 -0.6672784034485283
Ni 0.5424026943098413 6.608507754189184 3.7104922454616576 -0.602535197633872 -0.025067998712221345 1.122418427493467
Ni 3.5758124589175426 2.8342007015182045 10.699308969195243 -0.07230533443263032 1.0435069005982287 -0.45650425138231704
Ni 2.7542097896003868 7.199793680595606 3.23861258601838 0.8692992348021416 -0.730597218111832 -0.07735549526202806
Ni 2.4235337352821027 2.6379579371897015 12.672423072121566 -0.12690065318000726 0.7885825363773645 0.8318441752794771
Ni 8.6181867482468 8.957805252750521 3.688276048493194 0.622258129984096 0.21225382193553122 -1.0883348555461967
Ni 0.9858750158842511 6.767247828465392 7.6971384727949275 -0.391409575765513 -0.7151382032442846 0.8236855507280847
Ni 4.507402632121699 3.853111815755911 13.508005617448825 -0.4518302429454154 1.4255530328709707 -0.8203374601914581
Ni 4.752314565749597 9.03291256752044 10.14131861119947 0.039271029685480754 -0.6624179900324334 0.1601786985068467
P 5.191940243726106 2.571663337576626 3.2995778559924456 -2.4444621895251775 0.17130360477541465 0.432198584757417
P 8.256142617371308 9.025109932229103 8.787213883611976 0.752123265109066 -1.126767448490782 1.9601694551756823
P 8.733660190485903 2.728160849215657 6.665111147166063 -0.21950973216699615 0.4422387426022384 -1.8277995513509875
P 6.250791213196179 1.8019917468493045 9.420980618453717 -0.8079537418151246 0.03134431863923634 -0.8064077374842434
P 2.795363594028912 2.4125618585778974 6.386638614997668 0.4293865692299186 -1.389171408918143 -1.0914294353111202
P 2.0679948894119753 8.507031629102427 10.976846482478964 0.7782397596904598 -1.7942409986692518 -0.014268079883239942
P 1.0596015792783848 3.172253118891005 3.1839542917916805 -1.922103758652212 -1.128938745110488 -0.3411064566355867
P 6.541360610102471 -0.09129175958739424 2.179324224166179 -1.27627555465766 -0.4929576091133445 0.5101541754972891
Ni 0.5071129131739012 8.351840734537124 6.024075544007788 -0.6138791618917815 1.0727863662886363 -1.3435171014141378
Ni 1.7498475321410605 7.18161224301651 12.900577873448606 -0.769952579981003 1.9279334779601118 -0.6723550466404872
Ni 7.233089249006255 9.352783547314141 10.68146020929662 -0.28221276762317205 0.3166179845759192 -0.6220948649333544
Ni 6.287645228105489 4.123748352197047 4.260331536946436 -0.13294685937408718 1.1320096707263279 -0.9103666942664128
Ni 2.3165394038405904 0.38498962404042564 6.575270566541405 1.440711999999596 0.027248037082675654 0.18893648736582946
Ni 6.503765252172607 4.594630905277679 9.989861305421433 -4.166675532903217 -1.084984708127041 -2.1501202427386388
Ni 0.3969437802468651 1.1140810245013752 7.856610623303934 2.986988353595269 -0.1627138062238746 1.4298760857263568
Ni 7.7923120897737 4.738896257077562 6.210225849790219 -0.7110156964354787 -1.3466649030145001 0.8705716737566619
Ni 5.75867844936442 0.6526320613572975 4.341301948330162 -0.3010594680160299 -1.7929289647260478 -1.484959656964062
Ni 1.0363048748574633 0.9402916869079133 0.0009183386667117465 0.3353338158178677 -0.46829301648712895 0.49154555925716636
Ni 7.071634005917267 1.3060610664616907 13.428282515697182 0.3922703811039115 -0.764931729727644 -0.8787650082007317
Ni 6.8954353035070035 2.165870701700668 5.456333745255398 0.7209460681753131 2.211069528728502 -0.4366144544369255
Ni 7.8726736732017955 6.880386040189749 2.2718771935672915 -0.6498537802141776 -0.2549601025548061 -1.4706797500062803
Ni 7.6047893727244675 0.9847166674146348 7.188462252526432 -2.9719366014684687 -1.0446019334346202 0.10947654416628887
Ni 5.797506290065956 7.261695822811898 8.607668944142684 -0.698431689122881 -0.22764033169393053 1.2355503090241562
Ni 0.9611141589977347 1.8190426363220555 5.083652268713726 -0.7071829529529499 -0.17169826911067204 -0.04859539241020018
Ni 2.9445866772787532 3.1176346718516608 1.8467086311703695 1.2523617241545402 -1.778026079472286 1.5002968015417646
Ni 3.7422161666687317 8.486246224163633 5.032696982874696 -0.6113319699898956 -0.7426055554266179 -0.08210432280092313
Ni 0.9587140609686897 4.063681033956628 10.587469034435632 -0.8997822338823471 -1.4828408108488462 -0.36628964076943366
Ni 4.873134944524448 8.60433290055019 0.5392232594304387 0.9410145010592568 -0.16305859115780302 -1.0070242322911624
Ni 8.156153977474036 2.915424096207695 9.852333834999612 0.47034064304477713 -1.9266826362721465 -0.9092230675802729
Ni 3.3505646489098493 6.717466644635166 7.4514601758195305 1.5301863900123454 0.26160511867514946 -0.2507375798330262
Ni 8.436344572092567 5.422423788816465 9.204639118159207 0.8753382419073698 0.8178103228942303 -0.8298559412048547
Ni 7.85452003598597 4.293497370328487 11.598269856028473 1.0646154004420696 -1.039850534792564 3.048648035388595
P 8.74882065525624 2.3159926633629317 12.470445092850298 -0.028174919772319215 0.08300600867958607 0.02418251078347448
P 1.6180367430864906 8.923638606290721 4.069664598811277 0.46874347376098624 -0.48718779650910293 0.5947079882799693
P 4.259905264709617 5.029956793734972 11.172436864949379 1.6146970082619159 -0.6569945050240169 -0.03957082031408669
P 5.604395699999295 0.1513238640343371 12.203771034854025 0.04066148227510417 -0.5433062367692255 -0.13325102087806726
P 9.205330420525875 6.29014726079986 5.90774677725872 -0.3974269856041865 -0.46832746926949015 -0.9003327070691785
P 1.810535725161194 2.02062307039855 9.647141207055467 0.09756179500657391 0.368165774746224 -0.8835176923943686
P 3.1318035903320065 0.9514025654284721 0.706818676087169 -0.1818476988398481 0.599150083211723 0.3240335603137
P 7.585690523157435 8.839320104490417 5.4578525717687585 -1.4246405483590303 0.49638231852417736 0.6057328786355631
Ni 4.0576668887023795 1.4968271592258482 8.700831668178203 -0.7106930229887374 0.9512114961969166 -0.39018778754326994
Ni 6.996693493326974 3.5781106222812613 0.5763830783357273 0.2678482713713839 0.3616143467809514 -0.567468692948042
Ni 4.471011956600235 5.388377610597504 2.5223834869640487 0.17309412101693417 -0.8215875305484753 0.6514967151342393
Ni 4.0342033821018335 7.182585255730988 12.176536872315184 0.5679219784353767 0.6256743547544966 -0.20599369995843236
Ni 5.7688997162603135 2.3741602901131804 11.418751790243677 0.4654010396513147 0.054551609993635085 0.942586216421751
Ni 3.3090772401220745 1.4958912136623985 4.475126410364312 0.7824358000496783 0.8928271427207526 -1.1446019055690415
Ni 1.111875529015226 5.555707997124386 1.6150815644708056 -1.0118239676726508 -0.09412243030772177 1.2598431201332494
Ni 0.6340994125222135 0.8543653974317814 11.076031691877711 0.8638186713035445 2.368867385707998 -1.8259470715232813
Ni 3.976869766249709 9.259318725997748 2.4839059308397244 -0.4902327539830138 0.16992909302539122 1.3526799988603284
Ni 8.395255635178339 9.118491352455685 1.1614806438780716 0.2793197623460931 -0.05563250176263967 0.1509270980015917
Ni 0.5113432017849395 7.461941839451395 9.867280236972766 -0.27447091889422404 1.1852950124130297 -0.02497749588094408
Ni 0.7541691814887532 3.495765946273183 8.136860525364108 -0.21380394003147052 0.2382862414435509 0.8628743051124044
Ni 3.4516838369134675 6.661523046946581 9.88529209233591 -2.2148259104471406 2.641821353737063 1.390433306349702
Ni 6.8470904717791 7.316064066581805 13.117407733457906 2.827919343212833 4.5463881319467765 1.5857435584523594
Ni 2.418418468440277 8.526454816240951 8.583472434630565 -0.6111735900351603 1.2038401224050685 1.602326402511705
Ni 5.203319859091615 2.014933262715795 0.991211758953467 -1.063690060414323 -1.2456588582130677 1.6334493491687545
Ni 0.4654142216252683 4.094150232101413 13.274235142741084 -0.6998090290863819 0.612334700222797 -0.7477176798422026
Ni 1.5424568221409707 1.1456622371769922 2.5476382636380093 -0.1832144972803877 -0.4250416619976615 -0.7501836248841919
Ni 4.943043591362727 1.0175674300129511 6.512312010520822 -0.06072482868388252 1.2017636994920142 -0.751733228759499
Ni 2.3697585659286386 4.5731319576816025 3.8164996640070568 2.988747502378221 1.8550079934449795 -1.1847494243222048
Ni 8.83511298284877 8.826281734116417 12.324413491303943 -1.2496083297791187 -2.9499570118735843 1.8490576893988155
Ni 8.944813216315307 2.4999105999747178 1.4318743904799758 0.8496205254262917 -0.09146082431515862 0.04902219553497364
Ni 3.373870620118528 6.6328701392021525 0.8839542507396584 0.17177283110234934 -0.21147092102291967 0.27739786273303196
Ni 2.883370277356475 4.16832160130788 7.218545025621753 -0.40532695717755357 2.4008179704726653 0.8224041129124998
P 9.040539133844392 6.909604221987349 0.3739000591317077 -1.0545179069967516 -0.11238831849644515 -1.6457991289833591
P 7.055574662734507 6.413553073358894 10.874853436389866 0.9634797720413084 1.3485274101445355 0.3137704878247951
P 6.347777413860207 5.375265105921449 1.411475410590646 -0.26165242697331714 1.054584755678945 0.1501673370174317
P 2.432568853345109 4.505929212868347 0.4963523192305542 1.4984101260420128 0.9912299455713831 -2.496303856786817
P 4.137203728020109 6.100344913962424 4.761045733174177 0.6331657780355353 -0.23064877950295112 -0.3592738715732328
P 4.390020231604669 8.721492898161054 7.725959109397755 -0.27802469768375343 -0.9140819383344709 1.0376036477399162
P 6.3642537624920275 5.363588953347717 7.7727378539947365 0.24075115804427571 -0.43359803620810483 0.40908796688188254
P 1.8166332715052536 5.178290265360148 8.998089832487446 0.46547225920888224 1.5736712006688576 -0.23734290369367514
