# total energy = -340857.37469023484 ev
CRYSTAL
PRIMVEC
9.37688996661145 0.00000000000000 0.00000000000000

0.00000000000000 9.37688996661145 0.00000000000000

0.00000000000000 0.00000000000000 13.72402629669881

PRIMCOORD
 96 1
Ni 6.273439439993212 6.53094759192181 0.7043141451902722 0.21094281643359156 0.052916388383057254 1.5491133088238354
Ni 5.3190970879909925 3.665885750795039 8.207351728731055 0.23282881787340548 0.9869110064810552 2.177154878258928
Ni 7.4648014393735975 8.782301362420995 0.2764897902633534 -0.3767404037891125 -0.5202958919169814 1.3602603823107478
Ni 2.6058095876666494 4.179570536278705 4.064933368140803 -0.905638178442492 0.0030146184566077114 0.8934642620841193
Ni 3.1778748900066063 2.045287236860598 10.999106919572073 1.4012710203951544 -0.9262324576540758 0.4318437725211595
Ni 7.192684092895996 4.474755032044208 7.286593645789627 1.0308645292438696 0.7723089960283215 -1.402695411546507
Ni 8.4235509296544 8.395645305150012 7.8852349296384325 -1.2767434954330141 -0.5768020545338259 -2.352810075134819
Ni 5.119378708851556 5.189039624323028 6.058828684228148 0.5828022379813189 0.7432678716009651 0.8875967475597487
Ni 3.0214871193465975 5.3785559471920426 7.8478239517872375 0.5498442949980595 -1.234484586763803 0.8537368615875103
Ni 5.6529518779285715 0.06832095789698332 5.414800439932907 -0.2105934035139728 -0.16880372117169637 0.15994524233980195
Ni 0.3360789882347701 8.55097348724517 9.572302465703858 0.4408374913793376 -0.1524831296348019 0.2940637534244871
Ni 8.477393031772746 1.5405667581733682 3.9559504646454227 0.15260937080002104 -2.0787626169312587 0.6901421954205792
Ni 2.1853592189998956 7.456681052673059 2.7948289353680797 -0.9288063890288392 -1.82203410962212 1.2464116772186922
Ni 6.964159907816545 1.9189055140547702 12.964634330480276 -0.60740203880787 0.4429432248684307 0.4892423650452865
Ni 8.50757724053606 6.551070397764021 10.457283025024152 -0.7429837647016431 -1.6968445255959488 -1.641149803136806
Ni 5.231826373185099 2.0796160309837717 1.2266519247238878 -0.09969941017486701 0.18518653340509394 0.24041537197141177
Ni 8.498800471538713 3.440380924280916 8.843035478655848 0.42642208728495595 0.4307199433293615 0.7208977314358811
Ni 7.89864200689528 5.181650635038936 4.832764690504404 -0.24902445379666144 0.38641315099218615 0.2131015146478072
Ni 3.858421432229381 7.9100255512999595 6.812441828353844 1.3996435120940605 -2.8546834986805547 1.912633357267932
Ni 0.8742140142746164 0.16747406765313283 11.46892192540393 1.497566289984479 3.215546054897146 0.7767516051807074
Ni 5.653945828263741 9.093932923166571 7.770282697998062 0.7133767404684875 0.44695723112383023 1.2763408606779567
Ni 2.54848865937521 9.445716326697022 2.1358839345333287 -0.8471723209961153 0.06589711691344134 -2.52594096292696
Ni 2.6215627627900946 3.3795061546967466 12.80185433393833 0.8859373575794548 0.4830784023264197 0.1625569689310362
Ni 0.6494021399281259 4.8881070950154575 7.208928617053052 0.3347213790448494 -2.9777380386415944 -0.17247885603043844
P 5.551025084123902 7.045401282381739 8.134353578124802 -0.012109124558708178 -1.5293127291581403 0.3190127100603409
P 1.4536523651857427 6.816061307876255 10.22848972320301 0.5518037327172756 -0.6752945888847854 0.3742636601138457
P 2.4100107485281654 3.0845748349600126 7.177788903203381 -0.2893043843626308 0.35533031354445255 -1.0840799369245846
P 0.2858554279498396 2.174285111963712 12.584314237751503 0.3990017862904741 -0.16028617061898848 -0.1756343709402846
P 7.22500623256892 4.576784971638378 10.469497361878796 0.1159104727170907 0.2845452724110906 -0.5269285667421506
P 2.8160675911148667 5.068621603528219 0.3886908423910944 -0.10506813068594807 0.9873514364525835 0.006267321065950497
P 3.568159803689954 4.181670959628498 9.901527885070934 -1.9418166637001075 1.221496144923935 -1.8625757784899084
P 8.502785649769345 6.276468175448494 7.220443437917094 -1.9774817212018847 0.8444420665491458 -0.4539958831381665
Ni 0.11234733161103008 7.564627809828475 12.053524129612962 1.4485278964995894 -0.70891099138765 1.7590989035504803
Ni 7.9814305683029545 9.414866358746945 11.93059779075534 1.590601143654977 0.3527291284761796 -0.19583372870629498
Ni 3.7060657242497776 7.293485659906135 9.286664581600961 -0.2345817960087702 -1.071909620110638 -0.2778030685912506
Ni 0.5410493634376836 1.329924302237019 7.5346827117589985 0.40681074081193164 0.3031312629433941 1.1238369051075483
Ni 2.5438095912879484 9.243269272580847 9.665351220099673 -0.6700145714327687 1.6813032354272401 -2.1350324951675814
Ni 2.030096675134419 1.5581109192781095 0.17168710430965892 0.3635820120302835 -1.0267967869323993 0.4966378861784091
Ni 6.777963003991399 7.161627833366919 3.3472487155645068 -1.306091352467512 -1.272432783872802 -0.7459773001123282
Ni 7.410059155819627 4.025639510786758 0.4601455569108487 -0.8142100071374816 -1.778281647126518 4.017363601907546
Ni 3.862491002469604 8.511506157426968 11.238289815462725 0.4376176988904592 0.5510737965297863 1.6286208174318595
Ni 3.911719674730369 7.428775428168672 13.567819655201 -2.3733187366111324 -0.2975658530404746 1.3623414332094925
Ni 4.564266823549212 8.157050340259502 3.3606576681993436 -0.18569072673502213 0.533493621554178 -0.4562725949874852
Ni 3.637848849831289 2.1370776126245277 8.66216652370281 -0.2925650573917735 -0.4693299423920756 0.8905674001522984
Ni 1.062476646956724 2.295003193237063 10.190432677633954 -1.4988217596581348 -2.308058739061057 -0.1740179183827842
Ni 8.248943861812931 5.6725964623831056 1.8823187648305695 0.9072083511430893 -0.040997782568600365 0.20127546854715656
Ni 8.043477449131428 0.6367095816858075 6.210217634853449 -0.7938329861430264 0.6640874073150563 -0.1039558714583758
Ni 7.343501990923071 3.200801385945191 3.078436722795842 -1.0301798444720194 -0.984185380019776 -1.321625700657685
Ni 2.8520467178700204 3.264114146917513 1.868073393611797 -0.2212637387436254 -0.5995442333263481 -0.8823933489819383
Ni 6.494921580716885 0.48071751578187594 2.5159705427022367 0.5044969772115118 -1.429776326923699 0.6401782047976264
Ni -0.0567376857362741 7.5430422091533735 5.410683985242912 -0.25986473894527506 -0.32441871156726065 -0.614691887601064
Ni 1.2979209768225444 5.115281007941469 2.0942036586858808 0.8770487968405735 0.9834333323450999 0.701768723915914
Ni 1.2892848611745131 1.9374623792745902 5.175700998362849 0.3197670717278622 1.1569180039322333 2.471551075322169
Ni 0.4251041191511382 9.25675324033532 0.3535762648897393 -0.2773729230323675 -0.1561091564231634 0.2960591865879611
Ni 8.363154381457907 3.9058309878389865 12.279805362615312 1.658936951916898 0.14952199012394896 -2.006402518001293
Ni 4.633805839451275 3.371648320914933 3.5692765912835265 1.9227174809768113 1.957699653478951 -0.30007782082905093
P 5.421586495192929 8.448812271191638 1.1266230134459945 -0.5290479270779986 0.016558675689629546 1.1309714592698006
P 2.3006855885494484 8.855881817893419 12.892843923300152 0.43846564871305127 -0.5702169451171405 1.1785029291918605
P 1.987113011583305 8.916653441688089 7.257937870088885 -1.2058535532906718 1.271125120804972 0.9051373275466733
P 5.373633079965966 1.535109408219889 3.9919764758503486 1.7116674495413942 0.3592766997867103 0.2282764226160327
P 8.101548528619222 1.4870059627536554 1.5055393857485893 0.9190547089587139 0.7053708394448756 -0.7469738596976425
P 6.4041720397378965 4.956464622783264 2.991755814368082 -1.2744608700464244 1.8636587271414418 -0.38855873658027923
P 7.631372512524119 8.624300766688824 4.4910501914070196 0.32095646405027306 1.832994979508998 0.7636227811082332
P 8.40681318108574 1.5602863577475374 9.762490173893609 0.4938886055680462 -1.9776293025233427 -0.3152380735092571
Ni 1.1581865627216061 2.0353383566189462 2.917974693450633 0.5236234136283175 -0.7517666531005955 -3.0160862994024895
Ni 4.930049923781629 0.46451706300760465 13.175902224976584 -1.4726566712269928 -0.20176886324380736 0.7342692676467806
Ni 4.608441352124538 3.0738570497420974 6.234742890529264 -1.7806655739776622 -2.025798406029401 -2.0934657274693884
Ni 2.2426051321716995 6.022785794621305 5.734680850771396 0.8035111326627388 0.5458133194617955 -1.130936492266807
Ni 3.427403308583983 1.3740238156927103 3.5200347913768253 -1.0736299452358542 0.7778227267576991 1.7267580253259296
Ni 9.037362146071485 7.714376742400746 2.948510535587239 1.340170296429092 0.5236609517344724 0.03284455733384666
Ni 4.79166578183413 4.379260784748278 1.3535709433241043 3.0170234665047784 -3.1112888501482674 -2.226226181864282
Ni 6.117886212539148 6.501832348613301 10.189911322552486 -1.002988371658892 -0.3200624914810939 -0.05392940302860389
Ni 7.287203143636664 8.739955327386781 9.815492106672037 -0.8148198728073387 0.03067377493477298 -0.189117493028384
Ni 0.3156420565790867 3.37483646349944 0.9947529969498379 -0.47220803527081895 -1.2508769120788972 -0.8177704707952304
Ni 4.077371812665356 6.13748391254391 1.9375580235521253 -1.690455334240153 4.216509425706209 1.6654912080956477
Ni 6.589543777247052 7.30682897431129 6.1708712669156585 0.5051268974860269 -1.0699566101493252 -0.06343811384998753
Ni 1.0643989093973825 7.141204967046167 7.417410637543901 1.1860321476893703 -0.7452566198962197 2.1912897749984133
Ni 5.220836658158505 3.5176933819552034 10.665558753936002 2.7885009893162107 -0.08684852235412785 2.949131430648495
Ni 1.356170217219473 5.0356618353383915 12.22611704149222 -1.8889113310606436 2.1992866771609605 1.022900794312103
Ni 9.52870180279374 3.8118182891558563 3.6841603716272306 -0.7915002242447917 -0.9591346076987352 0.7705997266466987
Ni 1.52404467807366 4.350680024167171 10.152952310797097 -0.4796974016693286 2.6261864754132835 -1.6451437547875472
Ni 3.5132862436766206 5.972244357766918 11.489493884274957 0.26327196485461113 -0.22601462316504944 -0.6146234962569738
Ni 6.377635441166855 5.1262519691881545 12.701819796526465 -1.3212824583856533 0.6091272490290929 -3.558401890123672
Ni 3.4452569070572205 0.8314760252403086 6.72480072639475 1.0449755147239552 2.2258857678057278 -0.7326530721995963
Ni 2.7908531340274005 8.66057995392252 5.077381494123649 -1.2982661999961382 0.17818799060007376 -2.447131508827224
Ni 6.144675987138959 1.622680183504325 9.759429557012483 0.17435216179375135 -0.32492830421382746 -1.3404788288084464
Ni 1.3285365225237633 6.718522898570257 0.4515244442867444 -0.2351726355152337 1.1373058861282608 -0.5979933438994605
Ni 5.681223201141183 7.571988668442704 12.344981311621579 2.633598708716955 0.13252571267626853 -1.3042185609248311
P 8.31641996192502 6.424482383379194 -0.3037221540690134 -0.3461666447673135 -0.5247724396310962 0.927822427849015
P 0.7955259668440137 5.672999668651147 4.175439078564782 -0.07499547967028375 2.2250265051292257 -0.09673749933306565
P 5.909222280383185 1.709782114291039 7.348213878125173 0.20011332991825537 1.2578191477246854 -0.43869473400472186
P 1.1494285475041672 0.18891432653394047 3.9630600226088726 0.03702722795662655 -1.8348628859556722 -1.019648348813076
P 4.6754767384087685 2.6468709887771054 12.845634095446576 0.6463449957299707 0.2551951013837476 0.06551659364557104
P 6.010239515862274 0.27674015322513673 11.416715152893637 -1.2712251367179463 -0.6311307498833776 -0.9373074845213147
P 8.73049404542276 3.017614463795417 6.105544349981126 -0.10895461022454783 -0.5715544329816414 -0.24213184044188618
P 4.261618323379981 6.662599126882029 4.968262625723929 -0.7500542983951792 1.794515078266245 -1.4883715108590883
