# total energy = -340889.41948595527 ev
CRYSTAL
PRIMVEC
9.08153486565139 0.00000000000000 0.00000000000000
0.00000000000000 9.08153486565139 0.00000000000000
0.00000000000000 0.00000000000000 13.29174425149612
PRIMCOORD
 96 1
Ni 6.470484700074901 1.8086875896178143 11.146389975134854 -0.1394394090769663 0.6333627245376898 0.8364441359453336
Ni 4.483435763305315 0.6416540382249977 5.955671552864876 -0.03698197654098792 -1.2794675792323966 -1.1100269958076496
Ni 2.6576113171663507 1.9441386839543042 4.445782811094218 -0.04128600323298051 -0.9817279196182189 2.003595644680117
Ni 3.6757240415294237 4.830677335082052 4.895177121022787 0.01886932610067718 -0.41737103282628113 -0.17306146800678582
Ni 3.5752186938242985 2.3342995900813097 2.4105372599932084 0.18378733906472217 0.7932228633628533 -0.37008561747675617
Ni 4.760022992880383 4.388960554831798 2.531040147740502 0.8800179067712264 1.0651648451876365 0.20599164307590329
Ni 5.321761339523602 4.553572458012705 11.453216899910835 -0.050082518478687936 -0.386278939407167 0.10371521620247945
Ni 5.738649203118411 7.7840015945068535 12.216216592329955 1.157314982260336 1.0039692475149227 0.8578087176640389
Ni 2.240705290501567 6.615634873777892 0.10351042763244253 -1.9069072534174318 0.9062495867742457 0.0875558328337976
Ni 3.0643187800403275 1.8178599399550488 0.15652388812116266 -1.0268965457350572 -0.7034106303947112 -0.18451033327367578
Ni 7.9128140867675825 9.04856901535693 6.949003492707936 0.3717462930086307 -1.0571692285766696 -0.6256692125481741
Ni 8.770628637068745 2.6275514363581856 1.2122577793228773 0.2855523735193663 -0.8261234707456159 -0.7819560321997823
Ni 6.922182087276264 0.901566661409772 4.621327066092909 -0.028507106300757354 0.1235708174758259 0.7242388799939721
Ni 0.9904140426516216 7.848698449756814 2.6720791105547157 -0.3955889039541832 -1.007330964898304 -0.011801877730934513
Ni 7.703584602193772 4.134350639926144 3.4911300369158265 0.23472860599927964 -0.45066990408872704 -0.746842733436417
Ni 7.478235393017394 3.655335995482798 12.618716580044286 0.9580516590472017 0.22960825405357876 -0.7588999217112672
Ni 8.346048713339641 7.195518127325858 9.061620089287267 0.32260145585286376 -0.0577433774580554 0.4372819128175953
Ni 7.023831708389796 0.9076385757023218 0.11448455451116962 -0.4264580827292139 -0.15374528417667715 -0.13978445112121088
Ni 2.1607514564728403 6.510843041558733 9.135004340906136 -0.3530924253528693 0.0037311849076580896 0.5638118129217452
Ni 0.19847331453478081 4.903111658141245 1.2672619122808269 0.17501550640936311 0.9404717411819092 -0.14095353172864758
Ni 6.653686505374935 1.9487066960529469 6.8626471765131205 -1.0260434537061427 1.230247922974636 0.13766277679251776
Ni 3.4514918611564918 4.601404902791136 0.2928195652114773 0.1820040219120543 -1.9635013477623926 0.6777420219840133
Ni 6.358899879685195 5.950085500694151 4.542826277662161 -0.6421468984882232 -0.6201236001395966 0.9463580247593573
Ni 5.685422326557487 2.916362412026242 8.940904693621269 0.619816867532455 -0.792314492615971 0.21785394173112804
P 0.2817210213034234 5.589657540115764 12.42481672652914 0.517362006099638 -0.5693337711812388 -0.6934650891462251
P 4.232812642259113 6.19029210110985 12.488497358014014 -0.11593824063123259 0.7314158573583854 -1.1858233741126738
P 2.3535524442545155 8.707893393376056 1.0922343966229162 0.5485561723142552 -0.4180883706082799 -1.0099133809134995
P 6.379651187131316 7.961136934435331 5.648060891619484 -0.04616441437120437 0.041601991811502544 1.3925215563372986
P 4.836080848399533 1.0473825116273374 12.544841017382602 1.9083879517280165 1.2319186258088397 -1.523849134940408
P 4.280917533087163 6.216900998622818 8.091376135842575 0.10177326198476021 0.10645446951051343 0.22132441677823175
P 4.994626286208882 1.034895401019716 3.578177457923181 -0.624055588204151 0.4494146915253873 0.33838442971873334
P 0.48554154363876234 5.8455751960596 3.3291036467458217 -0.31277341401884845 -0.11571121222209103 1.723910528574805
Ni 0.21073792753521192 0.33452469833393544 4.652681973790273 0.11208312855120052 1.6156958818400755 -0.45152273900732565
Ni 1.7448988878665903 6.751058723509421 5.137060172797153 0.46651278465825463 -0.5521436325551975 -1.4154300855043558
Ni 6.170221908787782 5.638879459747263 9.252184295001555 0.11558985615287834 0.1331119241970417 -0.6829940144115721
Ni 8.98683274051285 2.415906263477736 10.086891787680877 -0.9934704048661279 0.10582609189789517 0.755086461502448
Ni 2.6380860169435243 5.202738741979247 7.285019379086798 -0.47639430543802463 -0.6528300892336821 -2.1525404221443574
Ni 0.6619712482987217 -0.0033529027173337 9.108327331880762 0.062464951303440805 0.7948102624546312 0.719291820401342
Ni 1.8122293882628853 1.3508329216950195 10.999928427779686 -0.7662165099773385 -1.965029611481461 1.9973193247531023
Ni 4.3018686343030055 6.839249509771684 1.3487132914289695 0.11700190600905656 1.266130238693542 0.448240468711628
Ni 5.384160566421759 8.067127529272822 7.947080534581893 1.2217676534177668 -0.3724374055383844 -0.18016594026205102
Ni 5.2964692645838 2.9252532347788684 4.517040167219047 -0.26502571432092425 0.49483142909728967 0.5832994893327116
Ni 0.9148556715567775 7.8557184763020445 7.059617497007493 -0.49828210665005146 -1.3586261891414342 0.10839436684570365
Ni 5.460309237290781 4.546361719232739 7.048212905370365 -0.015209617860902837 0.1605024003948526 -0.4638380660395689
Ni 0.7969827963418236 7.233333639013229 11.116191146841382 0.5069626651431849 -0.008571800829411044 0.09820148547310184
Ni 4.600642053852197 0.4121781795503636 10.134051290716743 0.3347121230734687 -0.7066756742992281 0.795279745891882
Ni 8.369106730672552 7.419223578669523 4.770486737492821 -0.40414296417178136 -1.053945065212417 -0.08393597669302319
Ni 7.4736673809187515 6.401991763200223 7.040318327005852 -0.48893100445245474 -0.01864898255975498 -1.2051848093584212
Ni 2.5078477236897796 5.67739424962866 2.6302504685564294 0.21196534416083496 -0.20714632550563677 -0.2877031013137819
Ni 2.6122127237645327 5.056462457937823 11.203770745798993 0.12138435134746835 1.8496408155957953 0.5706296071745269
Ni 1.0751266010137255 3.6671147463614053 3.6630589328360497 0.5526951341832932 0.027620075710113722 -0.4324055585619005
Ni 1.3405072164143899 1.0373837416062528 2.4637441571771594 0.8378469298301313 1.4341346038923948 -0.5487793440686549
Ni 1.0251781585832396 3.39275249285824 7.955627167158499 1.1727523998613285 0.6646404516050489 0.09621762227385364
Ni 3.775584600250445 2.7236522395944402 6.847268505165523 -0.08861718421877642 0.7506343392683653 -0.08391052277172645
Ni 4.069626540071222 7.004642424961503 5.923638254503957 0.8580473160374062 0.8222547318188291 -0.04095433092517463
Ni 0.27943156633310967 -0.05268924968967135 0.3806234780832789 1.3969135147574072 2.0117082464849223 -0.3528052331297537
P 0.502677492006414 5.673325721954322 7.72805933898471 -0.521988706238372 0.7008104737677028 0.08846266091878313
P 8.700873366830825 1.7639247036651116 8.049720043009048 -1.4230096976238267 -0.6093200817661893 -0.5886376137161734
P 1.8915656779124712 3.3998270086133946 10.229273001366222 0.3129870726915513 -0.2497767585816537 -1.7730841620859783
P 4.445583925477994 6.476996160660838 3.5373586826154892 -1.1915775029876317 -1.3470893921464284 0.4915496730222244
P 7.167102004350404 3.7813332118974454 10.318540857677986 -0.31256258355962296 1.1344966988142398 0.15168814453733231
P 6.505121674516696 7.691542486800531 10.056108108534218 -0.06149024609499733 1.1375707097538732 0.19638497322407467
P 2.047377573690625 8.856739751818903 5.382638501157878 2.3977791836463416 -0.22445550620804572 0.4312678454130315
P 6.811278382010611 4.065076691042554 1.3892532636125492 1.4945347022470068 0.4171013241046623 1.875283455864564
Ni 5.308956375191422 3.039371803430047 0.4511406891066387 -1.3295179589215684 -1.1589517465328105 -1.3786697380558708
Ni 1.3460287896867054 1.2154453981034412 6.8930721350277775 1.9430135122216863 -0.3763886768766485 -0.12469207556446267
Ni 7.039161339448462 0.714492489591127 9.164803581660165 -0.04617341323226887 -0.8116414750793569 -0.5477614443271017
Ni 2.936114750623752 1.8517249839229184 9.036485124902748 -0.346453579880113 0.4159345574900707 -1.7880487538156111
Ni 6.6152625308434105 2.1302556619852817 2.3946136965463696 -0.6986060099172162 0.420385908393205 0.27160362464875804
Ni 4.378898214065802 6.932171775762361 10.351225302097498 -0.38737217247134575 -0.10234918909288825 -0.4153367760050718
Ni 8.355257389816826 7.141310444986299 13.504943620706909 -1.177298110250482 -0.8413999372887121 -0.2150578670432296
Ni 7.809275506376679 4.176434473057575 8.208383540773234 -0.9918616656181112 -0.7959104374973454 -1.6021325413333438
Ni 3.4863558739729705 8.529522964689297 12.246521674582777 -1.691516942735448 -0.4437430950619068 0.7580954235321008
Ni 0.15108404866373337 4.9328446036898645 9.832275515700731 0.8209023315559927 0.5664561925231277 1.9334572359918187
Ni 8.7972466161167 2.502807471771794 5.920913794007749 -0.4061350549011457 1.5695551216179549 -1.5651323099599108
Ni 3.840535738480052 2.6421908707578114 11.056471880917993 1.1653345101307027 0.3247341859251504 1.5157439893347702
Ni 1.4895624501619469 3.3540469907421073 12.442162458355 -1.7839951525715276 0.31940660306464996 0.7624447016397321
Ni 2.8921873658898867 8.628502614516545 8.128207209137317 1.3074388676343418 0.27239501020180185 -0.9761419408900093
Ni 5.890356245082276 8.07824332809735 3.480948728041496 -0.5092069810926715 0.2422822499768214 -0.4540650458132051
Ni 3.3735632094299466 8.64059921911971 3.008984987362337 -0.39929334938896394 -0.5502217329421363 1.5903324633746223
Ni 4.031320625494533 4.328822630145493 9.242161912989502 -1.7238043420142442 0.7165859914344046 0.007120155984549028
Ni 7.286905613903671 6.0996493004009995 11.382145715253246 1.572360195166918 -0.61040920106531 0.15767238714522525
Ni 7.81350750168079 9.194418467253948 2.3680574719363285 1.1640260757319243 -1.1959067264906047 0.1501169433954705
Ni 4.87745632180195 0.5215589113986363 1.3836045488504107 0.4402713344632224 -0.8724277531287942 -0.3693302273679704
Ni 6.167733568201244 5.72901369449682 0.3436352942332561 0.12131853110653945 0.493598328021137 -0.4574753570463347
Ni 8.1233331493096 8.829949223606187 11.336196780831195 -0.22061402097476843 0.3772901056449954 0.00012315584142559433
Ni -0.030839984663579394 5.069530786784636 5.5234240891459425 -0.10280993077939068 -0.5109527601391844 0.3005814999383468
Ni 7.721802161378418 6.423633061075105 2.4860747435575816 -1.0069519842923305 0.4282532269564237 -0.27075618904679827
P 8.703425278162275 1.9638183702719156 3.261049348011034 -1.52887975538578 0.02943938830703962 2.1707433183056293
P 1.8558207562022182 3.4501568755133496 1.397520184911544 0.9746635565722698 -0.3614852774022549 0.6129291392736863
P 4.841665992416759 1.0732194786663796 8.085992601902067 0.026163288658929137 0.9618280953704982 -0.6644501899711138
P 8.860753790283317 1.764533166509265 12.364472650998623 -0.3620843444388344 -1.030511259669509 -0.43378187008413677
P 6.41239920229574 7.846963876574227 1.2740975836658135 0.48387595852705056 0.0450783803958772 -1.0568205869879992
P 2.0080817718003137 3.6652893578289456 5.81895267624415 -0.7608691296224961 -1.216205328838641 -0.31929964517314047
P 6.964411224967494 4.015509673081537 5.545422291345828 0.26082684574822823 -0.5629165548009853 1.2524306297192624
P 2.5723992743799418 8.398558148636564 10.223478073890787 -0.887057587226827 0.3730788957771252 0.4732950976874107
