# total energy = -381165.02058637026 ev
CRYSTAL
PRIMVEC
9.25848617934358 0.00000000000000 0.00000000000000

0.00000000000000 9.25848617934358 0.00000000000000

0.00000000000000 0.00000000000000 13.55073038559831

PRIMCOORD
 96 1
Ni 2.310371861135874 7.26103247441838 5.821732309053394 -2.1437973858444046 -1.348647737772484 2.771116989511808
Ni 3.77184239713605 7.031681258609924 11.50177830307356 1.1077500268480147 1.401011853196497 0.6351352430570802
Ni 8.142319983669127 6.6455283234840135 3.3267990099516513 -1.4555783755884675 0.7167063190623528 -0.1709567629589572
Ni 0.6731993324470417 7.8993402764320395 0.8963186613121471 -1.2849658833428066 -0.11133236642810503 0.41006627163475184
Ni 7.18802931211216 8.71180020057379 0.5473320666359325 0.32607501622376106 -0.6081090921772238 -0.9996130274287559
Ni 7.430916434488999 5.534047076196547 9.725196121065022 -0.2581541840120715 0.6605734806245269 -1.1102913052126298
Ni 4.014590642222514 3.4534430627402486 8.385652439223762 1.0935526523017103 -0.09308344752024615 0.49131158886948934
Ni 7.768906725313457 6.317898278521402 0.98419372972014 1.0818050248474789 0.9743907625268573 -1.336087641719286
Ni 2.6252344538701693 9.212869464240576 11.44417385472393 -1.22637712716532 0.03196755404553204 1.2551721970201415
Ni 0.23805419267184785 8.303195436837532 7.362328644168047 0.6941636578751464 -0.2301978080084616 -0.0706297465024203
Ni 2.5839971571153306 6.9360225810008105 2.863418265346366 0.2121916012390281 0.11437963789486108 0.618567054285754
Ni 2.713727063296022 8.977620592834267 0.43952903290797685 -0.012860658012752045 0.28861867114951584 -0.9367210158902254
Ni 2.689830910865793 4.501346286494829 1.9168325058593092 2.7299942513295696 -0.2596742202010237 0.12370837149495469
Ni 3.9923332418186908 8.079667808738728 4.7962262888416145 0.3986914541389069 2.24244161528188 -2.5587140435929223
Ni 5.467043412834452 7.7843035875728415 8.840252435683047 1.3230860872532957 0.1805829731948116 -0.031711986391300226
Ni 7.077010806187762 4.645945321231486 6.287660989012729 0.9562297753471146 -1.227792519455608 -1.6931202826668261
Ni 6.494300212753539 4.944605563422232 2.0031502969179162 -1.552194004631688 0.8043925068264275 1.5639022942075518
Ni 8.011793847690296 8.380337142396874 9.41445077706599 0.9550686651594779 -2.1419837296744335 2.9288659955312397
Ni 4.422315849786409 2.2603297441713694 12.359363162251997 -1.3283082548841834 -0.41501333122738204 0.2714377884948551
Ni 7.906200814576479 4.66695282602195 11.771749274618996 -0.24501893218169415 0.7195923823608962 2.354254520890829
Ni 2.5518054012068045 6.44698009068035 0.621199045688274 0.8627310946663206 1.8886529351929344 0.218611645832759
Ni 8.831660560651953 1.7313183696814798 7.20055974709824 1.0020668882858872 -1.2715511525987973 -0.7306856640605803
Ni 8.830808779937664 2.1122032262592314 12.503664999587256 -0.22514044809021228 0.8395803675814703 1.1237093783907488
Ni 7.865111653598039 3.998860474466235 3.850033089162013 0.038356231180695234 0.05024012710247476 0.18433832647218573
P 7.699153291601973 6.699931187366238 7.332083022021952 -0.016456860004442624 0.21287037247360757 0.5244983600341032
Ni 8.09162977268288 7.062928648943912 12.195345378926747 1.7262422620317754 -0.5775870123289666 0.8684299448233109
P 0.3232979993515683 5.616919784605295 -0.017933687430202603 -0.15151716617710678 0.6272257584020166 -0.5770342251492901
Ni 6.289409917022829 0.8072418414181244 12.293140915110405 0.5477930688959856 0.040609288880930065 -0.590438414370338
P 6.169771760609263 0.25131419635668845 4.731874255877047 -0.1407606989915511 -0.5015715760346007 -0.4765082053080697
P 4.0621144509882505 7.7948675201272355 7.277609793645937 -1.8288115375552696 -0.16191367892008243 -0.43694047031777655
P 4.463580921999322 4.879675800929712 0.27043296999807637 0.35002921304651324 -0.5981627795977892 2.491965634422779
Ni 5.839984488402853 6.164809212099924 12.785913649450292 1.5013280710197563 0.7801593453106758 0.859239022352662
Ni 4.783730110253827 3.355645674859386 6.040142771926243 1.226382526481959 -0.2996376479678388 1.0639479420614
Ni 6.4632657675981235 8.387910583965231 2.689047642948088 -1.0776251824381762 -0.8037700427510802 1.0659348905844417
Ni 7.273911028478996 9.038772893028636 7.672206468026544 -1.40592883088214 1.29209169575431 -4.214427089255884
Ni 6.446748628529728 7.80867192279034 11.045389567114267 -2.2534533930113514 0.8653965573136257 0.07104626521454861
Ni 0.9110174337252549 6.694302027863109 9.361535751887965 -0.9737628991348714 1.0136787614932026 0.6602551780531596
Ni 8.555813228026523 3.8713896388756157 7.879965968576364 0.576915954403871 0.09300580020477531 1.556654354395887
Ni 6.603087423545939 1.4969397959615114 2.8379426152002916 1.9748957056422631 1.305409753019455 0.5494588866341826
Ni 1.7607788722126643 0.25114198851662556 5.589039705638558 -0.4933515021176535 0.6119294943645783 0.6534841778779132
Ni 3.1182488346953057 1.9729370794729086 1.4041132892274102 -1.3467998859304675 1.2030916742748183 0.22558807715059215
Ni 5.2691062401084325 3.114786160921998 1.6903995648458974 -1.2538241676326791 0.21191083677381567 -1.108917821903871
Ni 8.853927219541802 0.3045616011830081 2.7003624387191003 -1.4549463984314233 -0.4222422448756534 0.4213978945974872
Ni 0.6314694842356791 3.8732968869967417 5.716917914614272 -0.9845450773520399 -0.5442752855507142 -0.7260926453732591
Ni 1.8017198974147068 0.02282124220273949 2.6261316011659805 2.421485783234662 1.2061530868089614 -0.17243848971080625
Ni 2.7823787371705455 4.19961222694382 6.5308693808546305 -1.346518864354939 -0.9292517040963739 -0.4891744879218285
Ni 3.089167930091141 3.636048182609059 4.154341933676542 -1.4411382889037374 -0.5000548822797583 0.3070606799047873
Ni 4.613975768987557 4.70319054032335 11.651920393393315 -1.1910866793941421 -1.3083276979971985 2.2773520540058194
Ni 3.0826221804715472 1.3230654284141676 9.388081683018516 -1.2242400262176594 -0.2000436530225845 1.7040448999991298
Ni 0.4001341748720904 4.298131776734624 10.482234747861806 1.3173052189054604 0.4357433646858818 -1.095099685073856
Ni 8.243978160222365 8.775433775022824 5.256423040102942 -0.3302350611387216 -0.2909761156380989 -0.17971059789218727
Ni 3.146829781054126 8.162123885276356 9.274350440688824 -0.5507243836101676 -0.854018140273355 -0.17078141372335748
Ni 0.8154837456774771 9.140069988626903 9.765821431893615 1.180303729846025 -0.9614486005438926 -0.5099615998705088
Ni 2.642223775725834 4.885101273740294 12.677358826657114 -1.9385557335606485 -2.871791362005435 0.13847395983990343
Ni 8.923958407834032 1.7653340473369081 4.717198629679001 1.7968830642777893 0.1355840398866181 -0.5945853466591761
Ni 6.898146114673006 2.0714010783475625 5.517233665575355 -1.0019031090145132 0.7090883975057788 0.35919905247123946
P 8.214758378327828 0.5957595036376969 11.115501304234916 -0.9705292226889222 -0.15740010732044504 -1.6219742586496195
Ni 1.4158817508136416 6.817402858049983 11.99392701545537 -1.4907652079022453 1.1381890600641624 0.882876202155628
P 5.756796991469259 3.9222742780683846 10.256154555165942 2.823016763704893 -2.100561457973905 -2.347788710660828
Ni 4.728392139283088 6.273920469903197 2.9088811351229618 1.0444540950028465 0.03751342356442572 -0.06696463894600725
P 1.7204211316301898 5.361829977647658 4.508003137946721 -0.038020959328463555 0.7150721258930395 -0.1063282283452943
P 1.5840343739976062 4.057901839846928 8.603697191898627 0.1435122935947593 -0.2944584177597445 -0.23587737489174218
P 6.277873843435822 5.7584820359257884 4.450954198758583 0.2694356704631618 -0.4989678198631664 -0.6223175224671219
Ni 4.4356943620923674 0.9927226470462642 3.342463442457155 -1.5077727982038356 -0.34835388222661945 -1.9177462530144649
Ni 4.563989202939202 0.9227933021003063 7.886592267024376 1.2195958425774287 -0.9710383011148568 -1.54241995596406
Ni 0.9646972098489367 1.9843713097136417 10.394358753605212 -0.13925454675966986 0.7349938045176311 0.713221702947862
Ni 0.4689293552799998 8.934494564930354 12.249237174380399 -0.35695705051459814 0.5947082453902854 0.8072037510229777
Ni 3.011498490828379 3.313676957708582 10.547386714018923 -0.9627068984310259 0.3201931035216873 0.7315259005736885
Ni 1.0094805067513064 7.882869429793769 4.08208963458694 -2.837646854913242 -1.1815879958750874 0.7282749977365587
Ni 0.7073770336079053 5.729364097377525 2.245992978561835 -0.6941901402377076 -0.8170703594044122 0.3018336271778931
Ni 0.9383290416500637 3.680748153137205 0.7718586853768207 1.1559224727881836 0.6133708547967952 -3.2036691009539022
Ni 4.037385034815783 5.877833179272583 5.311723977129581 1.138406318281291 -2.0927694727333117 -0.5255275726295658
Ni 4.248126693714219 1.139580752372993 5.473424361402804 -0.8297286715983709 0.6816986926389164 2.5418995431387454
Ni 6.311574732566404 3.671221171017598 13.149696230642876 -0.21160667526983556 -0.4717148976844844 -0.09709436845185213
Ni 5.24641369086144 3.6989318196900793 3.8717821986830705 2.292068791390704 0.8080450159773505 -0.12375927933754817
Ni 0.8679238105224268 1.3777645638491893 0.9263263403674026 -0.33116374360057804 -1.1268337829523432 -0.9389635320674992
Ni 2.9624285148964877 5.784933530498885 8.018766413515637 0.3066505889505622 2.18376878403102 1.2882471251972394
Ni 0.5819652853092205 5.8120238606077 7.320524728068485 0.8173356972506569 -0.33090894727729464 0.6625897397236072
Ni 2.2457661456542253 1.783378836599409 7.422751375663653 -0.8444441234316747 1.0796789796434116 -1.0956619853352292
Ni 4.7983955521172446 8.190677056177101 13.106483172970327 0.7211982933954354 1.2135375521984908 0.8874705063945295
Ni 7.791534465158277 2.75863997900274 10.434753528131786 -1.1871544342192717 -0.2705715838398179 -1.4225836658300017
Ni 5.784035457354471 7.7482973354220634 6.054507312993853 2.494037943570776 -0.9658215328006076 0.4595839187489053
Ni 6.723475517327522 2.2095376898388492 7.9827897885201375 -0.37617218999046825 2.4980041273073756 -1.8882927236400384
Ni 4.770897848623336 5.710698989551356 9.799820444274198 0.2689805852036142 1.4386011243041803 -3.1159163216179495
Ni 5.368829393082471 5.434777589037728 7.277162608770936 -1.5544938564094584 1.3576190880331587 1.6475839887979238
Ni 5.053772372141653 0.9312833337851261 1.0679895091855682 1.217303446998826 -1.7377317507286139 -1.6216996648319943
Ni 8.047003870042934 3.579127010528065 1.225930948132687 -0.16691061791404158 -1.157190797977646 0.25960042954029483
Ni 2.4843573305155164 5.648500480436177 10.558431161998008 0.2211575521830643 -2.1774934925452696 -3.5447609023014692
P 4.438971866145177 0.4206898655445405 10.77437516419383 3.354913987306229 0.023788360668849356 0.10994397072101067
Ni 0.8872731204658344 3.1622173848274855 2.8872542376174324 -0.20585100373298099 -0.8304136134805375 2.314816626610181
P 2.1662357507004613 1.643325718500971 4.080151833461932 0.09102322255710776 0.6029203488874326 -0.5911737498744657
Ni 8.753296734937326 6.074798210965991 5.429384520928232 0.02541278364614978 0.6909052988388489 -1.012751364582927
P 7.9280415831091835 1.3878470551302893 0.9873443925144084 -0.3311706855791135 0.5304496925215316 -0.01868729199685814
P 4.0857606242958076 8.316925771612436 1.9544488087298153 0.9164244704247185 -0.26971257827363226 0.23424035350895142
P 1.9395509788671725 2.3380917682943805 12.562502678275402 0.18800214847701816 0.06129381381347509 0.04490380249122589
Ni 6.316639124422017 0.9071538675070704 9.547695204541728 -0.9350600832480348 -1.6483717748065416 3.2785542802985663
