# total energy = -381170.1158642566 ev
CRYSTAL
PRIMVEC
9.24941242459179 0.00000000000000 0.00000000000000
0.00000000000000 9.24941242459179 0.00000000000000
0.00000000000000 0.00000000000000 13.53745002832382
PRIMCOORD
 96 1
Ni 1.1603942598855153 3.0313006185277707 5.944131990475931 -1.2827765890009712 0.6373669606010764 -1.6594771406910842
Ni 8.0309131558213 5.326348024081375 9.086525449335236 -0.963252743632167 -0.17916706668389143 0.4472284825073459
Ni 5.677242975596462 1.0027657767761466 4.05928584267195 1.0861759002216649 1.0498814366660048 -0.5357376803933482
Ni 4.606937990765826 6.029442094235034 5.529898913938174 -0.9646321404781968 -0.42939042588466053 -1.5935733389094233
Ni 4.024336013645013 8.91626689383496 4.867890732880385 0.6488842172120567 -0.9524016598502757 -2.6466030913964222
Ni 3.6753834386968167 2.5475933568984113 12.40975324163093 -0.6638058715188956 0.23958104899557447 0.1922436973621915
Ni 7.671296008579648 5.014161862720771 2.83648857333954 0.5268311219323378 -0.3137728018176403 -1.1068419132114484
Ni 8.475097679020527 3.5608109694868797 1.1596709558496539 0.45536139602712544 -0.5907646873615051 1.0599732736843681
Ni 3.7783108979176276 9.288444742875845 11.864829670142925 -0.9470990166904398 -0.5752028283675061 -0.3847699589618083
Ni 9.019666073079158 2.4430380011263013 11.442137081185743 -2.7147985174257374 -0.5762250989844333 0.35377145369776497
Ni 4.762577850247187 6.62097900356355 13.30407798455996 2.6634386748965224 0.5710324990399004 -0.7261468956499623
Ni 1.5266617345157165 1.157397450325168 7.155828115257944 -1.3514908636482337 -2.1053354823237806 -0.14206707650780048
Ni 6.153273225080488 5.144143852694715 7.302371177817696 -0.8674177015087124 -1.3452582524749606 0.4937088854570722
Ni 8.388634173557179 1.5130281008985818 0.21798922233735998 -0.6892721341107999 -1.004242298670651 -1.1533415994348846
Ni 7.691820454303137 1.0596034148882854 9.75168860490239 -1.5938890703776292 -0.16622490470092663 2.26496010809937
Ni 2.0516583723098583 3.058077666914205 0.8800223768081519 0.19068175219171032 -0.41212418260504513 0.02254394673878698
Ni 3.0757810419095892 4.240726012608965 6.105512035183067 1.1668092949040163 -0.3332527649191228 -1.7763754312427404
Ni 1.3464276879326182 4.939065884879851 2.0374272266630986 -0.1858190247827703 -0.3457280145679981 -1.339382253310158
Ni 0.7595487825997534 4.100699160960524 12.72717919501603 -0.2643410295490738 -0.040550924839168875 0.3896468274381354
Ni 6.124970023677211 8.022431444812542 3.7124967052427826 -1.0891547803443307 -1.9936079373397861 -0.5312261656762399
Ni 1.6204507744599128 3.861074638491658 7.935788500752062 -0.4901371089454139 0.09884708947690073 1.9709382636564121
Ni 1.2856498002133565 1.1036768641322792 2.0871909143068628 -2.917175703677505 0.1518246701151966 1.0789320741750579
Ni 4.624687612822327 3.310725361793469 4.0742846895332425 -1.2707019172246243 1.0417428667192705 1.1445517690573965
Ni 8.464803083216001 7.37721094694003 10.589764897277906 -1.0395731127614611 0.7520348191603177 0.7035170740655884
P 3.0617404341546295 5.005310175223079 3.6483566561803533 -0.15615646472133105 0.3767005516901125 0.2362645830278318
Ni 8.32025326899037 4.354558528841039 6.8526434818730495 0.7854074810834926 -0.5855296642148109 -0.49737939233012407
P 2.7780239636173234 0.7548944783689922 0.8853463384838797 3.6167998704465907 -0.6646540784518038 -1.2472087191986907
Ni 6.677039691048932 6.959119015622715 1.6610584689438386 -0.030531078709321615 0.08214263223802627 -1.06234074547528
P 0.97331564825718 8.157241627967045 7.379737886359434 1.4912025525499801 1.466051250095333 -2.9686116508602938
P 2.765934981841479 5.412293562460218 9.366033437310943 -0.8999976923272629 0.39873233467917135 0.5533047427428341
P 1.4606579288902937 6.4933833619432155 12.338857421880606 -0.837350706920003 -0.1687204174292707 0.13783041271863358
Ni 5.334025036226708 5.459040091836744 3.0190405226257955 0.23293886108870848 0.3091689844970417 1.0945209297522505
Ni 0.5182075692222442 6.953217890624255 8.83208984307321 2.316277013205792 -3.598289213236913 2.055689280051563
Ni 1.0888685551627861 5.6648857608661425 6.512271586644403 -1.1695233514010697 0.5843592980557936 -0.1751862276592725
Ni 0.6006855029585751 4.178708703651782 10.07676289725493 -0.9517128613133673 -0.0560194527884132 -0.9358535256836076
Ni 9.005190742949704 2.97260384855875 3.89531966230718 -1.3763477747909134 -0.5207478918527354 -0.9639783089442817
Ni 3.395930947194449 1.8525000283179014 5.353465450837628 -0.6114065319815729 -0.33675743563827165 0.4912601668062636
Ni 1.6958149852553088 7.133007965420634 2.7770046783903166 -1.6099399531929046 1.7421769309841608 0.5081983373224989
Ni 4.306600326463262 1.709087891795735 2.388817946673355 -1.4484037122168991 -0.5949789825531688 -1.1402608549915265
Ni 8.178820506683989 6.780263131460888 7.215203792084154 -0.8520072804909132 0.9319130529786207 -1.4287882519788169
Ni 2.4426310269884763 4.369496329581658 11.243135977201584 1.6956913858281117 0.5492488275059056 -0.19192076680513398
Ni 5.5329428955008595 1.9786620110436255 0.2692244914658499 0.780849686509481 0.40618570563342304 -0.0011492831130947949
Ni 5.975222039782087 4.673395017590191 0.7749712525408731 0.37865613275458654 1.2450687900375523 -0.5863570452121126
Ni 3.5744261042795675 6.415401567488628 1.8571349087829938 1.0172132570090224 -0.5491940630085703 0.2900970554672552
Ni 0.1227628237336636 8.563966031661932 0.6918884072451388 0.37450123004594854 -0.589928821723771 0.3001289857819605
Ni 6.686437093867798 4.095639732474383 4.721198754783838 0.34707295863166676 1.093250033459627 1.2765241803333565
Ni 7.067022658619658 5.922278404215955 11.78638078037106 -0.27631337141960155 -0.4726466654701344 0.40211359244657846
Ni 1.4666237997743181 1.341719737110962 12.89879371434824 -0.8726239283000004 -0.8762352998003425 0.3530034651834888
Ni 3.946085986235949 3.9761373265494298 8.365589263002844 2.0513171191257964 2.1125903641139807 0.47694117908043027
Ni 3.408510147818128 8.529511971130164 6.7759677044243904 -1.4893446734056348 -0.37002236833898855 3.396539119046183
Ni 7.27653109488948 2.14807424532547 5.895382963353063 0.7110889728755754 -0.5514180672430826 0.5736907625983539
Ni 5.6977211742588345 7.4915429314321615 7.050412564149068 -0.18435143909830834 2.149952092591891 -0.16404280944794328
Ni 7.172993174461932 3.7535132237469773 12.658761292800326 1.5741751368884698 -0.47292948681787583 0.21144135333656489
Ni 1.7632616991875654 9.528466990070314 4.227325464179857 -0.1605003435123236 -0.16547851345320533 0.6916946275093636
Ni 5.718541601173468 5.010277109586988 9.903172703471824 -0.22135629845743168 -0.3719350119806691 0.6642239328929206
Ni 2.485631544414568 6.990261786578544 5.060569863609925 -0.2868520661673963 -0.12440951132703734 -0.44404699945557075
P 4.541590893408258 4.711289859469024 11.915406381121118 1.6025331192058723 -0.28264188474079066 -0.1878085444089733
Ni 6.197633406103404 3.114175352048481 2.4535814061196333 2.3974205147553422 -1.3707977915069618 -0.05028486429748114
P 8.800639991631567 0.127161844187062 11.592944122780434 -1.3964486593058465 0.8219366863577778 0.879677235602356
Ni 6.168396014065573 0.6886076407295365 11.615213007649235 0.05639406251901255 -2.7392885321473015 0.8899865879481641
P 9.24838553853676 1.3508581563875761 5.283652737258652 0.028528703567312155 -1.6938491904130506 0.12239093823511178
P 7.674329815788888 3.212487354569868 9.723097746778969 -0.7788187721223813 1.3522141149675035 1.0380201664520448
P 6.635944552540838 7.296722561772929 9.035502916687882 0.9242357389390212 -0.3384885593967655 0.5775142501095021
Ni 2.6031453267115126 7.826945117473232 0.19861910325933863 -0.7591313209957831 0.14688172428762444 -0.412354039227664
Ni 1.5155439410233176 8.685716044757145 11.232536150793688 -0.19901006955174758 -1.1359079773394694 0.10126701177230302
Ni 2.6219956288225847 9.130159551498622 9.093173001900118 0.5897318752216166 -0.2673705604040169 0.07766094231758883
Ni 8.41172070646652 6.662286878552778 4.19828785944605 -0.4371479583428923 1.517199233724058 1.1294498804189514
Ni 7.501328809564407 0.06980161428430708 7.611932355989328 -0.5207556051622192 0.21334731211002614 0.7225386094734138
Ni 4.471942819366857 7.068678303407627 8.974178388706223 -0.8023955310010568 -0.9774223502643297 0.6543658091519182
Ni 0.7131111835914858 5.016242980471013 4.182435291836547 1.3610638520486495 0.12996129438320198 1.4762238197529607
Ni 4.094465057122024 3.8525559298340046 1.7280963588558256 -1.5867992534103834 1.0462978330798045 -0.295075225408137
Ni 4.72228741060252 8.927551176747379 0.290593408525325 1.246013670449325 0.3717131257778502 1.1081950848052333
Ni 5.760348944422755 2.7353194273823775 11.338304104508275 -0.5320054670444258 2.1802751690554647 -2.178975219297118
Ni 3.85282416278848 8.756696034158699 2.553880182386584 -0.49966998813651364 -1.3176515465012855 -0.2215761277777216
Ni 0.14588172958578582 -0.0579327685193768 9.060628944992459 1.616438673543371 0.5160214329113436 0.32174990648584584
Ni 5.500468209184876 7.490562493736492 11.074134416822453 1.4009174937104776 1.0540155134390363 0.0008633764415598035
Ni 5.805763558439126 2.1130097235869645 8.666391247799018 0.3631989176592519 2.1387863057830585 -0.25782071193205275
Ni 8.621441879217478 5.603969131963531 0.17910561829185623 -0.6798166451248551 1.505720286550181 -1.0840655387468814
Ni 6.60915825474218 0.08916710865621677 1.7706038826104158 0.13583343689326285 0.9865641646645977 -0.03834054745141139
Ni 3.2722200587078976 6.917108185304516 11.030435568773502 -1.101512273468419 -0.7204642434428883 0.42473930026589435
Ni 5.205809683987415 9.225955713895274 8.848212493519632 0.21807839903710832 -0.38069064668611213 0.279761477869202
Ni 7.4005287151549535 8.073460452048453 12.880517800736234 -0.5122339408444533 0.41509689208012385 -0.1436598749162171
Ni 3.460094119787436 1.9994824379582592 7.836897485025496 0.5695253183667546 -2.1755703073806276 0.27016226421654116
Ni 5.307127745481371 0.8693448553375818 6.364997820519012 0.4000561956969174 -0.6054536568322476 1.618655992909664
Ni 1.7683118782614835 1.9252929025152217 10.772073587022687 2.461968059619424 -0.030149784110502915 -2.299016426353131
Ni 8.7675363452844 2.3054714931292564 8.169187243853429 0.8600090677494672 0.44336514289719775 -1.6292466239413168
Ni 8.815291060593264 8.912807613663448 3.2085785529643043 -0.3344154177686563 0.1905197726925493 -0.07522482207227045
Ni 3.1325446847239418 6.176424503875392 7.413675829689142 -0.413083718304837 0.5193728658820798 -0.4436865307923584
P 4.054997815165231 1.2852520754877548 10.240011323231174 0.3782218734306454 1.337109398115581 -1.040326703098034
Ni 7.232254158576574 8.88293201218221 5.394254433801129 1.5628178028941213 0.21168560813688703 0.038104520181205345
P 5.204246533321677 3.049050240584271 6.423235819641756 -0.4506675900958819 0.7674015314243752 0.1378738643620593
Ni 3.0360548164105436 5.328244153587151 13.378344290124453 -2.2179994230791156 -1.7938008258080398 0.5985078216420338
P 6.632300284124861 6.381631963461382 5.531063414937087 2.3908477466338307 -0.011381759474380398 -1.7775391125335387
P 8.060307787866929 1.6332704598013976 2.3668200695826958 -0.20981641613863222 0.0942134473596313 -0.21527666792225508
P 8.86829944204496 6.7166271753646285 1.9107842745017634 0.8109058824649131 1.0131419151531262 1.366967104906962
Ni 2.1274573054797488 2.753670261233392 3.512196983782471 0.6756694557257009 1.311380111670277 0.08278592224898
