# total energy = -381177.976976452 ev
CRYSTAL
PRIMVEC
9.13228173138241 0.00000000000000 0.00000000000000
0.00000000000000 9.13228173138241 0.00000000000000
0.00000000000000 0.00000000000000 13.36601741907168
PRIMCOORD
 96 1
Ni 2.921736479818253 2.5413495587440664 1.7867153494441854 -0.07105989206130343 -0.05271507100552857 -0.24262420669727244
Ni 0.7588195339086322 9.030301306665798 1.0174731426663248 -0.02369117296935275 0.15161101144249373 0.1583125918323854
Ni 4.784411407046001 0.094436922930597 7.927825801080442 -0.3117794255366953 -0.7992754973148363 0.45537502287388026
Ni 4.962490896181157 2.9346769226954077 2.9625641706939727 0.07369193036751179 -0.3914481423129323 0.46504391342221196
Ni 3.656446790582433 3.1151308050190316 6.915416508502601 0.33446838249377875 0.16205868913837895 0.004403528384334351
Ni 7.121764061774627 0.8080197004581527 9.003108112060787 0.12561484448904817 0.030345187950760643 1.320342205959571
Ni 4.301797726926742 4.418745723740321 1.2751979983960662 -0.17703999303855963 1.6933182576102452 -0.28622137456193286
Ni 4.079673244145492 6.63193587927502 10.495678153948568 0.12140980526876509 1.291037286347867 0.08746481578188808
Ni 3.58758938811684 0.1079289556099959 9.96528802996472 0.39759230753745717 -1.0373419094380976 0.5351874643168332
Ni 4.089746150633496 1.2039360662130736 12.072748283273205 -0.09111963892565597 0.2039023646470424 1.1722320085814844
Ni 5.725648263799491 8.997552945227918 0.8853463807813843 1.1166331882702578 -0.3735242108446599 -0.42310562131721324
Ni 5.748579422631203 4.241588595036071 7.381690710572599 -0.03330761301319425 0.8907070110539562 -0.532615846934915
Ni 5.207144717408378 4.7768498779688775 9.468192377852098 1.158432897914863 1.852023971115991 0.3374981704590381
Ni 7.814949888585087 8.552746910494276 10.838917693589162 -1.0400731923263313 -0.6824139735383861 -0.8333343866717583
Ni 7.899998826139739 4.392974425363942 10.89044385223523 -0.3845503867518345 0.7729615420106559 -0.5670730001715202
Ni 7.662230745159076 0.712825711391694 4.190152845976792 1.639570631575144 -0.9534046471934936 1.7748433108689303
Ni 0.90296803115242 6.964990185365231 0.045724420212862014 -0.15339175749200035 0.48698390802841296 -0.033203740445478296
Ni 8.838523395289478 2.5743079626563117 4.463755086312195 1.376650907853629 2.3224926550982 -0.2889313172939282
Ni 0.6342241645718846 2.6581423067722465 0.9547809434374055 0.5355247930515937 -0.5552461827399211 -0.1575065509913223
Ni 5.22052350979725 3.2948632371046207 11.530541900264128 0.3517425961931942 -0.11689006302154062 -0.9679892298758878
Ni 0.7385988362243727 3.910342480681694 12.064234257236246 1.9720176127635196 -0.996530274738374 -0.5573290334108788
Ni 5.852002510552005 6.319310486887135 0.5896997261473487 -0.1520388430085317 1.9747920901848635 -0.9640760108644107
Ni 5.1209542446669625 1.9608104241634603 5.290082271481591 -0.8654628917751869 1.0214668900790538 -1.1303371681199115
Ni 5.69963039382277 0.6758582359035346 3.262698428454214 -1.6934745806824512 0.8629879478721331 -1.549908808141937
P 7.816000100956909 1.7136726223698413 6.230274395232154 -0.4621259684444687 0.47965343580527064 0.08445019732528036
Ni 6.854946193361199 7.802310810997238 3.5868779833884483 0.12574854185343504 -1.222847773855823 0.44655973857509546
P 7.808986508769433 0.13520799366105346 1.8840736892247483 -0.4647266392921093 -1.3912486031621458 -0.14391389990855213
Ni 6.90468973065962 1.3482626429459963 12.534624378575637 -0.08901596231909185 -0.19055988190186537 -0.28884107157296707
P 2.2628058408922014 7.788868092637908 2.4045333703119005 1.3642180814069151 0.11877673852129221 -0.44197906118294855
P 6.7714862727865235 3.712108046289037 3.5571514938969697 1.8883570012190702 1.8725511445350653 1.1611760078776387
P 8.20037782904402 3.0831769520711387 13.060283067517387 -1.6452481415758953 -1.0349602965797982 -0.9788477698569465
Ni 7.098211907801316 8.487578949752304 7.342354321264867 0.019435740127108463 -0.8196761724583754 -0.5107504143203914
Ni 7.657436297374669 8.062589965860882 13.03707976669715 0.10586722954847574 -0.21592587147047973 0.5889042371139988
Ni 1.082184489333592 5.056672115229919 9.89460873734105 -0.45135021798520336 -1.4037523920561112 -0.4116004488910911
Ni 6.419482482596033 4.261770937138055 -0.10738375840479751 -1.3960609369491248 -1.1830095588129625 0.3884448367102342
Ni 3.3209450330518004 3.304223825636084 12.871113335735783 -1.7603700569534197 0.4879275028886048 -0.6218747785027483
Ni 0.949739010824507 5.9451335172289435 2.9012281152669286 0.6208440232453888 1.6865326021469793 -0.323245774305082
Ni 5.859518378221657 5.613659095837214 2.708636517609482 0.5426868580176718 -0.40432191295180686 1.0770220016365386
Ni 6.422779236215407 6.188472289921013 11.386309386030593 0.9921002639914784 0.5625267755617344 -0.22869782642416742
Ni 0.5907691163103092 4.527392476675755 7.4073798184155315 -0.9317215057931051 1.7314325479834631 1.1650648014090839
Ni 3.5092344128973716 8.184195426236458 6.324919534180817 0.19431677784113632 -1.099095179386494 -0.5584443779622447
Ni 3.0266389973411005 2.9783200959557616 4.171533950466601 -1.3637316286887997 -0.42251323914885297 1.293875012906978
Ni 7.3069758627566825 6.391455510690608 6.322955180431435 -0.14867301186009232 0.09361232344052266 0.5004850278386412
Ni 1.1352704416588566 4.969285313612775 5.194862712026949 0.24832897039153362 -0.6900144115934632 -0.5454633923215444
Ni 1.406462672907963 2.6649093273593825 6.459876390100782 -0.42860186854509413 -1.0607422906399087 -1.4395413767302625
Ni 8.23179287738376 5.871993074742613 4.248709034917029 -0.7010853246956442 -0.16592999916832712 -0.4120228811404904
Ni 2.129237091759341 7.444946371569705 4.636711365529154 0.3183007715949809 -1.123106454699427 -0.5045877371531052
Ni 3.0179268007957187 5.869947443687932 8.488450169406843 -0.39253366206762724 0.4275772839353217 -0.7676167327589748
Ni 5.469606487549115 8.371763355843994 11.712801234639137 -0.22459074623432934 -0.17399375001306808 1.1634318937913513
Ni 3.1026195793721 5.284394686567059 3.581250671531778 1.2726330728090662 0.355979002872045 -0.2467652254488395
Ni 8.371635503903077 5.228742563141949 13.22824033584447 0.7086276558192763 2.40713748493279 0.1226807015613887
Ni 5.357361615705003 4.600185892465309 4.869133408923164 -1.1543258177250248 -0.1800769800926705 1.26732580166354
Ni 4.655901941860877 7.772356927696555 2.755912512448194 -1.403111673148319 -1.325472585207601 -0.2973262262258428
Ni 0.982788737551693 0.5131282855036802 5.023710971633226 1.0587250030995639 1.112843125100206 0.8162645756736652
Ni 0.34265142071237187 8.23063307763401 3.343402226473968 -1.9360504506402914 -0.1854387586252161 -1.9669756794642383
Ni 5.197601483247032 6.74355062369604 7.670503678964591 -0.44386008025574525 -0.42675710202687145 -0.9869693705228163
P 2.6104352682470133 8.142470032089868 8.28852078356888 0.006383534928840619 -1.2557512094520633 0.03719640654463916
Ni 3.308488601093834 0.4043527673991802 3.686334008228209 -0.5620192397976966 0.6397709420568788 0.38087190945898275
P 4.6361031555816465 5.438574995032127 12.166751422832832 -1.1496536090603362 -0.9466243910468666 1.4141597034323643
Ni 5.918896472496364 1.885934848193248 7.405053826318982 1.2310282527840863 1.1286006450447787 -1.0529528765024767
P 2.158734360985318 3.290333625483542 8.611471133414005 -0.3607658827377271 1.0619237125425194 0.5383121259887438
P 2.06389561766898 1.3013135837847742 13.141480921965972 -0.20044783043953865 0.7855375789034535 -1.0026698119772086
P 5.610152299743476 1.0772895864527487 10.61132114773664 1.112639493729832 0.38302649390814036 -1.0257266937966723
Ni 6.054638704624824 7.812420246611219 9.45387752661008 -0.014719822708677876 -0.3152403875021022 0.36392474008168285
Ni 1.8017169482545607 7.38681939985969 10.103439357951325 -0.4449461142310724 0.3071429552059485 0.12340061044654878
Ni 3.441600736151989 0.20490830570855328 1.000002174939942 -0.5770331967080256 -0.3173715749124921 1.0358100461746031
Ni 7.494160236541466 3.9946791002798046 5.876062419376388 0.9044444152447069 -0.661377464583061 -0.2725276791249242
Ni 2.0895481963859366 1.9034140349729756 10.65558896905119 -0.6146036987626319 0.7141910088396668 0.46706608605856337
Ni 5.311088345374344 2.320183965519698 0.7580442032097823 -0.40409077077760724 -1.0099899997877058 -0.20154954814414966
Ni 7.538853622173643 2.229135119023416 2.361614386974029 0.325771111830097 -0.5748179342242616 -1.8949747636459042
Ni 8.111210232535527 6.924470252375864 1.666608496461793 -0.19062750191500719 -0.028795069854821376 0.37493009005325106
Ni 8.43198162001616 4.518625486441408 2.0798323621043524 -1.3403258481703497 -0.7396475012395585 0.5521960830596877
Ni 2.671000559115954 8.40554366509071 12.033411893965473 -8.278952179340582e-05 -0.6507413250254535 1.0176454594504345
Ni 4.39674605762101 2.3477451910689235 9.171880893125293 -0.8594477959293585 0.2034385376367464 0.5144355764814624
Ni 3.3529080182811875 6.845165519881007 0.6419701657351893 0.19632712340294575 -0.14779832256462286 0.5567325374774607
Ni 9.076328005396116 6.480705297732549 11.295968291350105 -0.5139694354783213 0.862459843282805 0.6378639548421531
Ni 1.1007504176111187 1.3396691660600384 2.8304547601438705 -0.03222209325849935 0.9891859185581611 0.6544768808084858
Ni 0.397425018657748 0.15468258394724418 12.038677567474977 1.1236517856799357 0.5155642907692669 -0.008716039716759182
Ni 2.344822860990808 5.676041710723482 12.103583431738068 0.8001249897993252 0.45594400800347284 -0.5678641286142477
Ni 8.958740748877949 6.667387396035158 8.846231954098656 -1.6120366878209333 0.6574411056431322 -0.6550522936959815
Ni 1.6058112456429017 4.904016897774366 0.887480594966558 0.8967673583154233 -0.8036162907820352 0.04946031151365675
Ni 3.307785415418787 5.520911644983028 6.187797414318598 0.7987059979646116 0.2502806948012657 -0.8524201996586159
Ni 9.106912016119892 2.401443006254293 8.420911468388999 -0.5275440888389624 1.355976153113097 0.2426216355941112
Ni 1.2237257202108112 6.985674802949393 6.851780944595341 0.1932474560363575 -0.02314558487852788 0.43662576729083513
Ni 8.482355284737674 2.1341867883291488 10.772020991960353 0.15343340936321317 -0.2767211483809815 1.0195853567856246
Ni 0.21025890943595266 0.4493374728110193 9.514693041991961 2.0801301867027466 -1.9350070969774418 0.681562167061052
Ni 2.281600076207081 1.1336357632714107 8.247153374856856 0.02667519529834116 0.23115605815667287 -0.8099504605301793
Ni 3.21812467570961 4.3829928416908785 10.292862053930314 -0.4924863259038808 -2.1893866444384296 1.0011022103797727
P 8.990594146729407 7.801872461485521 5.347369073294146 -1.103050050269184 -1.2265185378391907 1.4225656681078727
Ni 6.665743585366217 3.008831048427585 9.442181813700575 0.6731358906705697 0.41136390740025286 -0.27092845295860435
P 2.9414622078455315 1.0829881301050737 5.966790722792227 0.6125200767607257 1.364669824232353 -1.0974028792857358
Ni 0.06166755724528018 0.3957866873577045 7.1908369860834815 0.3607345152791594 -0.9302688325069784 -0.24748204901020604
P 5.1226345844618795 6.748564246236307 4.832697432217961 -0.2512536002374963 0.6978141101435401 0.06515741053393939
P 7.692677771660441 4.858793839815532 8.579512714325364 0.14318113550758566 -0.35442888477610573 -0.3232015513307079
P 1.208356090456223 3.8378960915889153 2.8939962615517425 1.369050469798552 -1.450091127221651 0.8507093876150962
Ni 5.698753694799336 8.944631373969548 5.57276017316584 -0.025993852960600392 -1.5531543116624282 -0.33165996651070623
