# total energy = -340855.86533028306 ev
CRYSTAL
PRIMVEC
9.38491892812074 0.00000000000000 0.00000000000000

0.00000000000000 9.38491892812074 0.00000000000000

0.00000000000000 0.00000000000000 13.73577749344250

PRIMCOORD
 96 1
Ni 4.085405238788344 1.3966823605081344 10.687423333082318 -0.6033803192429867 -0.8546647727184185 0.7008225579525608
Ni 4.129101419934451 5.274549508689734 0.7122017665802451 0.3253059992682204 -0.9634676878564505 -0.6073562731715992
Ni 6.2886462762850295 -0.07892998116260744 6.697770542102715 1.0222742164716976 0.6350928198549192 -0.5778731761108177
Ni 3.810445892736233 7.646118446752693 9.596473466817466 1.2607455773428609 -1.4234951219006775 -0.8563005085496285
Ni 3.5919931417615936 0.5449155919820171 0.4339727148770806 3.8029125152103798 0.25795158108296223 -2.681352836172782
Ni 4.527463061066063 6.668932564133265 12.323629463875497 1.713033219540669 2.083539726604928 0.16496429282094816
Ni 7.1450951807161704 2.930468997297083 2.3091348283781237 1.0053563576704363 -0.6192193431577722 0.3641854499422373
Ni 1.7125693367101966 2.609044919102709 9.302156787596978 -0.04637730171295884 0.3695824525880925 -0.5227011589243643
Ni 7.623923114190292 4.9588502308602935 6.940880289796677 2.6157033164937724 -0.4916399187431856 -0.11733666364065598
Ni 7.706491628306152 0.7598658913235541 12.179829048151438 0.30264583866654327 0.06587937630162849 -2.5634947528110175
Ni 2.7068545410753733 3.1365336556787544 2.960568308330544 -0.49792446620031666 -0.29545214913158147 -0.3569143702021208
Ni 4.7405757933396435 1.9964631252990548 1.8570492205431424 -0.2286348343967159 0.8229101060146408 -0.15293050158486565
Ni 7.404222169037724 7.267146047512803 6.212390058440405 0.6761088572559646 1.0692282166237328 -0.36811563823457893
Ni 3.1401750041075966 2.6100678752334923 12.526822337156071 -0.05017147864806844 0.8682743930820531 0.22229218000813977
Ni 4.853908070728042 5.561286927623797 10.202344105308065 0.4154779295686264 -0.609423183002957 -0.6208136842280856
Ni -0.46959692750863263 0.2495562483016214 5.718987346332285 0.9209676097107107 0.2552776337952249 1.32033963485641
Ni 4.720923773726252 1.4907004753538595 6.3003952559192244 -0.5625882249272892 2.1986582995483426 0.5650073758917431
Ni 2.3420064443751927 -0.2911886858407631 9.910885133810728 -1.080549812284139 5.688262611282326 -1.3500947546316555
Ni 8.75802483632065 1.3449151493393363 7.97407161283868 0.49524306271341156 -0.2287803588356447 -2.5864310498922167
Ni 8.475200928455733 4.291432357495492 4.8049666585590485 0.29029605885193877 -0.07189755747125036 -0.8690971460936644
Ni 1.2033248819528866 9.356135085595247 7.438101725295766 0.9280270876606533 -0.10971719942218523 0.5006156398792346
Ni 9.40856862598685 6.604110931148695 12.338422911113598 -1.2226940218867781 2.662704882054292 1.135976625793876
Ni 2.7023591650511065 1.130685611748663 5.087292227244661 -0.9878412316048085 0.15754743153158673 0.1901562187055435
Ni 7.850850446688757 5.056256301331823 11.368347042849045 -0.9315428141233957 -0.4376364679435366 -0.29072286197671215
P 3.835297157271218 7.182409617193174 7.311059958771149 -0.6882786598492792 -0.12820008871772115 1.3708810952493873
P 0.5955763212442161 4.989811077424084 8.982195818217182 1.616535347022235 -0.7599273345345171 0.1589078022142231
P 6.3404322572910905 5.142541243225573 8.511539333395106 -0.605072619343745 -0.7739727568839897 3.4574076723967813
P 7.543409897254628 2.792970554433765 11.731177382043553 -0.6390749444311187 1.8595891850577586 0.2711328556599266
P 3.473311460753504 3.548362655045904 10.46042561369412 0.25632664388502957 0.4378933211493491 0.28166640820139877
P 5.048917294962352 5.29605035727344 4.927050372570889 -2.44135321158255 0.008850508412094435 -3.6668145118018205
P 4.463795773073111 9.113206466830864 12.364905274506658 -0.5776662023063341 0.45051666634031445 0.9962718788706649
P 5.989098443419603 4.024759894594586 0.662869003304338 -0.4292824395518865 -1.121519055607649 0.9602049579447787
Ni 7.724097735657977 1.9683740638363623 9.710795853121438 -1.3027890275671563 0.088910289979163 2.4160106190527038
Ni 7.206153461329695 1.4580503434364829 4.745765653342607 -1.8002910615180738 0.1405634953790805 -0.7490356273226777
Ni 8.092540256193843 8.885875582831265 9.707444498678294 -0.8668533443648103 -1.4934083019520474 -0.2013770271220274
Ni 5.008580914686157 7.966960659991942 0.5626915663610637 -1.3411131199583355 0.29935585506136186 0.5152799267596286
Ni 2.218529069946644 5.642325700002798 6.296535238886279 2.1278750581871932 -1.6837139017512617 -2.158502296154747
Ni 8.924616526940184 8.818097700477917 1.31222278528812 0.1780967164378481 -0.31868669417948986 0.3795053681287593
Ni 2.960481967079138 5.590126782576973 8.652192985902177 -0.1313193510729932 -0.7981346988421738 1.212540478392544
Ni 5.196438830923617 4.440586869298557 12.343188572794439 0.2835250586766923 -1.7242653408110629 -0.12020344366548977
Ni 5.6330909400698586 8.660224599266618 10.752434541423236 1.1995564074280503 0.25037248318412364 -0.708284927767877
Ni 1.2743405612339407 5.043220649353313 4.114002962840839 0.4330712171703574 -0.32888677464094324 -0.8935565646876094
Ni 8.179895078811533 3.8724332802942305 0.1894270746325697 -2.0681478175298897 -3.137889483454931 -1.8942458558996793
Ni 6.00284734921407 1.7708778361648272 13.248706524287956 -1.4785948910882987 1.1641944829889885 0.4733069247619526
Ni 3.9015546828063368 8.494712174289656 5.612823269794271 -3.068281493348806 1.1418662518054334 2.435415763052193
Ni 0.8706614252059833 2.628387236401276 4.928259150090566 0.5226255684914225 -0.8710923221468225 1.4295359287781186
Ni 2.8749759734317633 7.061137698642917 3.5396684664261118 -1.7086389471277155 -0.260320595535771 1.576515612096188
Ni 3.3489706738109 0.8403856777022591 8.297507817587547 1.1485392929502347 0.8823416698083966 -1.2706306976670567
Ni 6.982745473317869 6.091778838161774 4.4012997229253115 2.142306403121175 -1.8816757325441527 -1.747915890350467
Ni 3.494052130928095 3.883085162940457 5.1672348411275575 -0.9547094820478461 -0.9102355680051872 -2.2830136231669718
Ni 3.922070114933783 3.9559496711918256 7.278684804969662 2.2750678859573337 0.5492336579972541 2.07388651978588
Ni 6.353045587931204 2.9502242510154155 7.782581733091007 0.44404571390399006 -0.8456330015334532 -0.7168091631888042
Ni 1.9445645252694221 7.602450420362479 0.4835917181712345 0.141522259747924 0.1555622827807579 -0.09170070824010658
Ni 5.611599476404784 5.960690294723454 6.702853414033283 -1.899335097497129 1.547053340971013 2.056264950049375
Ni 3.5604410453240485 -0.041552665730777816 3.051993370158513 0.7335092495523045 0.3702758791106913 0.2991038869515558
Ni 1.3565430635231908 7.3725199139020825 10.122333920011025 -2.329520508479259 -4.796975816465499 0.8135538616107214
P 0.3457657416476935 0.7571639732496785 9.855790968987227 1.8632116123016944 1.4485507793177246 0.6305802766965463
P 0.14876691466360345 3.211950861797765 3.0820335562045984 -0.13388839735175007 0.9930322888874448 -1.2243804084502656
P 7.112022727460398 7.561062929199608 1.9327883293711974 0.8115846536994926 -0.6306108728241656 -0.2124826501168857
P 4.130546697403631 6.901500232728984 2.026837414448405 -0.848239585918365 -0.4441197616750351 0.33440384780443055
P 2.595699564809375 3.475169674642449 0.785666909624 4.485185592295527 2.113864602840714 0.34984280806732004
P 2.447568009137093 2.5782999256674333 7.040135189238521 -1.0862854292163355 -1.730258325169704 -0.980580436277337
P 2.754736395930922 6.027980161307987 11.768126745185807 -2.139668708388012 0.4500050168112185 -1.2156224597519776
P 1.603319498926299 1.1372456698717575 12.980364484362589 -0.7053852376225788 -0.21671828546478808 0.20055016034535786
Ni 6.904587870958595 8.491005131430398 13.470209373817683 2.015200575908897 -0.5487258651229001 -0.585579800726456
Ni 5.9525535702703465 7.974252741768258 8.462611998604059 -0.0968467712174203 -1.3336137262574967 0.1262416794397697
Ni 5.367206810333959 7.475725864087592 4.542119488492153 0.6492935368353334 -0.33087089495050753 -2.2394118273166206
Ni 8.414668203285546 6.294436771080379 8.970726509158192 -1.5208476291099227 1.26834190163288 0.20176963457475575
Ni 7.682954252379512 5.3491689967251075 2.212201757805599 -0.27715720747713557 0.20955956293281972 -0.39955405924951837
Ni 7.951991714775438 1.3031616463498543 0.7459855966682508 -0.09083218959222421 0.9027181765822195 -0.1918642025355857
Ni 1.8951904683515386 0.43578400417287066 1.4439870428678747 -4.380025416116404 0.9295584367035153 0.9395245467772917
Ni 6.80170100800654 5.875231225669235 13.609916088034883 0.10423663592358823 1.2554894711502442 -0.036217587571137626
Ni 0.15329795337866794 6.914169872880884 2.346084191520378 0.5917807873308453 -0.4729441421058952 1.1902310162620662
Ni 1.62406016910089 7.775395700895222 5.570722524815441 -0.5829626748185831 1.247095333549278 -0.8821760907648096
Ni 0.8104928348786812 2.7548302451172324 0.8022838465521135 -3.1183221028459647 -1.6303529696316181 0.6182785765110578
Ni 5.319456344339245 3.983259784408142 3.1035710059709642 -0.9732569060327303 1.0425784752466882 0.18962194346862826
Ni 8.137475246599246 8.546929861552744 3.9325802853086813 -0.6834272452942488 -2.269022708204518 -1.1465356322566447
Ni 0.56059497553889 4.051703995984292 6.952528850801519 0.21372397872315452 -0.9550892339847682 0.4984322590746706
Ni 0.40586300659339974 2.6631677448478976 11.545799899800276 -0.33171138857393195 -1.704719043248019 0.26218644509991623
Ni 0.984937825408664 4.829375893426512 11.835240175300076 1.4767910051103406 -1.891695064453368 -0.7801403191472822
Ni 8.789304770117896 1.2161728355587758 3.1145598071960454 1.3655206022684225 0.10993394341868164 -1.1975530038447764
Ni 6.048420514086385 9.405002356907056 2.4421529110869846 0.3377789349242505 0.3949872658144423 0.5979797170527057
Ni 1.9201918915846201 5.555815520061903 1.527418031005927 -0.008692899788307609 -1.3383921214827466 0.795061973454121
Ni 5.64441853685752 3.1962217381721474 9.978272603549025 0.059513067763968475 1.371388116792793 1.315144978029348
Ni 2.1244734154263947 8.629920697007002 11.985124833772636 2.288821230987684 -1.0565447076187933 1.95137988190851
Ni 0.052987250590832854 8.912397362882574 12.732749037233868 -0.4221779672966213 0.22947532802014026 0.7001517571377813
Ni 1.339997451976673 6.854097008723618 7.742678936055566 -2.4878670388733735 2.2076620457088496 1.9045814334977327
Ni 6.241167972930615 3.737872316962427 5.458240521055015 -0.08104374274689269 -2.0594374342400856 0.04858459377692278
P 5.603706759836083 1.1173214876180668 9.257418880482826 1.1307251475869493 -0.6507652362848535 -1.7539297006447145
P 1.2222073382385323 9.169816296013277 3.2817380552300164 -0.518867387000571 -0.9161922998092544 1.7914130423021533
P 5.36792944906855 0.2767922206607529 4.689641962945282 0.530018518521384 0.7933017962299047 -2.0200288505354758
P 8.13468792576583 2.6040146027164734 6.261001121473584 0.6156061718852172 0.5506297670138323 0.7194872242415996
P -0.08254223634369343 5.40423969925203 0.5016830258162838 2.4120336366828266 3.345526375443742 0.6537310037813967
P 7.367301899143226 7.466500489073283 11.4278783972013 0.985406911131703 -0.8801816860426002 0.5898763712192809
P 9.364590897281811 6.56639294317056 4.8499795437890905 -1.4957423494018627 0.026630715213650912 -0.70665561969457
P 8.759413804278045 8.010018666671138 7.497453827702168 1.31214167242665 1.6283667924395246 1.6455307058133206
