# total energy = -340891.0027067187 ev
CRYSTAL
PRIMVEC
9.12695704058745 0.00000000000000 0.00000000000000
0.00000000000000 9.12695704058745 0.00000000000000
0.00000000000000 0.00000000000000 13.35822419585505
PRIMCOORD
 96 1
Ni 6.591378759114588 1.9477199861134917 11.482221993495855 0.45520533006523534 0.7866675787428388 0.33510395919524866
Ni 4.721548223296979 0.04983135935381621 5.838118227341711 -0.5773193604898766 0.23709762045208843 0.9378343035590623
Ni 2.8388578051888986 1.6985358084736712 4.614157710171076 0.10240241092832686 -0.9910669376309578 0.5675697373022807
Ni 3.2206840476459306 4.295556636337747 4.7393914240619734 0.7438281149798093 0.13119953766567727 -0.07571436011417927
Ni 4.912639320185299 4.70981095670681 2.8287779939741373 0.7104701083446539 -0.29612063595351584 -0.4377660515428654
Ni 7.214403091912529 6.049949421119224 2.613830857106513 0.24374906433033502 1.133455402033919 0.02346645855305636
Ni 5.04854883557738 4.741317211970625 11.677812680142306 -0.043227186119751355 -0.6797245996316811 -0.9884647241214202
Ni 5.518057753097987 7.922974391856395 12.832805347399553 -0.5044805221512796 0.5880830267642839 -1.163047770979055
Ni 2.077003330786704 6.595814460174325 0.48548748098826694 0.09478706047491417 0.025753197704704037 0.5674465814608549
Ni 2.9941164692366233 1.6826001417035032 0.40542764033846196 -0.12344714741376805 -0.050304918902139166 0.06748065935047733
Ni 0.8216862404456285 -0.03521453785758253 4.564184882985108 -0.3030531014072909 0.5366856461289145 -0.626378837020689
Ni 8.55813757734868 2.4100277346297108 1.3956139339212539 -0.19555039313792127 0.6081990807878687 0.17797638880989994
Ni 6.9631744759241885 0.9351571322669994 5.0275814774610526 -0.1952403180966702 -0.5964421973622566 -0.9213581602809099
Ni 0.7594440450814605 7.345082860993437 2.6118265773684093 0.5358564653593997 0.40032487597727184 -0.6661617733455817
Ni 7.505726429619855 3.777437546298288 3.75419483782354 0.23735138833410738 0.25438109012288446 0.561254079496898
Ni 7.621237196311291 3.947344976191442 12.785463821891614 0.5484466433195846 0.05231937822900667 -0.12085753230972089
Ni 8.636821072895998 8.906413126193376 6.640840476713425 -1.2131511153933494 -0.11603979920610337 -0.15966010699921535
Ni 6.75581914181683 0.7935405307171955 0.2959926888640375 0.9970354965095669 0.6235786485677325 -0.03355829557141962
Ni 1.5208613382475202 6.643411540475829 9.382909641926608 1.9546068734862403 -2.0409522309517043 -0.27115368159553305
Ni 0.3081634859075765 4.876350539499052 1.7258829094722135 -0.8520545887890809 0.023023971698999054 -0.5952859722706264
Ni 6.268813847893925 2.188260935556663 7.109701380293207 -0.3069411236077875 -1.165772626109386 0.25790041613005266
Ni 3.317155982216764 4.400169816475013 0.3681084262167324 0.7955805649617524 0.5321175671422578 -0.4780693791476025
Ni 5.995917836194026 5.905414931444321 4.911325038389823 1.5252591279140573 -0.46910934174083724 -0.15431992573322453
Ni 5.314380582626585 2.850759357003503 9.459706595480002 0.20657116972845713 0.4705725565499251 0.1713064329888921
P 0.3343149555505102 5.613051120648908 12.979718322045994 -0.5433764278855286 -0.808974212659839 -0.17299719042775366
P 3.9175545888272794 6.444051420624294 12.63128305145532 -0.35325311930044967 -0.8030678744777331 0.1647812302758646
P 2.1738220897202334 8.738276325941353 1.4037752587928944 1.0625256077925764 0.30331869636385184 0.4601899277640204
P 6.586468456295372 7.963452445765728 6.066811474016065 -0.04081626268541357 -0.4789926622928202 0.11049264413562908
P 4.818887218774552 1.1146113590911932 12.592864951721259 -0.3676685233948313 0.28612392975212014 0.3426907704035711
P 4.014391601674634 6.014418177856759 8.389605579862321 0.3791870655573921 1.3703249656356014 0.21001953328837378
P 4.845099839028803 1.1098288336687603 3.8822606464445535 0.7152744717118327 -1.8279982976253553 -0.6165960466023123
P 0.07804552125909701 5.858091659850208 3.903793875889489 -0.739706636612268 -1.704585860104264 0.051731881156652844
Ni 1.5098359742965677 1.4315540648534228 2.5764541431562313 -0.23549788006513633 -1.0837369517628692 -0.6841240142509573
Ni 1.8523524133291358 6.435563350695166 5.04472007715236 -0.19861489099585794 -0.2107425274973274 -1.105423178487051
Ni 5.9578492989097365 5.48228008199887 9.421836113160722 0.024562262720396404 0.5804105978206907 -0.061906507696809505
Ni 8.804118193112023 2.2635309492185045 10.21298994464516 0.38162549979555566 0.832625790640508 0.08890463355220818
Ni 2.5181730470923225 5.169654426856509 7.124581970844228 -0.9907368079850486 -0.6975045493229213 -0.217679878047109
Ni 0.5530543430155026 -0.2515772657424193 8.91678773811643 -0.31613718828475873 1.3567230585814505 -0.7116515302472647
Ni 1.7073707027654943 1.1363700243718808 11.540850826618152 -1.731068222665509 0.10489895209793547 0.7833295155085412
Ni 4.240612355721246 7.141104500943904 1.8357541294870812 0.2581361862899425 -0.7709704797225561 -0.6943788592097461
Ni 5.725905942878649 8.001393205653237 8.291663292532796 -0.14177988428468488 -0.00019154718551579912 0.006841705512181766
Ni 5.310656784206064 2.8623232114123245 4.9030158568161895 -0.16892739123375422 1.3070907402663037 0.24777798298407003
Ni 0.8197412859274598 7.0419948758252024 7.12337995061878 0.005742301800415918 0.1986845678915288 -0.2573198610362343
Ni 5.335956708769011 4.700245905861944 7.178896491433729 -0.7002034363113231 -0.5053032751628911 -0.2868376679896931
Ni 8.393021799834873 7.047717477809678 9.418029259432295 -1.89470274093144 -0.1659333416024368 0.7140490839451638
Ni 4.801226557147819 0.37759315984076364 10.460464643255166 -0.26556256066100065 -0.49263313589439034 0.1268965394149492
Ni 8.037654605468745 7.692025874128829 4.427596321998698 0.1074091201142989 -0.5688491182353365 0.3068979290746779
Ni 7.398667225029895 6.231028246273939 7.370119929197288 -0.12042661541988937 -0.09941633171680941 -1.1124916552980582
Ni 2.489414005859333 5.452307155496447 2.600312008526918 0.15198099318740277 -0.45527783517438364 0.6705853563345741
Ni 2.4281447441020956 5.099249081229318 11.43295650547065 0.42503600557070675 0.2788970729863778 0.7137274389396869
Ni 0.8086629856264117 3.4868261112301786 3.697049135199614 0.7454687359070259 0.31910758376699233 0.7513010263180867
Ni 3.8189743272095336 2.5404793297877926 2.671938540989074 0.11750892755246213 1.11255464732551 -1.1213727598377718
Ni 1.2079892552685063 3.162928664300213 8.12698287086374 -1.133857522568344 0.4155285803009037 -0.3390002089258613
Ni 3.676986258513369 2.6755582921007854 6.9582185383204065 0.5528635414403575 0.14170377963111078 0.5721010495137309
Ni 4.098761191378777 6.630213960779573 5.982280337174562 -0.21349129388705812 1.3993054120283515 2.5229461419646935
Ni 1.1177875400969313 7.20690073333001 11.697690279603215 -0.8277106127270776 0.2394406667629683 -0.04725661899411862
P 0.20094638496302078 5.2971032531902 8.338096685827889 -0.1720368833970134 -0.18177262262753857 -1.0880720888031132
P 8.572110948382544 1.4968026798247467 7.995324692001755 0.4029800542119317 0.5928984458750564 -0.19209277360662402
P 1.6355324249029557 3.281433072859125 10.459182305808886 0.20495985937727929 -0.3931918644769164 0.1331155237414675
P 3.9948690408376417 6.331251360136032 3.9642398861331705 0.2665262101258507 0.08506597653240834 -2.0368225250540473
P 7.14487393414899 3.983286932514994 10.438049749772432 -0.43420970165017486 -0.4015402364416117 0.7240203362252629
P 6.629602454666399 8.013751105313492 10.494500890975276 -0.5547173068196447 0.4673566207157887 -0.5276980979183234
P 2.5043091995414146 8.385565076036919 5.653855006920036 0.4970315220724021 0.7436206269546934 1.5010740460274212
P 6.906459565666557 4.2140255302335605 1.5816541728538975 0.17171472417090425 -1.1920611274922694 0.033118379820523604
Ni 5.337845988850011 3.1387331015237434 0.4081994971529523 -0.13833126361445208 -0.9094197569721112 -0.5683498100014147
Ni 1.688660441093762 1.095399114789244 6.70109938434039 -0.01881996091998049 -0.9835426042294545 1.0660567608742866
Ni 7.008535451781997 0.9072815804631924 9.35337480935601 -0.5616253467933876 -0.8865297397478151 -0.6074244074053733
Ni 2.437490747981048 1.4544353458344146 9.356661426540395 1.1039280819987631 -0.1164771438538381 -1.080921336690945
Ni 6.235710375170329 2.1378436255690296 2.4438869193857067 1.1509553585908952 -0.02589255149604573 0.6052657091911576
Ni 3.886294761400117 6.949301501416366 10.452503198739922 0.467443266892324 0.3457334138846368 -0.31741708343844693
Ni 7.860838069192418 7.10221453753744 0.12155189947217646 1.0892756221929112 -0.0451457432987029 0.9936079588852564
Ni 7.727967830452381 3.776524850606984 8.019730174787226 0.7942975844842707 0.1910188238161549 1.1570403884427105
Ni 2.9304194369405168 8.604383868027055 12.66793782311378 1.5048049738247633 -0.47679308353834016 -0.38296530165290177
Ni 9.23018279572656 5.050301211304683 10.855654576024273 -1.0137168138199897 -1.069044639858017 -0.4957930216796106
Ni 8.745632653213262 2.2695182329534584 5.875948551050572 0.2776560014904251 0.5352741104933685 -0.014458855737807357
Ni 3.4753170185628353 2.8044035428421723 11.530164072768674 1.221545767214948 -0.1816651505153968 0.1358411502027467
Ni 1.1804714801756906 3.3253611164815866 12.956942913765193 -0.696903939624445 0.4732220783576302 -0.33600744484612455
Ni 3.1638322330346034 8.37671192783127 8.31178093096052 0.582490620278171 -0.28834073489778084 -1.0956301036560292
Ni 5.808514029898575 8.149432446782747 3.6233918548243063 -0.6488893594183792 -0.043715952830711814 -0.2291140880259796
Ni 3.1508993350888255 8.526749972524735 3.4159917986280752 -0.3950068061984681 0.24628802870210487 0.9805346706410661
Ni 3.258141078817047 4.167706223899882 9.253495781769539 0.5278009420447749 -0.2768677012611748 0.16179155151992136
Ni 7.098956213919485 6.265774571241883 11.622763439521304 -0.3045921637596367 -1.278934332436746 -1.728398903363462
Ni 0.45012143564592794 -0.40274431500602814 0.14989383877423978 0.0768117069434161 1.2521058993899918 -0.13860765720429033
Ni 4.731496606332193 0.3866690057950907 1.6780202347245399 -0.33794271419562444 -0.10652234663397138 -0.42185092297450577
Ni 5.640331594861985 5.600903140997652 0.4347196958551728 0.5930534833956819 0.7690709487069981 0.5895184736592298
Ni 8.541079294878209 8.93184995511002 11.231981826941198 -0.5158201155338149 0.5256589560011076 0.19471221350734208
Ni 0.12299669675151069 4.719111325801197 5.927685619007831 -0.15562296081536423 0.2810583423037547 -0.08768233110933285
Ni 8.196865241859815 8.938731680622451 2.1671849666530707 0.42167197419448027 1.215539670230184 0.9328525340737547
P 8.563860179333156 1.6167400206190061 3.4807521214045507 -0.3957441985851249 -0.08535291164520784 0.941001131322818
P 2.058457354339407 3.367710196558093 1.6895348035660311 -1.2846406387929037 0.07344073358865416 0.6230353744697528
P 4.5715740673019045 1.1387156522985322 8.291409563130614 0.06764495284248351 -0.7011683713277538 -0.2346689564059378
P 8.715367664089621 1.7126004490766662 12.680975681064057 -0.4663700884328033 -1.122136377476674 -0.8184739246201581
P 6.498219909903187 8.011067779981058 1.403882956884468 -1.9947284240974743 -0.5685940648017369 1.6477552242684654
P 1.8572535891914383 3.1125478621402314 5.8692968248523485 -1.5436468863926254 0.8554425314247075 0.5604593515097444
P 6.975778803421096 3.9893381049483394 5.95907687461454 0.3856343638446326 0.4112669768110724 -0.6772596830309562
P 2.1652518771788887 8.412234044136822 10.228872675065233 1.0446703247787106 2.7001614842388535 1.7071381942124726
