# total energy = -340862.8157909319 ev
CRYSTAL
PRIMVEC
9.39145337297770 0.00000000000000 0.00000000000000

0.00000000000000 9.39145337297770 0.00000000000000

0.00000000000000 0.00000000000000 13.74534131400925

PRIMCOORD
 96 1
Ni 9.013146912897103 3.4561487805951985 11.980851834930068 -1.9143107449703547 -0.08398971274909406 -0.7755269887449869
Ni 3.251433878501739 5.762370436136191 10.949319006817388 -0.1865960121581109 -0.659224165685484 -0.5998972457903926
Ni 2.0159693955125277 0.7823418808162556 10.567995944486846 -0.6786313665675022 0.18644585973349181 0.036659560204562666
Ni 4.840721369857364 6.699233656988437 7.739768193223724 0.2996178504734969 -0.8657917358695153 -0.01819261174862673
Ni 2.288734769235 3.3612011863129307 10.825047538312868 -0.7236655239890053 1.51429620114465 -0.6354430041054863
Ni 0.2770084323868369 6.036478787700638 3.3027309363384525 -0.6914218334639511 -1.2465939684328273 0.3727932462159063
Ni 5.708247489959266 7.613266254527114 9.562908510116939 0.17752978819078458 1.6922797890434018 1.1450870727355764
Ni 2.3211634579646407 3.9132308195386196 3.425765550424873 0.061191741017972034 -1.4127337696191153 2.4514291077613133
Ni 7.37137997971662 9.271872063726203 10.64417284077782 -0.19946309792876615 -0.39263933440755605 0.6599723567054182
Ni 4.646243152013922 5.633651175282307 13.37835457728895 1.276453732106737 -0.7260576783702657 -1.6179039452349877
Ni 1.8095452488929182 7.633439096517055 13.309270106636152 -0.8968329214460361 0.7134052797135778 -0.036639248489588515
Ni 5.782045531093792 8.957784294866048 6.924146757996128 -0.4156180546909165 1.6495439407377719 1.094407801213154
Ni 0.38916116937188583 7.485486139017269 11.093521017813087 2.0232373301704447 -0.4142060048347383 0.6848318389512593
Ni 5.256574928197505 7.438002950422693 1.0492892491324106 -0.4852281016795708 1.1966374340090422 0.5198778305429563
Ni -0.031304531752827304 4.179619396375072 5.278032521018092 0.9418583371167908 -2.6481724927660713 1.0164285563241977
Ni 2.624883062226614 4.097735313828376 13.205781924595202 -0.36525271486448707 -0.06126218924459127 -0.8266479757905182
Ni 7.080817801724622 3.9907948335027394 6.047509988911711 -0.7871812851544637 -0.9017200743350082 1.3838937054589715
Ni 8.996101424902808 2.724225856718981 3.375540057425707 0.8767150676502383 0.4026458108009646 -0.24152506009582278
Ni 2.840257263974908 1.8619871249040147 0.5578091336729004 0.22421665072436223 -0.014189147016188465 0.8911466696945362
Ni 3.5612391445930798 2.18809595416786 9.17032791254741 0.07758586610527929 0.5087094726309626 1.0942075122768897
Ni 6.324495881810291 1.4439547493657048 12.541497187541962 1.3804941928591192 0.9136211966479685 1.6736097234377239
Ni 1.1434751965406635 1.488094580535503 5.0640999073728965 2.1637146935936222 0.6798984062053839 2.315010230678226
Ni 4.5737786972679295 0.7507415182800562 4.9111413051893855 -0.8070194029263134 0.8388969683612004 -0.3541560907306933
Ni 8.45489074604044 6.157497056733408 5.522492993216595 -0.08029349484442946 2.005613189330778 0.30957007659020236
P 6.354050785787175 1.833981810744794 5.57241608141498 -0.05671056531816685 0.3108327453527098 0.09100753882782392
P 3.172376623440598 6.513076266893173 0.6634047578658742 -0.7841232150544302 0.43991523667538435 1.5047237269648666
P 3.790587829060663 8.371090806991907 6.201004843086668 0.7779376550690086 0.1650931050893286 0.9632748551193541
P 8.679261960184622 1.4224952782544305 11.477552575315835 0.07079841086980065 -1.2002403208689525 -0.11736751687859143
P 5.120342504591315 5.095126452103888 5.840217132848866 0.021042936713228277 0.19872082044610292 0.8352249188262519
P 8.097649248621726 7.0086350905818415 12.403136660586183 0.40139959709868933 1.0379319776136124 -1.2482243049473987
P 1.266146361378941 3.11693887378202 1.844830817759124 -0.027127195234095215 -0.8662954149788112 -1.2473056497878714
P 5.985990334005141 0.5219084246063499 8.97568064854204 -0.8730427610049739 -0.11731172393999152 0.6350275138346225
Ni 1.0434937832143505 5.577462109348499 0.7856148023402287 0.9075690769166176 -0.20183005549904595 -0.07371224208248596
Ni 5.900631413685503 7.458429361655526 12.064025364034126 0.7636713749579815 -1.1667594155026872 -0.6644918418423266
Ni 5.593080096419855 4.729216643159702 1.909736091630952 1.231941765737291 -0.07424574598845277 0.13522639943688325
Ni 4.3565262048315585 5.634055007780244 3.8797465314422794 -2.0468953359090167 0.09546660304044204 0.22790232710606556
Ni 9.103455129179823 9.003426758586306 12.973815842053783 2.382282373562323 0.5739185623384437 -1.3473580724267828
Ni 8.664470421016018 1.0943766779543433 1.6589119705812458 0.8258460487145132 -1.273523960054452 -0.05040287793258416
Ni 7.542858528084566 4.646496721256812 3.8988525043213937 -0.9295790055288055 -0.0950418567981976 -1.0860110925090265
Ni 3.3819375155092954 4.560273787220659 1.6827737754825698 -0.10756132942144701 0.4570814640420257 -1.4695556637041658
Ni 2.310109717265311 6.946839326944124 2.627903353653041 1.0635998146933618 -0.7577295555522497 0.2615020174383819
Ni 4.978935390139474 0.7375624916671673 11.042580835207106 -2.85376201530755 -1.0961088430646606 -1.7945878404857094
Ni 3.2161971451934233 3.69919020417886 6.079907685844999 -0.5709304262443973 0.771096206667143 0.20747594093091365
Ni 3.6766882817357027 9.258104192982602 8.792977435022149 1.2546947431630908 -0.895675153692509 -0.14023670816728107
Ni 6.720073292172646 4.03598650745786 13.196943627762456 3.1876619268923685 -0.4538033075113862 -0.23186131175381358
Ni 0.21010841380427153 2.6608805032636007 9.721708596340369 -0.5958436445463093 -2.1173659311257538 0.3478221780928655
Ni 7.327991464822052 1.6118457625194245 7.720867893174953 -0.1842503947440698 1.7226440031575558 -0.16828770076722632
Ni 4.974868890799789 3.9363056206416394 11.503173399446544 -0.4137771448274357 -0.06499851635857193 -1.2020462637294396
Ni 7.054446600464028 4.393509748479786 8.630755103165045 1.3512602356946664 -0.26616085636663195 -0.22213071472961096
Ni 4.93657054366991 0.8585647952290887 1.5024898003689213 2.5764595405018014 1.0819135254008851 -1.5245397332495292
Ni 8.426237421593834 1.2827786254218585 5.284561459449845 -1.275851322636048 0.3100408455790338 0.4317535268001984
Ni 0.6866204307705 7.000511483355911 7.510000649932699 -0.23750719718568128 -0.26153904132390443 0.6292631005470195
Ni 7.2242346872127055 8.929985592682515 0.19880955617014723 -3.0321358966661847 -0.19112089661165793 1.6113268062381025
Ni 6.243579118967955 7.104080431896451 5.7585011573187534 0.12580253501982205 -1.5916262424853813 -0.9557746900875669
Ni 1.4948000782919362 1.0244197412769334 3.026064352856846 1.1455763536671688 1.511671104816977 -2.092518018844138
Ni 7.351742450572779 4.9916326351908715 11.136956489974855 0.2516300097403085 -0.5259422915694812 0.9424401777621899
P 2.5115939593752787 2.0204866846173517 7.313414989937234 -0.4543095577238434 -0.5701796641213018 -0.28297098594543524
P 1.415808563404878 0.05939624728369972 0.9696074624174845 -1.0490368292775223 -0.28659881250600966 -1.06261636773417
P 7.763416812131951 4.941097224228174 1.8391546232997567 0.9551704808446647 0.12684460313109122 1.5920360763292905
P 4.728390195256948 8.904966760717336 12.907975179419292 -0.358576331285576 0.9135180954112009 1.1786376549975122
P 7.275512022997194 8.344203075792091 2.442822224122045 0.3543124138028995 0.13616485209075258 -1.155303865367578
P 9.031122154781995 3.639742303901238 7.883530684198412 -0.6612653644852289 -0.07389684728946629 -0.9517596553909028
P 7.771521636451 6.845477369962075 7.482097702615977 -0.22020315868959497 0.001953267071628894 0.8556021969310234
P 0.9148778283483109 4.978184073864244 12.116532041073963 1.8010505653919175 2.1899710561869896 -0.25414172041856875
Ni 4.856724406519777 3.4123470417492543 4.2939481331222575 0.7744581811608404 -1.456735372011046 -0.07046699567231089
Ni 2.4252019791771993 8.65151021526829 4.6789967850325995 -1.160354283307292 -0.08981840361572918 -0.7413691119163555
Ni 6.23660126906175 6.5799152410283765 3.205702195973796 3.269239173545228 -0.7062187892674676 -0.7711843955055752
Ni 3.113163509498986 8.116131628992399 11.267606633656083 0.7072989097055239 0.14041360006477754 -0.008039839585340993
Ni 8.059538730560654 6.696294132061597 9.854681246457401 -1.0800415051891528 1.354704485489525 -2.064160807857684
Ni 6.777220286357374 9.210743093282753 4.375870720628059 1.0478734050970406 -0.10523345261921876 0.0939095429659673
Ni 9.309907450159752 -0.24665713315820845 9.299698940270057 0.5894516249770364 0.3669948943665744 0.1730326716513794
Ni 6.606098613220164 2.3106262472045316 10.244320440809403 0.786260316002091 0.6885018316036787 -0.511457724800061
Ni 7.16936981621399 6.122297889238854 0.2850925955083183 -2.187382212413891 0.3904310139023276 -1.0097514014143385
Ni 3.123428368109324 6.300143843039379 6.4011094806862445 -1.9565382861809983 -1.032414647339809 -1.651559171395588
Ni 8.885122619597807 7.23295934745882 1.214307416678717 0.3720638242490495 1.2897509634362754 0.10295828343179687
Ni 3.277354289997195 9.040137950084763 2.150444678180022 -1.3904649309185861 -0.977067280917756 0.36405818033575366
Ni 9.029591347871213 3.7247161746298194 0.6967030951840947 -1.1136635641189723 -0.8821609212561581 -0.6430095035988346
Ni 1.7360289513616032 9.153915408514997 7.3804098621995475 1.3268059593070438 -0.8263715822006801 -0.9821662927072181
Ni 4.7117673226674714 4.184540517977832 8.449000426442632 -1.1712403340921764 0.6329765448428647 -0.22866028831801266
Ni 6.66835455807646 2.3971121419370154 2.73514436048877 -0.6519883100586771 0.22591049348701742 1.4116405365549367
Ni 0.4034126999676665 1.481473605860033 7.4786068993721875 -0.8043901928335825 2.808854099051266 0.30798422016032123
Ni 0.3668273539453121 4.934532598273346 9.750285850014109 0.6401494084422201 0.969326974850705 -0.22575854129018535
Ni 0.35048810324973445 8.393733601236669 3.0878225506808015 -0.13471629256968412 0.3241963111438094 -0.2091384162350011
Ni 4.659513275725182 1.9781594039615473 7.115234661147593 1.3768285710820738 -0.28608047810869436 -0.05995992549339995
Ni 4.8755542706677435 3.3414133939140447 0.016071594272526735 -2.620545217967106 -3.0373670631581366 1.6028331669447944
Ni 8.385431556395371 9.066030187219898 7.151522298095887 0.41032158217866754 -2.3902077990569865 -1.1918780649471858
Ni 4.858236430523678 8.021550301394306 3.8213420216418843 -2.8443160394033016 1.2862804883891719 0.19167702622544408
Ni 0.723685680063658 1.9241773295862283 13.273174994483387 0.7829276520844323 -1.2805286735070591 0.0562325972404838
P 3.181937123042908 1.9898329805879431 12.01639754705657 1.0699077591892605 -0.42471410345491367 1.263178612264386
P -0.2678761830614089 8.4239271240475 5.0937628130643455 -0.0031699130875493795 0.30735018612074805 0.8486298793782482
P 5.731519511584534 5.541079618720456 9.93877513799862 -1.7500031118967991 -0.20370027593856532 0.1401644601684489
P 1.699223845328744 5.221760810294007 4.9211206636151354 0.8760920893542589 2.1509476237359406 0.8866842630478085
P 1.847045322480366 8.050419629270044 9.359437036458987 -0.19716607436447334 0.12382175714436738 0.26619016694267056
P 3.8160480593375405 1.8607944103170861 3.0411150961404023 -0.2901669894732422 -0.34412673151914924 0.13353924154244742
P 2.5976948045167068 5.386900127589695 8.403915815056731 0.1566380323434399 0.07428919763187851 0.592199877146135
P 7.009771456448129 1.9876635548432147 0.767136178550932 -0.8184885799081775 0.13579769855932097 -1.716387480724883
