# total energy = -340870.73731688946 ev
CRYSTAL
PRIMVEC
9.19622002202560 0.00000000000000 0.00000000000000

0.00000000000000 9.19622002202560 0.00000000000000

0.00000000000000 0.00000000000000 13.45959757039828

PRIMCOORD
 96 1
Ni 7.827822344395381 0.26768632653590707 8.473153278705096 1.4033533568454797 0.1764715221295993 -1.6520014011393294
Ni 3.384034180113906 6.8521953795024 11.25426949050124 0.86458537426624 -1.5824494610821198 0.3821577181499418
Ni 1.876948473321308 6.925176580307289 7.435902444533691 1.8013981785393234 1.1752129455866793 -1.6518756741947422
Ni 7.896628461384063 8.855821781388142 1.4058141748339688 -0.04489094697541946 -0.058858979119737344 -0.4651542137478311
Ni 4.118085645518022 0.8387274379547277 5.096597464580925 -0.06686873679809129 -0.9013457217147252 1.2718563425440417
Ni 1.4289822115259745 6.408799638977231 12.550132741073197 0.9303163979154623 0.7971296546164272 -0.15219825140453144
Ni 6.329160374994074 3.83737103430718 5.413867049733228 2.419706579847052 -0.9497056010753515 -0.41011409415355177
Ni 0.6561420103765279 5.630652299346875 3.6769061939789904 0.7976834702373681 -0.5493503860807765 1.0113213170046194
Ni 3.7202295857370338 4.6108007131496205 7.979266612663401 -0.48956092472696977 -0.3723810983791522 0.5817100333584045
Ni 6.644259652259538 9.418860342285237 12.844144166578873 -0.8994605888768703 0.04762531518744701 0.023639236685494773
Ni 5.455160835768282 5.665055357841216 9.578885603304142 -2.1048755119682263 2.1091402007818516 0.4873490046773155
Ni 1.3155008584599044 2.8140708656626177 9.467466962352555 0.38337539260712683 0.08013305800716522 0.06684713953153648
Ni 1.1571879335788346 4.989740148679643 8.097145598066277 -1.5787702124583198 -1.9101704975497362 0.8991466571808773
Ni 6.594324178422522 4.086846086655345 10.592663086284206 1.5205218703393877 -2.4302835840319497 -1.4746629030237441
Ni 3.913414576325278 3.6340334169940616 10.849095078956072 -0.737557451479749 2.443552276116398 0.004913378141217345
Ni 8.432593351014829 3.8094880956932147 6.8175955219030655 -0.5266256907897512 1.1767116416193928 1.5750043176579844
Ni 3.079685283864182 7.886687347715958 9.159403712901584 1.7721544511828575 2.115073792657467 -0.4155815450260262
Ni 5.545145847093364 5.795972743760874 1.636619981245389 0.020451582986132522 0.03593605177497682 -1.4148451595351634
Ni 5.243509835702189 8.087505200787577 10.341735031198242 0.8244147155846253 0.23278022402365717 0.8713921127754283
Ni 0.4593263521877578 8.095993311717884 2.6231141191463263 1.690840485493714 -0.28863589754069646 0.6528771404215337
Ni 8.174538225537763 7.035862282536075 4.350316866007663 -1.3636704364335612 -0.40252342629048743 -1.4652680920724057
Ni 6.872371885874114 3.9912421849961173 0.05012491596612014 0.6086397678697131 1.1683157042462136 0.4203805090765663
Ni 5.921087314949195 8.140594978036395 5.026903912375802 1.0137836625021832 0.45713442876714816 0.9345453483951455
Ni 5.905913552181041 5.805352888017549 4.199044567051017 0.8190855900622281 0.5522161376643457 -1.6260162899294768
P 5.728546059751115 5.135472644792934 12.036245216459104 -0.8954915769267933 1.0782928979291622 0.586093507138081
P 6.025491999013951 1.4542902085792828 5.244814779300249 1.0240822162147136 0.5836645859816141 0.17935321455276856
P 4.134381347109033 4.0109956652542955 1.497730392329542 0.43526436816693426 0.25402756343820765 -0.24906661988850654
P 0.03700742795854781 6.948194718615585 0.765609213473932 0.3228894194069278 0.31153619917763764 -1.0098773854692413
P 2.6465985058014985 5.767896684529859 9.443307573159696 0.4657419679305011 0.6050767331088032 0.3506910150002283
P 2.335950198948026 0.8547610472797433 9.889236872256154 -0.5306888051155313 -0.476730862841837 1.6334550055957096
P 3.2345128414185056 8.68285008205105 6.853653899972114 0.5433579159427675 -1.9041723709847724 -0.2948155439888471
P 8.765027502715425 4.154511872381451 9.50248892644344 0.03568485499611918 1.017235111385893 -1.758179477060004
Ni 2.5282063713304623 4.986861731863624 5.259848759526539 -2.105907552777167 -0.6606470141749397 0.1505020946490311
Ni 6.317729473708732 3.5348613820293533 2.3913932888588874 0.6915305911276736 0.9287032877920717 -1.1063114946292754
Ni 0.6757759397765327 0.32636924470326584 13.36665866504315 -1.0642793572588896 -0.39277148911004617 0.8050283406382135
Ni 8.80759680444499 3.170415188997881 11.31073244119452 -0.9013290095441768 2.6793610025537338 1.22241762829694
Ni 6.83963334317434 0.8726384986865862 10.431712685547437 -0.8371319060409776 -0.2908038517262927 1.520365804377498
Ni 0.9265743281624776 7.366172107449131 9.956333411972956 0.6143139354363549 -1.3731560073264932 -0.0266836799387734
Ni 3.7404336807683265 7.138915122281487 5.001761447279964 2.1373511159984284 0.648296977250019 -0.06549113972427431
Ni 1.6635317990421918 7.623592693755892 4.899279692787827 -2.322722768831135 -0.3578595077242095 -0.5505194666882133
Ni 1.1094043751889398 -0.054831541290205614 8.162882016865863 0.4068480218077703 0.7677452879170391 -0.2225590605162812
Ni 2.0640731550221507 2.9774784963458427 7.213496465341927 0.1286268918424946 0.6173925743616787 -2.428041839185625
Ni 7.816428227989476 6.011964359600645 8.913429661453927 -0.7913976372286564 0.5888114202898763 -2.4624421710423654
Ni 3.755984488550719 5.604746548002699 3.117457837315039 -0.06618199514371181 0.6711430286102571 0.8682489391607563
Ni 1.3210461790351749 1.8639634108797123 11.72106133397093 2.8020548167412453 0.5452656744884415 0.973819720514736
Ni 4.539290907522248 3.2976448907538845 3.960297824790929 0.17113802573182785 0.16402172640202076 0.9324373009132071
Ni 9.208910642893146 4.835850605550987 -0.11370941931858554 -1.795377169156224 -0.3631354114111681 0.5667091890741982
Ni 2.4938676863751374 3.474285881814912 2.7804025851350493 -1.1463559121456708 -0.6026447266285427 0.7235246275357667
Ni 5.124529143160145 8.941861614393503 2.9241919199920314 -0.7026439274320158 0.13637054034365545 0.07451185516564587
Ni 4.594036004345774 1.8967847195582215 1.9740118150722359 -0.9741020276418451 0.6804424516343119 -1.0356184989890873
Ni 8.89171462749972 7.7134581542228 6.97535575397058 -0.8364685614253657 0.7004903714241226 -0.5228176298975705
Ni 7.961268690776398 5.678417465297051 1.9747383164411354 -0.6318059215735312 0.135549844214573 0.16729371228507317
Ni 2.7316175584024562 0.27562358389663033 0.8944399771074721 1.0975715436531164 -0.4247974071973394 0.6581468734609052
Ni 0.39205232542766616 1.4044742856004415 3.7593190378717694 0.6101348643580008 -1.0830522669910185 -1.0385984075530177
Ni 2.47015983157738 8.90302597792689 11.82833431900986 -0.06999288424936978 0.4810713991987199 -0.1540065082578638
Ni 2.050959345502522 5.52496014450179 1.6725974325796742 -1.5837458112960403 1.4367774408318805 -1.3709628563299163
P 8.009686788336596 7.887459830184155 9.946871421359532 -0.780071927803192 -0.5832681218741439 1.2622632995389682
P 5.292102661439718 2.9518118467180146 8.650429728558414 -0.6973731659513795 -1.1072831145139252 1.4573079566850646
P 4.5114723424473 8.613556565409814 12.44841795131734 0.6766919834529442 -0.3956696365934476 0.061232364447920344
P 6.63757400042169 7.507444436930571 2.5201615181973827 -0.034622475169875856 -1.0876177748745142 1.2061476874923225
P 2.860419813754432 7.861894338974781 2.638551813424447 0.15282174392114325 -0.5806350551266709 0.13132783571342543
P 1.9638067698941633 4.428246552718942 11.85353104180287 -0.4603544783663427 -1.1366497406015006 -0.5087069015278013
P 2.7189451674360834 2.638248338169084 4.836814369392261 -1.432406051237062 -0.4855212074399574 1.4559825530054216
P 8.921271278128112 8.819367965865135 4.908217498869263 1.077502797927699 2.2754445525704616 0.23426657876119653
Ni 5.677286330254333 2.540887958516695 12.182268313119954 0.22280331531660338 -0.7317195046417333 -0.047878311738517546
Ni 0.1397117309712852 0.37540624786000865 10.35722790279552 0.43956788063829455 0.6878040342057058 -0.022105316539471606
Ni 8.601224434578242 5.658057034528146 10.99293775188824 0.24749053365063828 0.31854116974056107 2.0745172113913433
Ni 4.619969344349528 2.923404723572059 6.5667355188440615 -1.3390647220697391 -1.3890847627416076 -0.09858895071950761
Ni 7.218922235059025 6.06728881827532 6.239223184012262 0.33341757263176125 0.7685379590216636 0.8421522420737045
Ni 7.544643146262196 2.5105312367605284 8.9313181483246 -0.42843731794277184 0.621456202908091 -1.1074692623828024
Ni 4.71029461580941 6.628065109086981 7.302194925508665 0.5753367828422091 1.7417359867920004 -0.18120029506383634
Ni 6.701404962466391 6.822316861178926 12.895317451608973 0.16079267794176177 0.03965592382872525 0.6885972195309624
Ni 8.861845305396105 7.84918516312897 12.08523807776052 -1.1681156724202657 0.4834383567689997 0.2351114432599951
Ni 3.4879330720863906 2.1695629930303264 13.148425010801637 1.214757797758837 -0.365086621600268 -0.8807871808370832
Ni 3.2199920102603756 1.2465476019534703 8.046887336912194 1.1788088904680536 0.2058072949792391 -0.1922904914397269
Ni 1.82168838818565 3.512404213132486 0.40272453857460094 -0.315833798111727 -0.39005717550267666 0.18121649301375242
Ni 5.380892164183066 0.40018638189338246 8.486720461863797 0.5665752345994952 -0.02651450135076079 -0.7649430425815537
Ni 3.392513094824353 7.222260462868018 0.4065198185106112 0.6695905965214726 0.4139342392305903 0.08410824060482934
Ni 8.099984471136901 1.5566625280550928 5.922235922809644 -0.034725833516959556 -1.0307303176588507 0.1463173671437222
Ni 3.8086972207852994 4.999074311837022 12.95719053844559 -0.20896460966129815 -0.5110944279233713 0.9504540492056017
Ni 0.08602327980961381 3.737251788696944 2.508007794031085 0.0007283935255922939 -1.4516088494177581 -1.021015404363932
Ni 8.543435388981225 2.2689649334915223 0.6258211538778131 -0.4922801234303457 -0.12221764588204113 -0.07856391374783245
Ni 4.37755698885345 1.5833959391866217 10.386811222461503 0.3127374185745904 -2.0183684321139173 -0.1658227841665015
Ni 1.8226815799304747 0.6333988390420304 5.709668979245546 -1.4164096758088058 1.1855510942878937 0.5713232908074419
Ni 0.5259796341073341 3.231965488517428 5.129856513324746 1.4407603367390283 0.9717728652880362 -1.1836510490517034
Ni 2.8823068170200115 0.9974863794989823 3.229024537406364 -1.5148204490792363 -1.0715031287008383 -0.34799958421099425
Ni 7.357187400646413 1.9618111901846544 3.62885594521317 -0.35763993551423573 -0.456452315098459 -0.45349477513203185
Ni 6.1300530188163185 4.642987482657825 7.628455654817589 0.32149896681730433 -0.8746787539465001 0.5360138168728705
P 4.5188569069944675 5.098706157794705 5.643945435153763 1.352493593881135 0.34409356428836874 1.3119830353615984
P 1.3769499995609968 1.7746773122639525 1.7375935556805708 -1.1064601043919977 -0.09322228709095558 -0.46087846919061276
P 6.743735162479609 8.067282713316565 7.431716325253653 -1.8336796642808486 -1.8587990850562957 -1.6616057569983127
P 6.426410400008149 1.1914438525554238 1.4592763989870967 0.9256642438554316 0.8151962823101508 -0.13441830171329108
P 8.31138717326679 1.35448363444427 11.999083292006915 -0.4144577158342282 -1.7879981030833336 1.5821766670367075
P 7.837211684871917 4.353665209658502 3.9926685186963238 0.44082206476036984 0.33558861214115104 -0.27578372416837665
P 0.2949236905157358 1.9382136900252107 7.610554293239113 -1.0944692505787088 -0.48630436546288514 0.130345160085182
P 0.4431612369187515 5.897949625782726 6.123120908286238 -0.4696736988847395 -1.3897059412653745 -1.1276706770313418
