# total energy = -340891.5386358763 ev
CRYSTAL
PRIMVEC
9.09720535460143 0.00000000000000 0.00000000000000

0.00000000000000 9.09720535460143 0.00000000000000

0.00000000000000 0.00000000000000 13.31467959606992

PRIMCOORD
 96 1
Ni 6.5526170610560355 1.9195922378883659 11.363946202538981 -1.0373884464053167 -0.010375943917685357 1.1642302213229303
Ni 4.682677370852342 0.17717262594957972 5.970741602095444 0.21614518657013743 -0.2073093334460623 -0.4119318640885809
Ni 2.8880625422882713 1.6476949595447528 4.815640307175099 0.13758384392546627 -1.815141496267345 1.0330489384896981
Ni 3.381431288822304 4.462142914829661 4.906433147346832 -0.07213229918987576 0.3176022028660595 -0.12405007110508959
Ni 5.388520449325394 4.812485396303527 2.5705855351677243 -0.21826403268535313 -0.45021841837360527 1.0466282198360297
Ni 7.52757367298602 6.214792334366727 2.371784303113288 0.28743082148900173 0.026956473984185835 0.025631841635491343
Ni 5.177829169666732 4.321527409230182 11.985901219823935 0.8890671614576882 0.6471122129132983 -0.8064550457824112
Ni 5.693713499843044 8.104700390669333 12.588244481466049 -1.1065855742262685 -0.06531990425373267 -0.17100124304364744
Ni 1.688441343033144 6.595674134744485 0.4676382104638015 1.400452638258917 1.0671813613970331 -0.8706614052569909
Ni 2.6756155019657872 1.574589816050063 0.128621749852416 0.5983509843491952 0.8516784363965848 0.7495467626311414
Ni 0.6469068325633534 -0.33852521151373577 4.773925071299676 0.05549829017762055 1.4102503410756293 -0.21364556007673524
Ni 8.687458278564591 2.453143341169044 1.5424120904334548 0.0834844909779014 0.024237532391126002 -0.20962949693880673
Ni 7.264382420317422 0.5356507383128553 4.985761689132303 -0.2478011229125216 0.774119823984815 -1.4032661964483124
Ni 1.0512366801483728 7.320594053176268 2.67595755689304 -0.1788431076855694 0.2801774823606981 -0.11250221836649012
Ni 7.781422095593762 3.8483271673163237 3.9325973111359303 1.021604958318815 0.27014683759757346 -0.3737147295889112
Ni 7.837460881547879 4.011258118036817 12.60177202606244 -0.9682401695444293 -0.3331740891623875 -0.1189330615934984
Ni 7.888932870334957 8.855374497905679 7.292397264691724 0.11331905784083064 -0.6314459671309512 -0.7117942264727161
Ni 6.794557241648528 0.8810334233415609 0.7040918664119866 0.1557797981082027 -0.108329060825407 -0.9215296528617678
Ni 1.6050927461319067 6.460198550259303 9.244249103046307 1.3380319099298505 0.49329776606158265 -0.2074558863262556
Ni 0.4715490991134241 4.848765051885509 1.330963013555641 -1.7814430755736352 -0.45169397447786724 0.6911510963010676
Ni 6.48928231628127 1.7788675658227424 6.890759280217716 -0.5422117181534661 0.33770694403573454 1.41732987363023
Ni 3.7362223037915534 4.331152252661911 0.7434090789144379 -0.2141854917406053 0.4587573090825518 -1.41673414902776
Ni 6.368380455026363 5.682651297940414 4.796892786055904 -1.5582355828400778 -0.3232362612233853 0.1093670151716181
Ni 5.226189914168694 2.7921416073694054 9.060279954858688 1.579028608326029 -0.3988053540089519 0.607405895462612
P 0.26150826964887264 5.631879793977763 12.537382005448277 -0.6619204815707246 -0.34382231290485304 0.3405153600188071
P 4.031917871754642 6.263607939144291 12.625032670836154 0.21976041472522154 -0.12608432792629898 -0.025915434314181175
P 2.389772207572229 8.645429189099005 1.3065624889312686 0.0866160946283476 -0.7135955413475129 0.7998655654903515
P 6.576424447881024 7.8763878239338645 5.839631766535486 -0.885043899230908 -2.3273636100372563 0.957620485047054
P 4.751852521565833 1.3992684714221821 12.648146850601124 0.23017852473475198 -0.516732085825123 0.5535402557924081
P 3.9431382431627218 6.06039456241652 8.375878989777496 0.1282659089586501 1.7062483354083517 -0.29055959692597055
P 4.7913434906935635 0.9587362945020311 3.816080302937824 0.08987496788527746 0.647543386913446 -0.28293576183212565
P 0.4279407347709473 5.462790035125623 3.6488481934512413 -0.19205446416952085 -0.0358666319896221 -0.2342223557868224
Ni 1.5714148913263641 1.0920922301029086 2.7018809537201265 0.7178340049088928 -0.24288105990308495 -0.8336609167732417
Ni 1.7996000971846633 6.632481428246166 4.974337418450293 0.8073880991196417 -0.3905408000073145 -0.3203391421812483
Ni 5.946861437626359 5.646526294852134 9.29670904835199 -0.7577426681783724 -0.09611452103708608 0.611288775456786
Ni 8.513510611969027 2.5799310943902345 10.23668508564711 1.2691330300756078 0.0460235179179659 0.2575494605485371
Ni 2.377663827035714 5.214509102291245 7.116963114715494 -0.49549914458827565 0.034040634524476865 -0.21327506411119396
Ni 0.03285000910394765 0.0058476837031341865 9.274473658639481 1.9132553071226466 0.13667264496510656 0.8327949692285206
Ni 1.4385774964396725 1.1625318923825725 11.259199158832343 -0.42003649547358624 0.25189226226275974 -0.09866145582865589
Ni 4.108325300850199 6.8023899355943875 1.503853584870707 0.1144338881715642 1.2064665042843221 0.02023663876184902
Ni 5.458241432369608 7.846230587661479 8.040095676005086 1.1891084726218488 -0.032890837190749804 0.15525812127677777
Ni 5.0376503299318305 2.7867196728842347 5.1929114266851295 0.637757768281592 -0.15712937015756162 -0.48572689569286015
Ni 0.8244560828211313 7.637649859681607 7.173071039431503 0.060866753578385495 -0.663217088894961 -0.14193620735689103
Ni 4.923780608537726 4.565869252077849 7.033133275642671 0.26365120257090074 -0.5560092861581908 -0.14745688006480412
Ni 8.14064344964737 6.959844368596638 9.339129317654596 -0.5645589755004148 0.7615299031349466 -0.24280546947014311
Ni 4.179429059132242 0.6434735472031125 10.495842637391673 0.9045372320688293 -1.245975875232854 -0.16166633879596676
Ni 8.120747861192557 7.123193790770684 4.391367565666602 0.8329744322291782 0.7342466419389613 0.7805000164795461
Ni 6.994268194254167 5.876449066963232 7.135470469609172 0.2756009187336092 1.8738392672188695 -1.0563829852299484
Ni 2.5383659624057606 5.291234933579723 2.4868357515034063 -0.7276594756397468 -0.151261598522875 1.777748143220551
Ni 2.6663454495490266 4.906532306886913 11.551936315562921 -0.54933753056497 0.978299096442328 -0.23445298374038975
Ni 1.5241185198693095 3.128874669397271 3.7689194798428987 -2.109054068825948 2.113371722364696 -0.42232811972124046
Ni 3.872316498251552 2.9017538365838793 2.911574269934118 -0.11952672931343933 -0.32514479110000777 -0.8148119023875386
Ni 0.8958509516795586 3.3388381726149703 7.915696848951355 -0.5923446302541153 0.411814107563794 1.0892463116168725
Ni 3.459212395950178 2.6015369574813105 7.219006468943958 0.24128106240581673 0.6534466397717585 -1.466306817749565
Ni 4.038640706628033 6.715520720159994 5.978157644028852 0.8571327746429367 0.7447781375979045 0.17879862760087917
Ni 0.6718540992389987 7.412330273559599 11.443048223907203 0.4182110122290733 0.33956713717292486 -0.13236656139058495
P -0.0658719553920727 5.667104173720351 7.945455627622314 1.1667154496386294 -0.38232792517921893 -0.03177086465369367
P 8.470426246664044 1.7405228445895273 8.20782085403042 -0.30184108337706084 -0.08085708065738333 -1.4692227058447793
P 1.6005441433758907 3.247010980176519 10.035127400322528 1.2407879032740114 -0.23290055165160534 1.6559714415306706
P 4.152028276130001 6.2234073879866205 3.793738475920825 0.02029680257582311 -0.2278655603308592 0.01299975469377761
P 6.7605609846500645 3.9151552390077113 10.367289116580597 -0.3853921659268395 0.6241748873908347 0.9957198630219367
P 6.255711564759848 8.076044193306432 10.27568389595664 -1.2032755081508504 -2.1669769092846614 0.2572666392007957
P 2.5556779444951574 8.517604354449443 5.903529628331449 -0.6663620622818459 0.25528766109755385 -0.34920208915952766
P 7.294939933632338 4.23923408816834 1.5606401611179133 0.17842067543617013 -0.7876011463007017 0.0988010667303137
Ni 5.644270187885151 3.047554749325217 0.7685064494810319 0.04116053339870976 -0.8000031195094803 -0.6630581947195935
Ni 1.300709346904827 0.9871923533436674 6.879775314282488 0.007967848696824986 -0.01704332863553194 0.06863662733179147
Ni 6.757931892257087 0.6995751038752628 9.221879984412771 -0.9235507970568546 0.925801026543612 -0.01166946591812829
Ni 2.46897247875998 1.4325369519796831 8.923045880548031 -0.5335301312190681 -0.2305636759883126 1.614537085645284
Ni 6.421762856970967 2.145994391466307 2.967190035831926 0.09120191422681713 -0.516014233822492 -0.35885658153015615
Ni 4.140301978224992 7.113104989857842 10.506920304543675 -0.049515847341940526 0.13440673174906528 -0.43760072960959473
Ni 8.043194184202484 7.403524178623952 0.16313927672671913 0.8160429465811624 -0.15039590808847 0.24905247882111944
Ni 7.477366195765116 3.9612234877206416 8.269787379096178 0.635482341983854 -1.4086452013720385 0.11157970655222073
Ni 2.9464029212369325 8.403452619684463 12.481633420349993 0.689075958939594 -0.4846439470413266 -0.616235320828784
Ni 9.288064883674458 5.061767021744228 10.4974137247836 -0.355233125844956 -1.490634338751336 -0.3867054854216243
Ni 8.659357010737924 2.337536053522141 5.9649503210664845 0.2648801898819954 0.9996711343602009 -0.8014966733358713
Ni 3.6985962617937886 2.7988735394483095 11.256762927196222 -1.2728151069128855 -0.7363248646242286 -0.22605190416088808
Ni 1.0649734604715413 3.3372370644448526 12.646868693226686 0.06577987460928672 -0.20895663924149818 -0.31136059283172185
Ni 3.1662914756682587 8.304283982397802 8.015171152343221 -0.7821640344455304 -0.42281482954967176 0.7199075996084698
Ni 5.664375012066741 7.93309070589036 3.712798819039173 0.2953793869121171 0.13406374658734976 -0.17911513040003346
Ni 3.200405996338379 8.384976195289527 3.5969340804762795 -0.05458734832757696 -0.3197375040415074 0.25435255087779424
Ni 3.5245212343210564 4.152847024626084 9.140181620591417 -2.058807513965571 0.6704945963929808 0.860752373673395
Ni 7.223617842418006 6.272641464217739 11.41371610417476 -0.3259662585600386 -0.7379289758865549 0.6485121785846186
Ni 0.6569519668897392 9.257862161374511 0.23824398599295313 -0.5840692776192006 -0.39326154137258723 -0.9001383316701853
Ni 4.428364990763486 0.2630593431886741 1.5811843803257353 0.9326645864326648 0.5204722695938456 -0.05978329070621961
Ni 5.993366352203868 5.731858082554995 0.4326194275657854 0.556061479552365 0.7640668106241874 -0.6155910023765657
Ni 7.852926130918334 8.766895077095656 11.436510972026259 0.5349408955236657 1.4348917937733934 0.5444609191989591
Ni 0.2523018976706962 5.02614236495911 5.873397864234497 -1.088911553985273 -0.8842208891089803 -0.3759222787631913
Ni 8.57762771641783 9.02545585215863 2.2544812963589425 -1.7044218237225741 -0.4931476136369636 0.6970150112810125
P 8.75048371835195 1.5732707212508188 3.736525240735104 -0.03150012749081027 0.277311987887445 -0.10330229703477693
P 1.9805708064355163 3.3150216885844705 1.450980626434777 0.2966803651117278 -1.43737650786846 0.362507290908866
P 4.618778599335828 0.9997919829778317 8.104965119349732 0.33614936974062753 -1.0860632859032004 0.1348430479555355
P 8.496134949441046 1.613407591969904 12.540844401866158 -0.1089623235340317 0.5634140632626942 -0.3030055359988072
P 6.376549745576168 7.930843696128888 1.480286364271237 -0.02720664232177895 -0.02586015559621353 0.2202083008959175
P 1.7449804752904232 3.2368766932361153 5.9650694944586915 0.4901260532018204 0.05080037048131896 -0.4110116662671567
P 6.816290465616772 3.7840281187572815 6.003695319342229 0.11441871866291262 0.8023909030153665 -0.282908508138616
P 2.1530447257381318 8.442725255879907 10.165478528942781 0.5503492596589361 0.6855928854869999 -0.13330192872066074
