# total energy = -340879.000273196 ev
CRYSTAL
PRIMVEC
9.18602512278265 0.00000000000000 0.00000000000000
0.00000000000000 9.18602512278265 0.00000000000000
0.00000000000000 0.00000000000000 13.44467630484193
PRIMCOORD
 96 1
Ni 7.095791142652152 8.098583590222072 11.455254592301426 0.29818960266740263 -0.021444285916705004 0.3400762155988595
Ni 2.1430629491895017 1.6581510477346313 12.34694573875488 -0.067072111058149 0.3565027365859989 0.13944815082771467
Ni 7.452732526202047 7.490156393113603 8.780771814365325 -1.1297653547768414 1.640146558683272 -1.8500951295243944
Ni 9.17299947674864 4.985972418880646 4.64014796310109 -0.30605769256156967 -1.3250331836773372 -0.7124776256929859
Ni 8.024764691228146 3.3490410894979274 10.687697879604137 -0.2119632872783059 -0.5287010852615411 0.14025316322751327
Ni 2.523557301507494 4.52908708049577 7.018093903793215 0.2965263560323667 0.24907201920514527 0.2459494144157635
Ni 7.239974995142029 8.891456988537488 5.959581782800267 1.1312982464816 0.793122333229247 1.3206903333276094
Ni 5.730481394199172 7.2249190997399575 5.588279885960525 -2.6859237433729164 -0.6847876159768852 0.5213708701487151
Ni 2.965809301652286 3.9504869074083646 11.261032623012182 0.27886004910085527 -0.36782356091545687 0.8338887165133316
Ni 1.6944174754633543 8.538612572253806 10.930455131960118 0.18900847825434544 0.5547957254660639 0.28428096300611044
Ni 0.4209964562943633 0.5896426940531335 5.89499300198816 0.4985654422184252 -1.0708824643977042 -1.8442368709714045
Ni 8.47336423482799 4.74009008073102 12.445683568473147 0.6643859123920816 1.3232940894990435 1.2895632729055015
Ni 2.770330684107396 2.5561309470814684 2.644231359547999 -1.21893892571972 -0.08595017890957456 0.7098851823754612
Ni 6.226986059532879 5.484112196710735 7.512226737404643 0.206336942230464 -0.9765831421924859 -0.023735138833410732
Ni 0.36791317212111824 2.556884201152835 3.9345574210040133 0.3432787816965572 -0.6005017121436109 -0.762982319310757
Ni 8.279098172617497 4.219995702528173 1.9348901633370326 0.17174249208504616 0.03317982918607834 0.23491038299278255
Ni 2.2528083929775087 7.762522042089447 3.692352248766192 0.19753117101337594 -0.28207984158973354 1.8155850115626666
Ni 3.2555089802948225 6.477231759681276 10.732307055474507 1.9716273193036369 -0.6468008523204668 1.6114229654963346
Ni 8.292151514512764 3.121833940703035 8.203834311850082 0.6111116264489733 -0.03595070706299614 0.36459862622025596
Ni 3.025095908683993 6.954574376321438 1.5744525785729648 0.7489410107263423 0.2350070564716469 -0.5626357903357729
Ni 3.535140775251777 8.174873530011089 9.299776729972269 1.6541300174465579 0.10002156940097612 -0.7667726395911245
Ni 4.4913784468011375 3.8230583649937637 8.193777451394814 1.5942762785137186 0.05327608571532114 -0.44081949365720857
Ni 6.875519442928989 1.6067827944775341 11.997236512892627 -0.5512434893384313 -1.3330033463670077 -2.0996952533188677
Ni 5.658766094989916 1.5309154118505022 4.968668703097315 0.5799233737716271 0.13906788467016049 -0.6408952854693092
P 8.221189469374874 0.6534350464751489 4.1328800319695755 -0.32919864945440724 0.9500118194618608 0.47989100573737353
P 2.9415581949643856 4.9349532345834515 9.135993573986442 -0.3555185182958587 0.7010002211810056 1.3224574525303612
P 3.0203283615737573 6.1460755490377945 13.018439592289779 -0.23309878370534048 -0.33194201652749933 -0.18416760522227638
P 0.8895673374132089 3.5102558328208984 12.161274121778172 1.4279719267251085 -1.147577700367914 -0.8878721127083224
P 5.251329130582677 8.439293267136543 1.8556340559913769 0.45471604913364266 -0.24364647731419975 -0.9288899498815808
P 5.569854556492878 8.450775798712254 7.53747544643584 0.01681887132955168 0.12729274641210336 0.3183953881913162
P 1.335914467619162 4.330108587326603 2.637294073271218 -0.9984745429489384 -0.47766340195843543 0.3709423090500966
P 9.10719079178193 7.513351106896537 11.583825876258441 0.8879626155395997 0.31481409859796106 -0.2680776137733705
Ni 0.5719632698366441 1.8100511614433858 10.323804512137041 1.6396415940223956 -0.8313217271171037 -0.09064012818607615
Ni 5.474283149681927 6.46467446315008 9.61389837537255 -0.6216554634030906 0.6278410233885123 -0.1400389903341782
Ni 8.849219644389397 0.411047990937168 8.100054272866288 0.4739967517401256 0.03847347348484987 0.9011086660032545
Ni 6.7476867154029225 9.124497263372842 0.2412544186233528 0.22166688771931498 -0.7525806643614587 1.4732562524842046
Ni 7.092171848699488 6.925004561007669 2.0494389797337913 -1.17541477718484 -0.1155507753848268 0.3230511417957727
Ni 5.369691066065098 7.196571025785844 -0.057178414234406304 -0.39633426676064004 -1.6189275014034956 0.29214391069395496
Ni 1.2126196365718167 6.599111942838493 5.808315504834492 0.03849018565539823 -0.3746881492457741 -0.10388413768017593
Ni 2.762338842130702 2.717942782046376 9.30543715873783 -0.23399944114273893 -0.6526161734506631 -0.20303153200631485
Ni 4.500013310546072 2.274946713855478 0.7723389574479427 0.3883417354734667 0.47599475600676083 0.017775321705550032
Ni 0.8206840897917866 2.454708042179536 0.8521287728612374 -1.671580608822837 0.07312320234823536 0.5328806705605275
Ni 9.153313824615243 0.5666509914284575 12.486246300216237 -0.7035872651818915 -0.9436565666677942 -0.027770485245048947
Ni 3.9496234210338717 2.6629919789376575 6.153628299007034 -1.0115948823809804 -0.35607387657869644 -0.20360103135653967
Ni 5.590697647809106 2.4539180440071267 9.814156481860513 1.0607314920066313 0.9637068004504499 1.1612814231072515
Ni 4.562009795029645 4.831307311568461 5.104983806348989 0.7606778395472964 0.008857707500946036 0.22203429836106275
Ni 6.7516275202397065 3.3709038296180798 0.003284004030653105 -1.5065186140817604 1.2735805243240002 0.4534176420371933
Ni 4.6105579385317474 6.881563847550442 3.3991499386918003 0.707341332907685 0.3038136337223994 0.25173722474213417
Ni 8.569505175205096 6.04994379468595 9.9543710528353 -0.4825135309618851 -1.1810123258772758 2.0412322240859684
Ni 5.713744456174417 4.833025098292187 2.19866136707909 0.9458417472445712 -0.2306094416245835 -0.9333096762158314
Ni 7.977842474197164 2.3758000851912553 5.739384489881714 0.30708844781892924 0.46533753340323086 0.29343640425313333
Ni 5.8503590238495855 9.232690268891812 9.785680722155279 1.1350962800714515 0.9276709898728153 -2.331092223841753
Ni 6.762127147112536 1.5686883477219584 7.59925422212074 -1.7848094209427068 -0.8877073049956841 0.41050361628248655
Ni 1.53330377841825 0.5215678166546412 2.583770778487992 -0.44641781368059247 0.041431527671909295 0.2588188141792639
Ni 1.2791999476604143 5.783108132916967 11.538060179807767 -0.501784206266039 -0.048184273014710566 1.3644175990122307
Ni 6.483634419287892 5.53528754343736 11.588611795419197 -0.4086300534088575 0.9340527250294429 0.6085952877850228
P 5.965074107303561 3.3204449928617787 6.3480523608520105 1.0864265827798902 0.6479053982385552 0.4647621205157351
P 0.8918877273940284 7.650480091986298 1.973637736488635 -0.16515866821994138 -1.1276297964910773 -0.2841647491432203
P 6.963429704672626 5.5051757526332175 0.3380337877560683 -1.3752635405877993 -0.05549854728793668 0.9138669941101875
P 0.08010948909236253 7.459236232086529 7.579879976243675 0.465597729043153 0.5654840584178454 -0.5509935781111543
P 7.755568220967197 1.2332881934080948 9.941988290784053 -0.9088875386177251 -0.25063730680973606 -0.9580814838438726
P 6.805310651862467 4.704962720134606 9.694256805749474 -1.0423625025811403 -0.2092417745820848 -2.659718545732458
P 0.8089452681113067 3.603953290478693 6.4679648973984145 -2.865704532381406 -1.0157978647187347 -0.7771071887479133
P 2.644583184315479 1.218287414157587 0.9423557501755897 0.37320153739791856 -0.9149088051111404 -1.16905978150109
Ni -0.24547172282047963 5.293989031892756 7.684896454227543 0.6913102475867513 -0.0796193515955403 -0.4288844327825194
Ni 8.42906003499627 7.089673249828613 0.13143548663326085 0.36929423192371236 1.3726420438045521 -0.40365136924734357
Ni 0.9181322015634715 5.642975317566999 0.844619197210723 0.5591262345206177 0.2675682782371198 0.37546205129732113
Ni 4.555083531983177 0.14438686364813585 12.828412880737035 -1.129164745078365 1.5400018334408703 1.4754018380722977
Ni 1.9278894934859538 1.660153601241435 7.22055757494624 0.40660530966934494 0.5228916776686157 -0.0022512579280219293
Ni 1.7999373476315004 8.410182753085802 13.50894210871823 0.0234623447879983 0.4069025291947896 -0.2558461047041852
Ni 3.66567419420445 0.9792486648270834 10.790038468429598 1.0300538604171163 0.32257188816650895 -0.382160032142787
Ni 6.533284885821263 1.6555238445101088 2.350196795585 -0.05942590736680088 0.13783375515274326 0.019742215623933745
Ni 0.8914982399229803 4.127657776608943 9.623483992731954 0.5095563940122902 0.766915592926892 -0.052868051643625076
Ni 3.9493110961750117 0.2463682788859111 6.136741628770532 0.5672992572497133 -0.8799482298755554 -0.7138176846606481
Ni 8.426506319973832 9.022991684243562 2.1623205325457566 -0.6806931341925373 0.9302354081658819 -1.473934766608468
Ni 6.415813994789118 8.596309996915435 3.7804012194912637 -0.28996567209571356 0.5373798439824615 -1.089143467490421
Ni 4.327545686278905 1.2003471068236977 8.305959947684448 -0.6030039097401745 -0.3019737523001832 -1.3083343828654177
Ni 7.801011487931228 6.493996255781813 6.013172135567895 1.1892149162927261 0.1884351222493787 -0.40785666557794276
Ni 4.64195577287237 4.698909129487892 12.935096622305696 0.4743929587372797 -0.04329454902257705 0.5641103179987704
Ni 3.695005172861444 6.423447581780649 7.624113443680889 1.990822661285165 0.011638355569876732 -0.1684504515973357
Ni 6.75637669529942 3.697016912393509 4.1193012494294035 -0.2818975503755984 -1.0584840907333513 0.10407774174822074
Ni 1.4844157519815062 6.75637669529942 9.273049070874118 -0.16604492747963662 -0.21595826737031193 -1.5822064918333782
Ni 8.705338930733117 7.42303410653463 3.8638388055355297 0.7495107671868834 -0.10084072286816181 0.6023727039140787
Ni 4.106704452989587 0.48403922905511626 3.235232666737171 0.16506713694739958 0.010539723189059267 0.02858269673369916
Ni 2.306160827690889 3.9245547580977815 4.764726081877337 -0.593449947503152 -0.03566762860493857 -0.8246869954094056
Ni 3.5372627470869684 4.879194061251803 2.7747528366678336 -1.666191319486466 -0.2770317376428648 0.4060093279565588
Ni 2.5808046109313545 3.9693825613693536 0.6449049034181853 0.8182782636695843 0.4298943621042725 -1.1214421796231266
Ni 2.254810946484313 8.12378085751181 7.183678439332637 -1.1155173294982594 1.7837912640908378 0.6895708962981415
P 4.94496600211747 8.1184254047849 11.196188470697832 -1.8350613751197238 -2.3295238509133687 0.7242838742992945
P 3.4128931510841363 6.6586373865269755 5.355444459488483 -0.49431232336902614 0.3362041342379629 0.11824811971133183
P 7.175810608696961 5.710474231181654 3.895434139419254 0.11193863255353625 1.3314581133670749 0.2977484013649259
P 4.919640130474083 2.6132220940758994 11.988187359408442 -0.9609672900321 0.41664726728637924 0.2849247672376964
P 2.238854820606706 0.5771331648532918 9.113124045497731 -1.661016974374378 0.9408931449900442 -0.5033731480197138
P 4.6604013115955905 3.0283661336767547 3.3044190531921918 2.569693939643194 -0.01870323283645811 0.6076820319421341
P 7.872148067549067 1.711420808220666 0.4639108105041594 1.7786631988356527 -0.43972060416607495 1.7470466003716365
P 2.4322757684932284 0.8518192038099563 4.622938863377942 -0.9054476596982406 0.335456457438661 0.7515625075095895
