# total energy = -340896.96017063607 ev
CRYSTAL
PRIMVEC
9.05685057653377 0.00000000000000 0.00000000000000
0.00000000000000 9.05685057653377 0.00000000000000
0.00000000000000 0.00000000000000 13.25561629924953
PRIMCOORD
 96 1
Ni 6.48222335099053 2.1141406024396483 11.51970063395642 -0.5970299515449267 -0.39172453590277057 -0.04814673490855579
Ni 4.4944258124416985 0.36437792468634134 6.035454352001599 -0.08203078925051033 0.08807725255490638 -0.4320111513369592
Ni 2.8176495754752673 1.8936334643357278 4.920219145769617 -0.1717571473730655 -0.9563344192457787 -0.4213978945974872
Ni 3.491307169400913 4.366624595627124 5.060199109395229 0.4850648366288292 0.36743506722778657 -0.6930542268610516
Ni 5.12385880558033 4.566771933901184 2.4956875985394533 0.05690725471000521 0.45116149901316493 0.5773563843753993
Ni 7.249583119755917 6.181155528061606 2.614020783885105 0.48878162335878395 -0.7166165875620238 -0.03698454764414921
Ni 5.046160085500093 4.453117517502199 11.576872002473321 0.3325644806028466 0.49086010315436757 -0.17494248707958257
Ni 5.739969171695061 7.903261301570943 12.325667944854693 -0.4937873041034916 0.02252903434045152 0.5358965745687158
Ni 1.9545679542179792 6.437491566577861 0.5725541608915272 -0.11927090454889135 -0.2637278214451071 -1.6570549044028364
Ni 2.6234797585035685 1.5304628178154542 0.431337937178382 0.716970628467333 -0.2950973368953241 0.028979675061801706
Ni 0.5070142625513202 0.126592127278414 4.613670116943437 0.7567661631977161 -0.446386960442657 0.5830688613791443
Ni 8.51046878368534 2.3000958560458296 1.376913880833483 0.4948357999726639 0.7973679958794784 0.2673502486890427
Ni 6.692124917207988 0.6505843616985316 4.763272984180804 0.08149908511675641 0.0872321309457917 -0.6324484402535366
Ni 0.6915086461786061 7.241105907727114 2.4338899908085425 0.11545975833291729 0.12456146352386933 0.6393683073018214
Ni 7.566120043267315 3.715953288164195 3.8649267042947226 0.15433406680061162 0.7753385268832648 -0.30922014944995135
Ni 7.501227709734864 4.11468112958306 12.461538815427454 1.4697621232880171 -0.8587898506303855 0.8125866126014458
Ni 8.017404787894668 8.666654169835672 6.658177124635807 -0.31660538617042894 1.286768997989816 0.8898811727185514
Ni 6.947500929575683 0.7736289206524988 0.2668510418981356 -0.9703019371694644 -0.8297536112990356 0.4829817288475553
Ni 1.902192188018654 6.6423756376415195 9.315516824262115 -0.0793766394571149 -0.3687306461107585 -0.2738741658504896
Ni 0.22044555152080506 4.822365310679873 1.3317917461660687 -0.8310011105528913 -0.21004318743745762 -0.32233817488914807
Ni 6.542714055200334 1.85386483397411 6.9740447468983495 -0.6878184323834089 0.2054799935468074 -0.01074129767690408
Ni 3.2878178533078057 4.190414513113884 0.40151825704501204 0.1293339452118482 0.29442525052896384 0.022171393890716654
Ni 5.939437246184762 5.556404926609825 4.74556321879499 -0.22937274100400498 0.2941617124549321 0.12092849475697237
Ni 5.1284506287625975 2.749080160656818 9.601996778158139 -0.010803004152774943 -0.024969268350827967 -0.9675711685018626
P 0.20008212895076136 5.590820958350693 12.2687220919142 0.7192249717191485 0.19280265518945505 0.7152428471429488
P 4.031611697181156 6.18519488336593 12.686896802636745 -0.5206033958550711 -0.16193347641442435 0.2094847438308263
P 2.363765514766434 8.4393453370377 1.4307314976257415 0.37100787218070946 0.022183735185890827 0.3682331376490497
P 6.419305410857951 7.609085741840651 5.591285574779194 -0.7413673121441425 0.6123282724648939 0.1536226425558838
P 4.680852022271702 1.221361568530175 12.784829432325475 0.34297153486878357 -1.5334707171905717 -0.8176953945829207
P 4.120441286474426 6.242361723457602 8.206299895159555 -0.7914516303950434 0.16461745100449068 0.3373043092806772
P 4.59130694179224 1.1995798431783893 3.7367315144852213 1.0017794389524555 -0.8568669225760598 0.3776400327852464
P 0.22361001507087322 5.43377517140684 3.569869913014855 0.15281428772197553 0.15321075182944582 0.636820086958671
Ni 1.4046631649521262 1.052569046542137 2.573246843122635 -0.3715084659662118 0.7509187032780035 0.0360671780362024
Ni 1.9473043601505646 6.480846709720897 4.923533047352245 -0.2226747601585391 -0.14209253042909722 -1.039258666844836
Ni 6.09419164996271 5.799699100466382 9.113700308448623 0.2546307442398454 -0.6233169102659136 -0.34102289578284495
Ni 8.523854808662447 2.1607833822989813 10.207301415991285 1.0709331151299815 1.1243094738685926 0.02268252919918029
Ni 2.3887080809281045 5.145441280222037 7.10258409702526 -0.4557691729885054 1.3545293933642413 0.9531074276680489
Ni 0.683976969337631 0.0593268989259346 9.42620149939588 -0.04322050125153202 -0.07042457247014967 -0.5751007555720031
Ni 1.5044696570006415 1.0544347577365103 11.519766748964765 0.01917914403161213 -0.0020175446506610416 -0.1870816935452778
Ni 4.093823202978003 6.767840187037897 1.6771539076305348 0.2844108037157554 0.32135755614343364 0.06558987008566769
Ni 5.751878930047494 7.953064922240161 7.79879596564677 -0.17514277601584674 0.24816981910584998 0.19713239291306048
Ni 5.384071176092661 2.923895488199508 4.855161071873783 -0.8053908661839548 -0.26286701610670854 -0.17541762694378824
Ni 0.9095885483597494 7.534067849496018 7.04622150525427 0.03708944865312967 -1.22239834502323 0.5291083480022888
Ni 5.15338413807381 4.560495536533706 7.183536943475101 -0.4389122493321667 -0.19568923270863073 -0.18404084983642496
Ni 8.13020786035059 7.403513350142175 8.983901150422986 0.6153788863657595 -0.2787582334156683 -0.16513964205654785
Ni 4.7616662989095335 0.33546211822869204 10.567496887136064 -0.5016548797770264 -0.22366463487563418 -0.06667718961257549
Ni 8.434345955584817 7.149052079670751 4.817050750831047 -0.2099213171476127 -0.7868300724626319 -0.6738159474567299
Ni 7.252363572846561 6.169617100577958 6.955420239616266 0.6864961140275596 -0.7817027785383958 -0.33322679677719386
Ni 2.4137321587438985 4.905190208119408 2.6694822190355123 -0.3685367849323976 0.9908589353852097 0.3424863677022489
Ni 2.455185363290727 5.272916450420118 11.43991521553063 -1.4895917564194345 -0.22173142240866328 0.2612719037054468
Ni 0.9411607290567661 3.2254976653054612 3.827055484104082 0.08740130953380432 0.40823590329423237 0.16130612724307059
Ni 3.66193823203195 2.7450770327543275 2.511011789514597 -0.2095737040002068 -0.6897362182314122 0.10437958925935573
Ni 1.0973551720575552 3.211242182684376 8.289333100159626 -0.47493803260747236 0.20391650571442946 -0.2448474396008364
Ni 3.469054487825305 2.8667286481078356 7.244022213574629 0.6687524168908935 -1.104567515354975 0.25887846377260576
Ni 4.037562047932142 6.904345037142726 6.142374094399924 0.564665419171292 -0.11580788570095538 -0.9998696235242521
Ni 0.813054296381754 7.589695025009809 11.520204194841893 0.44159493837065233 -0.43188388173047554 0.07700711078367384
P 0.21012074199854486 5.562482073267225 8.08881533670183 0.3110415189294063 0.7312698186988246 -0.29099257069833107
P 8.541597178709909 1.5297292129283464 8.072974905250572 0.17035975280490662 -0.265481313801104 -0.7514079842095963
P 1.7206566774360368 3.281632024444908 10.422347273268958 0.8553461150561592 -0.589522844534604 -0.8702266317124173
P 3.8925528152471354 6.198589965193493 3.834412363731215 0.23608614846843853 -0.6494035800506365 -0.11174888514023333
P 6.791686874294135 4.062540841495646 10.305512090989078 0.3557884841277937 -0.5920211854764256 -0.33273674451465274
P 6.366793791901753 7.724814176994546 10.166050179209673 -1.0985218233815275 1.2757626195769836 -0.44941083487064537
P 2.366935412426777 8.456272590543932 5.753069905882737 0.40793714110689094 1.1079477446811177 0.4436281667505973
P 7.0063251733011915 4.102291358156347 1.5083432719415804 0.3618408609694607 -0.26498637644255657 0.2871279455366023
Ni 5.405997811051776 2.9616625546098807 0.43539359481352946 -0.09377841670474173 0.815332550777699 -0.12480211877976569
Ni 1.4168355719678434 0.949185098562663 7.12802207290699 0.319556755489269 0.3560479084367675 -0.4349650917589606
Ni 6.81897516472446 0.8330454823979687 9.170818241547819 -0.16440764898652976 -1.1118079989674723 0.4766141347583146
Ni 2.860932263814637 1.5051217502336263 9.279183457279261 0.014569413173742649 0.09083270381285646 0.29751108854313923
Ni 6.243439488662118 2.0492935531594876 2.4995847612915836 0.730391015638297 -0.2159947770352022 0.6691285692833896
Ni 4.299305026171897 6.596049847548221 10.468238334540265 -0.5154763590411509 1.4289263202185778 0.12376262177165784
Ni 8.085892691058993 7.252273004341979 0.09849324873208744 0.40123941737174124 -0.15707666254275526 0.29766818294629377
Ni 7.580819311560849 3.94343420112087 8.007545500485955 0.8264011498870347 -0.49057676758599383 1.3344904724354953
Ni 3.250068900598349 8.390746277479412 12.634643303918605 0.1914757088479154 -0.1963086114601845 -0.3915157623260741
Ni -0.0905214089588476 4.7047892780325204 10.11013771290645 0.4467505144296628 0.10499511135616757 0.5549008835853605
Ni 8.66226159736348 2.146536956528354 5.86173943178957 0.5035960626637973 1.165702692103399 -0.19447901445061344
Ni 3.5342728679742486 2.725514235764782 11.587157867538613 -0.42279297517280084 -0.6062645827693172 -0.2527615522415905
Ni 1.1218901799486103 3.2413290399062604 12.501663380012078 -0.9162318947979382 1.135015033211555 0.8335146210033645
Ni 3.1954379786349514 8.406269719164635 8.021198702551574 0.28062459720044575 -0.19702620635249937 0.316103763943662
Ni 5.424328876379017 7.822365513278989 3.6391702156652745 0.119728046690968 0.04381622585400196 -0.17596501480682597
Ni 3.0366170490013067 8.67611857856441 3.5834832649384594 0.02595502930286498 -0.7597165040752917 0.5227559234216997
Ni 3.394398869498997 4.409083110574805 9.269705463274835 0.10442766888847177 -0.12549425975078388 0.4069038147463702
Ni 7.276500079317458 6.148632378066487 11.237342452703887 0.4091658713076695 -0.07440721126698153 0.49843148774372226
Ni 0.5226907650092852 0.04133274843573587 0.48507585368660894 -0.2261981999307653 -0.026787038285857094 -0.9348114575723385
Ni 4.718610031831616 0.185019680953857 1.6620688175074851 -0.4426642601754312 0.3334353132435741 -0.8209910346150571
Ni 5.996477290370021 5.691252373080817 0.2880513174505099 -0.06696438183569112 0.2398875244923998 0.3290119873648979
Ni 7.857478922505132 8.890947071431087 11.228077294685228 0.5554307879469015 0.2525088128008361 0.37458607645027103
Ni 0.20993779361929077 4.937242401890706 5.891896026759983 -1.004988432808056 -0.5559501507854813 -0.2094919429196779
Ni 8.032919172729432 8.857400497334199 2.3466679924715894 -0.9454023457143074 0.3504089649834352 0.7699412671270933
P 8.39177875843164 1.6549401705118967 3.6501724776018025 -0.6185626834103799 -0.4861434144049886 -0.7754963926173676
P 1.6562353001274082 3.064484977860951 1.6160980559521445 0.0760203213903723 0.48606782397204673 -0.2651378144187563
P 4.900553100684849 0.9845430427511752 8.178834090460251 -1.4333846131002477 0.5430828079045099 -0.032540652940182664
P 8.572499152473025 1.6863764984520415 12.414003935797997 -0.28612855773781043 -0.435777817468243 0.2136753848734062
P 6.29568845895503 7.652567680890099 1.3056409961532842 0.10517740257030272 1.0152486770834839 0.6689113110662609
P 1.7727879086729927 3.401164336791215 6.027660026497339 -0.7646730767496186 -1.070500141357621 -0.25699950158233803
P 6.859640423281432 3.9237989493276597 6.016591649552466 0.9772099771432075 0.31497093589079944 -0.6545254746582341
P 2.6030565607205007 8.473480606414366 10.37177744305098 0.022858392655412244 0.31508406442989606 -0.07261515236356528
