# total energy = -340873.3264738056 ev
CRYSTAL
PRIMVEC
9.21458871449360 0.00000000000000 0.00000000000000
0.00000000000000 9.21458871449360 0.00000000000000
0.00000000000000 0.00000000000000 13.48648200856216
PRIMCOORD
 96 1
Ni 5.04781616938026 1.7810878418485165 10.616922812739551 1.3422222938621142 -0.3573159765159137 0.519129382412706
Ni 0.28701416462480844 1.4769972015213249 13.052015163183516 1.0355441941077264 0.6661165219299431 -0.4024408938790101
Ni 3.6436418620289843 5.141574608982974 7.82300885117092 -1.002460267069564 0.8033843772768874 -1.5735436739520579
Ni 2.834674694500581 2.02877598499554 11.827550214067115 -0.050091517339752444 -0.057822053214790746 0.13597459045681745
Ni 3.2567304988370065 4.528122583615789 11.947310379947071 -0.39540892673289324 0.08844517741728639 -0.011282257782038634
Ni 7.377476117849748 5.703259075265338 2.826888367083943 -1.6071595622342902 -0.34437535719484563 -1.613743386099395
Ni 6.843048404819947 8.710891598890534 13.125826782716647 -0.8141022779150238 0.10194809699972765 0.4534022154182256
Ni 7.910318921630246 5.519372743991455 8.662083765682901 0.3977452881755537 -0.27707364662439377 -0.2154054801906355
Ni 8.576459964948125 3.2789468720932367 9.719033021736541 1.9437359922100073 0.47727465116044904 0.5106784234318753
Ni 1.2641033451497168 5.809752076394436 7.9623647612925605 -0.33849061627929444 -0.7047720295186121 -0.7639323419288521
Ni 3.2584351977388737 3.905197961107416 2.75772919336461 -0.03847321637453374 0.3241343475576224 1.707642644652717
Ni 5.031294411915132 5.8544889043326345 4.309335997796914 0.4566544038069361 -1.5532964936672475 -0.3529366165012954
Ni 7.57076132955555 1.988452945024879 11.95831536318221 -0.6272663818319649 1.1147696526989577 -3.136241663438863
Ni 8.146147889173466 3.818626900658521 3.907398404879124 -0.5274906098932076 -1.149498828650027 1.0718031764397606
Ni 4.308511292111957 7.514801132631002 5.603579340990515 0.5421870355631179 0.18064313700878568 -0.5938939770191062
Ni 1.9582843817561526 0.6986077249980963 7.58506697844825 -0.4826821953292655 -1.2963602412226771 -0.6517769653788195
Ni 2.7433304771264573 6.903919977499606 11.500759434579109 -0.05944030554450408 0.26660334322068924 0.055873157018536034
Ni 1.5203426265720539 7.851833927413201 2.810366609618816 0.8644203094432855 0.4897887244670597 -1.06988256237828
Ni 3.273583981493848 1.6736918110308618 3.825467811278773 -0.4815231420241578 1.025684270594511 0.9208069157631303
Ni 4.855701210434118 6.329805031116598 10.188713506096816 0.18105194241143013 0.47382243094579035 0.16697695237560276
Ni 6.949237324523307 0.46752058477866515 2.014529309470257 0.510077813733399 -0.11225590668363891 0.6528668560088885
Ni 1.8861617963241681 3.5872301502601567 9.891322793183397 0.5281693811277872 1.845771819558692 -2.4136192360023916
Ni 7.780162856825496 4.191762453805678 0.3386094109017105 0.2570511807558799 -2.883592982626053 1.0572527894294113
Ni 8.861135466971344 1.2570081118824845 7.948824844717403 -0.23128178510125977 0.9038466337597079 0.5729186603190197
P 3.5770388152035864 8.214142338886335 3.0463807903940774 1.6553950002019102 0.9918256701738531 0.29470627210449246
P 8.928788976903839 3.704006632332412 7.571499418107115 -0.27497562644478446 -0.08205238651706515 -0.7286478076949451
P 7.128525576056477 1.6996769510485186 0.3817069635175194 -0.1734445623778174 0.9070327447971732 1.8707277181730813
P 6.421176892256698 8.548318611184323 6.323339154254757 -0.5328804134502113 0.1689217348067994 -0.5412629810869517
P 3.2172920593775847 2.010107228372926 6.237916231552742 0.37462541432863866 -0.4451011517516979 -1.5771370477302709
P 6.5444773030993435 1.9497701018354738 4.379262746751521 0.39280054257576863 1.4364557958264035 -0.13032741947336912
P 7.354642367153382 6.544504946865319 10.58671278382186 1.013095378185907 1.712885123998579 0.2482235551619209
P 5.106568386668408 3.3978334949683444 12.191132081692885 0.1892301073468483 -0.6066911287837745 -0.177640602737036
Ni 4.36891292077002 3.8000318607451775 9.677589487784978 -0.14341613433652717 0.7520700432736274 0.992437078505607
Ni 0.5908643041880071 6.3688472432636924 12.565328233994663 1.1033462413533643 0.19292221148645486 -0.3499279115819587
Ni 7.417319999210155 8.024045374856456 8.19183750557898 0.3662194496531306 0.7226375969451232 0.7742054417200861
Ni 8.77963243028476 2.236076586051291 5.598400742164302 0.2649390681443889 -0.10237849966892691 0.14901548280117563
Ni 0.2815637354331617 6.153023147698605 1.3722632653671811 -0.9304935469232749 1.3344647614038823 -1.0688767468215852
Ni 1.0511818450121324 2.4699797045648335 3.249649087452762 -0.18437457902675988 1.4991215502867408 0.5243471791682195
Ni 4.54945435636078 0.9375014647292148 2.11472045341564 -0.8247451023408505 -1.4642447930142137 -1.0714447646590772
Ni 6.656139688465996 1.6685777143252594 6.911727498470159 0.17052276074533212 -1.7041449159121038 -1.562697475266173
Ni 3.48307765465038 6.321714622274221 1.799029567425956 -0.15774103559963157 0.021193089137847374 1.3072568335305228
Ni 0.5144661496183652 0.7796426605808177 1.8730291645677268 -0.30737615426267706 -0.7098982950015839 -0.49065004402609047
Ni 4.759399544361591 7.330361926037593 7.936525211775711 1.6317819887686609 1.1054943980446188 1.9829815679741916
Ni 1.3573641969648589 5.309685564473089 3.1156606752248397 1.020687588710868 -0.18449953464039837 2.528189392641504
Ni 5.953711595009984 2.7426117392110756 2.193468328093261 1.1483132929823576 1.3291698315535303 0.7724167252507794
Ni 1.413315179300749 3.7745903814583865 0.4982503164967086 0.08349246139770136 0.21963751599411205 -0.1815003428027584
Ni 5.4394822603201485 5.442117632676549 0.16581928729068554 -1.0553288329338213 -0.08441163077786107 -0.6044121029416106
Ni 3.079064014907774 1.840881307655103 9.12008475891822 1.771659770934626 -1.1206669920199992 0.42800845793546927
Ni 2.742049649302892 7.609499460276909 7.158651752217373 -2.666826874642465 -0.21458864071629494 -0.005545355298261417
Ni 1.245784742896135 7.078213921979738 5.084066361163757 0.7665939479214153 0.5429000024697425 -0.005226538506261966
Ni 0.05512259081546904 9.096383915429065 6.132168690646137 0.06422152898323134 0.19161943351463126 -0.5063304308758249
Ni 2.2875216345330553 8.21989224220939 9.510653392348852 0.26481334119980204 0.5382640463596279 0.30040872180590844
Ni 8.52905090629889 4.782565020249671 11.534435070291352 1.7137937518557773 -1.11967737441322 0.7377880794333165
Ni 4.157189317158073 3.4276611184566965 0.7893557584859991 0.0570797757321275 -0.43220012741931374 -2.3307888336687212
Ni 6.349671684264847 6.200118910333442 6.685316761995041 -0.9904604143952103 0.5607061774132279 -0.15120477714301056
Ni 8.733909641360075 7.29592700821987 3.6044107508143837 -1.1736219469504756 0.6328078804754843 0.3492792222543662
P 5.053851724951737 7.219768432955354 12.166668270262788 0.6626519604201104 0.23215056085945823 0.9893314429970897
P 7.865204295557038 1.2398136894452692 9.845644234284274 -1.3475575900320984 -1.7599201139001948 0.538322410401389
P 0.6016905244031646 7.99549857919167 8.062893159182854 -0.14730261387512694 0.18155253619693248 0.18247839044531156
P 7.531857336238335 5.819971055216983 5.032453607168402 0.10700751380050604 -1.4692419891184891 -2.30939545559461
P 7.500527734798609 7.667136712337348 1.4788603913481229 0.9868277027386294 -1.1630171748514355 -0.32787144600255147
P 5.248473052013056 5.089484539295097 2.291838669319677 -0.00792362572245087 -1.3700470293838662 0.17396109700291976
P 0.44749636216434985 9.544747370386203 4.01141913187108 0.40093834119155464 0.2338719144259392 0.28561253733334035
P 2.847160462133178 5.585607207270502 9.768245375386293 -1.534052814946287 0.10664653091666151 0.2280537650822653
Ni 2.0235513132260325 3.536430122984504 5.168073923047788 1.5101451550907539 0.4183022863912989 -1.2935654520863593
Ni 5.833765294439122 7.71376253095059 2.9025604120672757 -0.14504775640267922 -1.0085794925934242 -0.2693207421518523
Ni 0.3070393086979897 4.875835086653472 5.726670580670608 -0.4324307553728811 -0.4312323641894057 0.36600630520106003
Ni 8.615557464627173 6.915410569557059 6.443773828024534 -0.15533474015098409 0.07745602539563436 1.1916191548588446
Ni 6.310776905536293 8.715139524262215 10.470459690385422 0.3280948748672672 -0.3892488206687683 0.0906180166988891
Ni 0.5999968830076876 6.308150747768551 10.168996129284835 -0.19655826557714534 0.675383806164482 -0.30491123766195233
Ni 5.006544026777748 1.1447744220189895 -0.38702470263248023 1.0978319964033545 1.9160277276614615 0.910636917208664
Ni 0.5857852229193077 8.404091869497671 0.22004990592398824 -0.3175145282482596 -0.9015879196325182 -0.08008086461299112
Ni 2.438521098883884 0.0390311546407054 5.238042137651359 0.11007458276160396 -0.3690057541490161 -0.49868165608131537
Ni 3.942185319983612 8.987531979603329 11.715248336247546 -0.6065327488290393 -0.37343190824116973 -1.5491727013068608
Ni 6.602381778230886 2.9305709186721236 8.80111624374262 -0.636792319044529 0.1413044873101631 0.3039247053789669
Ni 7.521260559280781 6.184537040911507 13.125961315711065 0.2170838963343229 3.683320479876644 -0.8014907597986003
Ni 6.825162888233327 3.8664690449747177 5.914806680233903 0.2902178973158357 0.0401662878062405 0.6973148019096185
Ni 4.7516777190655635 8.05761412134026 0.7229683330352163 -0.2053861482814205 0.09921681411149365 -0.4055084770607404
Ni 4.724752691004714 3.014359173346078 7.4505938788568775 -0.6354520029665508 -0.2641983333236224 -1.0906599041349474
Ni 6.538211382811397 4.552310878844991 10.707349257083262 -2.0248152161805257 -1.0585918199558093 -0.09468421634846275
Ni 4.49885705003562 0.3846602391826467 6.9780273853286845 -0.23083595581309277 0.11257163815184483 0.5598039773139326
Ni 4.83778805008152 3.3776904041603313 4.731192767018311 -0.3749773983514187 -0.6473281855788465 -0.05347431776905629
Ni 1.8230050056571403 3.0612061420871295 7.460115313317957 -0.9340318990938367 1.1822937636928608 1.1423575896195552
Ni 7.4788365930959255 9.204968628183696 4.314662951500535 0.6876194289987254 0.033456994106864965 1.239391280036801
Ni 5.167338598872821 9.311157547887056 4.399331199391398 -1.0936159014394777 1.6406852047955613 0.5737753518923602
Ni 2.7011276610694126 0.3805634330649693 0.31153234212799297 -0.21628299769958237 -0.09331870345950379 -0.30532955614629353
Ni 8.492266268373186 8.576367819061538 11.622380025909266 1.5518163095772952 -0.30547353792332554 -1.408822350379851
Ni 0.8699815663322723 1.3790184803129062 10.237184085359537 -0.18822891977584355 -0.7108778853060338 0.7335645282702721
P 1.0693898722018096 3.3581739053811126 11.65565114117939 -1.90435980440523 -0.6222198205469929 3.238290290572197
P 1.6141563537067207 9.032075301179693 11.63967028006853 0.29171505068665243 -0.014402548578575196 0.9595752947805797
P 2.555104074594306 2.0229615795518727 1.6303943018411584 -0.057994317126596896 0.5192111434932348 0.3597706087039933
P 2.5711558880378362 5.961378132774059 -0.018701929141785655 -1.234172969060655 -0.6958130205531113 0.07719145888033803
P 5.717633833572978 5.105554781915946 8.412327868840855 0.2860377977962171 -1.0577150737778105 0.3857464639424647
P 9.067514609161222 4.192831346090093 2.1298793732181385 -0.06597425000827993 -1.1380669326640012 -1.3452919339263734
P 2.7363918918664236 5.772589640333723 5.626573425529544 1.1769276142849407 -1.3471516128429315 0.528466857763548
P 4.5749326940022055 0.11597389140007888 9.263742960484626 -1.051729545618337 -0.7185919661208398 -0.4205494305542628
