# total energy = -340890.5786593427 ev
CRYSTAL
PRIMVEC
9.06504255381003 0.00000000000000 0.00000000000000

0.00000000000000 9.06504255381003 0.00000000000000

0.00000000000000 0.00000000000000 13.26760608604787

PRIMCOORD
 96 1
Ni 6.2850932159890665 1.8453072770607808 11.358530168707615 0.5775489600021795 0.9574466784733512 1.4086071490452514
Ni 4.617261343939491 0.34099698987051813 6.048157476720531 -0.44181708168378747 -0.19401210211652392 -0.07171783736027648
Ni 2.743997475344613 1.5645719712178954 4.471302372711229 -0.29741132974048134 0.4917602463711337 1.1339845350645115
Ni 3.3992459532496566 4.2906841174131 4.812730858611911 0.030411779522637943 -0.261436197197453 0.013833820559298755
Ni 5.25001038598603 4.914404376979756 2.8993695868611393 -0.17631545616770924 -0.9970303543032442 -1.3765097542900746
Ni 7.377630286310881 6.321725053339679 2.5521566972451835 0.20996091213629647 -1.040188377747957 0.9563472747615852
Ni 5.31161641583873 4.537579619041723 11.469779091627167 0.7656848058435846 0.9432806713856142 0.41511797512604637
Ni 5.570949155983819 7.859056571392865 12.524235730782822 -0.9540111704292409 0.806289209628508 -0.08716708203581117
Ni 1.623005236142925 6.665081673812118 0.4472737368962801 1.464375405054807 -0.7583520196275971 0.1023072801113593
Ni 2.800835292763157 1.587959781256148 0.5554704599554149 0.5504009388324779 0.7787717209345298 -0.29878969814524675
Ni 0.3506657643615259 8.893668019178078 4.598737835787489 0.930068029350082 1.2239906292110148 0.5632675103825009
Ni 8.715911597844705 2.3364150276934836 1.3479092933329062 0.040812920251303904 -0.015929783856379016 -0.2271806184486926
Ni 6.899612457265479 0.836157721072253 4.753226105645593 -1.7448660477805498 -1.5499874838986725 -0.051182436411086045
Ni 0.8091656500761673 7.6147264768343295 2.6899544105752136 0.6479629909493678 -1.7337892211410981 -0.7549951873402223
Ni 7.318535273272366 3.875351058295806 3.7287412170052385 1.3057311409146157 -0.12029008984202509 -0.5490063724777964
Ni 7.654594534411165 3.801770107101815 12.640910988232957 0.2695451994578326 -0.5886008469409669 0.1676618942577693
Ni 8.07853938404642 8.736969691921784 6.79383700709829 -1.1927427269403263 -0.046182669203649496 0.5116227896230157
Ni 7.277742581345181 0.3181956880917519 0.17988761286049942 -0.4439325853648935 0.9835413186778739 0.41193520652269056
Ni 1.9343985162297526 6.386050595987524 9.450834548613397 -0.5870682123465245 0.31224170988509453 -1.3913936133804425
Ni 9.03338752155001 4.7953078466376775 1.478170330203323 -0.3866178108038245 -0.4251527336542291 -0.4904448699938198
Ni 6.454881464832661 1.856402889264975 6.829858767078523 -0.19831947124262617 -0.3926907564707818 1.925916961750715
Ni 3.454452062991114 4.423024675067539 0.5457500147212992 -0.47321385082751405 0.6513509335849944 0.34528192816951503
Ni 6.163086806956183 5.981087945662384 4.668644725195238 -0.7429220582257721 -1.6448426786073607 2.1670949229197647
Ni 5.587492858820955 3.282669504764413 9.376959890037531 -0.6935494213299152 -1.752578585933459 -0.5201488248161558
P 0.19100860718411503 5.439986484812255 12.420708411192953 1.0810429498704737 0.42450532987821726 0.6407006529599998
P 4.2628453714334595 6.0730709334368616 12.683831245670211 -0.33862714185715875 0.39725395036143196 -0.21655990551005283
P 2.50177953572364 8.511485821033608 1.308528028546402 -0.4646507917488514 0.010271042908704894 0.9857272705855993
P 6.232905765450222 7.869354459843817 5.770427232516282 0.4742723739990154 0.06904646117570044 0.7403368139970992
P 4.832474521504668 1.1884996118198536 12.733558443633715 -0.9324141609847555 -1.2136190561687032 -0.49866957189645733
P 4.264730900304761 6.14416806294462 8.278933029886582 -1.0593004159870594 -0.34688732498342195 -0.3666377681374718
P 4.67735351166956 0.9470793959521236 3.6794391695420434 0.6855280936873356 0.43959899098654615 0.20834291691689924
P 0.1812310521813014 5.556182201506179 3.6397288437073265 -0.6836031087504807 0.08091647314040903 0.6350833067732223
Ni 1.3585688769856124 0.9759152966233181 2.4464936536068596 -0.495961686046991 0.697501721109444 0.5059025993097869
Ni 1.9055172903453057 6.240221254869163 5.023354405083145 -0.38872200163102083 1.1201813106328322 -0.21891375045421008
Ni 6.111533909402871 5.542158580525877 9.276073217371748 -0.40582292297736555 2.041836690439187 -0.5978421630335768
Ni 8.30334337673581 2.494246485281087 10.115819788829327 1.4053973838587024 -1.2858182040407726 0.6248536586254141
Ni 2.4190156963247076 5.131693449311893 7.324514575404627 -0.09939319178835786 -0.09915330786340988 -0.6902861771976112
Ni 0.47161790893415895 -0.0884104544659201 9.25715356685592 0.5449198611132486 0.1219268541144997 -0.2802589863309109
Ni 1.5321644437424098 1.2486733649337765 11.318992985187522 0.6244165710879955 0.7054729122403786 -1.1147069177818223
Ni 3.9184644011415153 6.700707291428526 1.725849958021213 0.12759870768829637 0.7850017610046416 -0.6748418176180829
Ni 5.594645177472188 8.046693889215264 8.282143867993385 -0.37538954618817283 -0.4540262221554697 -0.9012022541583254
Ni 5.158235894192515 2.7704220746707784 4.93537725965592 0.4371104202367376 -0.34031455686191064 -0.5480290961661917
Ni 0.9273085379314148 7.284169696584375 7.186306215642529 -0.4827079063608783 0.2546538841682969 -0.12917196571268721
Ni 5.28585356462605 4.652950416854453 6.862921697137639 0.5375171408912742 0.35605356486372225 -0.07756658283156964
Ni 8.008267173419856 7.121397790752257 9.31818487300458 0.7502964963129723 -0.18174896847845473 -0.7308211611971801
Ni 4.347005227400567 0.5349662399842817 10.54818515658262 0.15807939277565677 -0.2942038785467772 -0.5836530160173884
Ni 8.260864586875636 6.924767950620576 5.006743620930396 0.942626325631067 0.363259081473226 -0.44472525646951794
Ni 7.192440530004112 6.17201587396691 6.949293423511465 0.3400708162822208 0.1675117418331502 1.1409380835642093
Ni 2.0364890265595204 5.250173556753738 2.673396203669837 1.5459025151960215 0.711160449543459 0.030278082158251084
Ni 2.510817383246174 5.446232299198439 11.622224100871852 -1.008916821328185 -1.0232491787904572 0.4699207818985391
Ni 0.8720299078487542 3.292269384931277 3.8191604849225067 0.1276035927843028 0.07116864972502582 -0.6035147879383218
Ni 4.067511832400798 2.8558872967795557 2.60035824853061 -1.0666787107290017 -0.6323646222904787 0.11153754046037564
Ni 0.928486993475978 3.152876224094762 7.951713998340538 -0.099851362371699 0.5442971399275852 0.3845460158764603
Ni 3.8031479935846892 2.993839115834644 7.0947193702318785 -0.8440615432812754 -0.9107886122951797 0.2662922397381736
Ni 4.030046011126341 6.833573621556693 6.246415398512241 0.6297747500761154 0.17508518330503395 -1.3234594114323144
Ni 0.9268371557135895 7.415213953139793 11.372699736874589 -0.7223126095055367 -0.2904053307362934 0.11912512299964646
P 0.11685202578181836 5.533510529837314 8.089259703484885 0.18569766871355758 -0.7013403781292438 0.03066734717686976
P 8.344933792416239 1.4839656119697782 8.17928010952553 0.8007217428430597 0.18406604664740558 -1.6742440145876132
P 1.9845463321722383 3.166083991236519 10.24990264768119 -0.7967208492137826 -0.7521536041263691 0.1733841414535272
P 3.854963777374864 6.142880826888251 3.893737684303786 -0.5140013171575213 1.6257476096491226 0.29518321174091094
P 7.287605347748909 4.273215780225615 10.49721060875041 -1.854167499821555 0.13336517785842839 0.36024266324440535
P 6.18934823551464 7.797912858715341 10.351240759470969 0.45586996023242776 0.7409438514534789 0.04943897135741808
P 2.368097351756931 8.438920154616472 5.9481999709264235 -0.2776950822584766 -0.03730310732583254 -1.9421797034664812
P 6.756457303729012 3.9437649351790203 1.6158619825343423 1.297659933870707 -0.22766167185016922 -0.6815266858374263
Ni 5.221283265826642 2.9794347630630225 0.517981976074332 0.7209491534991067 0.002039399027531972 -0.9412219890843726
Ni 1.1003058118732802 0.9077824360622689 6.7704863637349035 1.5321059756325615 -0.44202559815016773 0.9197473641503645
Ni 6.6049623109540985 0.9371713043351431 9.287178801122858 -0.4783995087935116 -0.9032506520469218 -0.377585268287911
Ni 2.512675716989524 1.4376069838551955 8.678181983829122 0.1385858028274194 0.2658366402579938 1.5234128187339375
Ni 6.477063624198398 1.726247006889304 2.2368917374423334 0.4477627577442611 0.826973220340421 1.2076731229979136
Ni 4.089358585188467 6.832295450542974 10.417167188650888 1.1244326297100184 0.9806470278492142 0.3460609724273847
Ni 8.403104171104403 7.045015741379268 13.80627117218318 -0.6361107195964721 0.641926812057617 -0.2539745987130852
Ni 7.5376192240493 3.832083609725039 8.05126085770258 0.8141079343419785 0.280159227528253 -0.42118937813110685
Ni 2.864426566956313 8.716745581768551 12.390776546865316 2.030676302946993 -1.2718360308290677 -0.10232450650253991
Ni 0.2706993971245331 4.6847777816003076 10.221682263405963 1.3716470268811345 0.8428636663184323 0.1189330615934984
Ni 8.713717857523289 2.2619638324050464 5.789121163470114 -0.5605156586689767 0.5408004396282364 -0.6885313992900335
Ni 3.7604244475729507 2.967677402745343 11.689345302673107 -1.4848781529938493 -1.2495949600426801 -0.30520691452550014
Ni 1.252643853614689 3.35692126911454 12.741851144650377 -0.44122007152973686 0.3996245074761376 -0.1843475824435664
Ni 3.057720471392616 8.265134221964013 7.948012741426344 0.6980786766588365 -0.12710197055753594 1.2928542849519475
Ni 5.535241952983556 7.8146559924907875 3.5263704853630053 -0.8940232199113829 1.7192748295750069 -0.49355101972296933
Ni 2.880009375272498 8.467801380500918 3.640710587826374 1.0183368290905044 -1.4715639523834463 0.24909978711928712
Ni 3.4680043017535893 4.430748091405752 9.519321852342081 0.9989903062430924 0.26129272964105327 -0.23177800801138793
Ni 7.4258563132114634 6.435409753219417 11.653442294751596 0.18892517451191979 -0.9883752497314076 -0.9403089903517998
Ni 0.6976511214069548 8.970140718977573 -0.03099972635186528 -0.6949123631157128 0.6084690466198037 0.9950650030467573
Ni 4.777766989108988 0.2640148346740651 1.5513941187168845 -1.1414224793997954 -0.6490446540493209 -0.7164440665399016
Ni 6.226097918419708 5.722426018673432 0.373501513302364 -0.6913159040137062 -0.298250280702009 0.7350555109935019
Ni 8.011811605096197 8.894329767291563 11.225376476727428 -0.24888664266721655 -0.233285702905166 -0.7681147554413159
Ni 0.05563488625882469 4.673410218116598 5.9477884179900915 0.0434110199957833 0.27276653460860767 -0.08520301633090488
Ni 7.888218813599477 8.723299607604853 2.5882981157884037 -0.008654076130572192 0.9837158965825252 0.1074569426330988
P 8.380359979094335 1.6425222729694202 3.590347023868807 1.7146589280695503 0.1198846268734903 -1.451502662857197
P 1.9773940135210053 3.3538300895707245 1.7337573947252316 -0.9948132920472672 -1.7461197176819927 -0.3209001568910409
P 4.65830785706089 1.3981559182402825 8.289268991516668 0.662161393936937 -0.7702166322756671 -0.059688931220200435
P 8.734612780832657 1.5952299454618373 12.255779025210021 -1.1425337101861033 1.3448237360407034 1.226632694819552
P 6.323492736656523 7.820774896279865 1.377084226599229 0.2293514008477663 -0.9048956438495125 -0.06631826361125999
P 1.9777838103549763 3.0679186443744118 5.88166255787186 -1.5981524736396735 0.11590095963539394 1.0899819042313166
P 7.0008327235008005 3.665685686832727 5.804404825378833 -0.6141550412609874 1.4641123812014076 1.1126058122784195
P 2.476107334937465 8.46336857464483 10.163927970175454 -0.805011371357349 0.3270515212044174 -0.29452115267687984
