# total energy = -340886.90738827677 ev
CRYSTAL
PRIMVEC
9.11734017803953 0.00000000000000 0.00000000000000

0.00000000000000 9.11734017803953 0.00000000000000

0.00000000000000 0.00000000000000 13.34414894543487

PRIMCOORD
 96 1
Ni 6.698892755324698 2.307416451649116 11.345516000347326 0.47944851888331624 -0.5972412962247844 -0.41869515095434345
Ni 5.006714418727275 0.7747751569129481 6.117851959803768 -0.08232826588627112 -0.7909651776769281 -0.35783122558943536
Ni 2.9320545444218853 1.8181252737836129 4.764341782700309 0.7352565712607143 -1.78162073880208 -0.3126402308750938
Ni 3.2701072834539935 4.003351132398899 3.964279682810243 -0.4623290855942102 1.6055001722539963 -0.2657875321876132
Ni 4.047397002787381 2.411007670724654 2.399157863698384 -0.7508091742833328 1.0950654894018108 -0.9466727277862985
Ni 5.43990660249211 4.465691452705232 2.466719177867857 -0.8456299162096598 1.7577395613091085 0.17859268223766017
Ni 5.609698828582917 3.0789895986923814 0.03903589196197126 0.1094354065157083 0.02128076375564722 0.7661671447966418
Ni 5.595785767474901 8.28873806579082 12.300930282958031 1.7837095030103087 -0.19801248152516865 0.09618085549864726
Ni 1.9701386865319364 6.9141349221910335 0.13926645944877145 -0.7001869812510909 -0.6243332673455699 -0.49426424373991
Ni 0.8289212167479952 0.40058036969061445 0.2276107505485993 -0.037898574817986336 -1.2307541731870932 0.5667868363896691
Ni 8.108132674251712 0.19739041480244726 6.600255898900598 0.7821758615200722 0.36426618258150173 0.2747568255657591
Ni 8.975911994828254 2.5238712247588104 1.4455314914961206 -0.269470123245523 0.5708406947440685 0.6752804478173984
Ni 7.08795701263947 0.656943564217089 4.282284302530153 -1.1018053792288056 0.7817444304096085 1.2369513031367407
Ni 0.9249906301786367 7.6062230975831335 2.623166353143591 0.7984550582960701 -0.10857048741225173 -1.2301152540515137
Ni 7.776835884289747 3.9098254568772597 3.723084095399951 -1.1601411388552212 0.5375107131333711 0.491718851610237
Ni 7.975821833622931 4.340227734548351 12.547196023239993 0.3719630370051272 -0.5956688095313418 -0.48334965370993527
Ni 8.352440921597966 7.226394705866277 9.088820223829272 0.3290569816702204 0.7260527932742593 0.5573308331830917
Ni 6.957633752168977 1.08276620191796 0.40026399798652 0.6677149767653145 -0.7899264519997686 -0.8931302757834684
Ni 1.9840608649801275 6.471269240499852 9.436528226107374 0.4500674946180378 0.8439072770915982 -0.8636857452701061
Ni 0.4155173081003535 5.1352506805233435 1.253780151592302 -0.14931990141547188 -0.8075917304900155 -0.060639725169243944
Ni 6.933144576457227 2.2684307050581105 6.868740597190576 -0.321632149961059 0.8955424847693867 -0.22569683481431455
Ni 4.0397384370398495 4.702797001312736 0.30933767614895297 -0.9342699832465716 0.2356158937002394 -0.024105120578319778
Ni 6.123160075254022 5.731825600235517 4.754066540322371 0.6523276956759668 0.7793975274439867 -0.3338142938495477
Ni 5.67459605595307 3.228213105346961 8.841939974819473 0.6099304616566786 -0.19937053821495987 0.8884601240013086
P 0.47159715578665246 5.959212064215795 12.20982981992311 -0.5806335124647742 -2.0962535746271707 1.1533966210425362
P 4.780148515362803 6.238795300701571 12.34025519460357 -0.29527191479997533 0.19702414946997038 -0.5773196176001929
P 2.6795315735773872 8.546539976597009 1.2987486968065574 -1.202196673264375 1.542192413334286 1.7176966864546095
P 6.577787125771769 8.15076535691297 5.682605639297363 -1.2727243469712919 -0.6005881012098302 -0.7767433776505913
P 5.025705838313117 1.2569894553341245 12.349396239863658 -0.43098605250655453 0.22941464998553393 0.46964541674996535
P 4.226014814168201 6.413228252941775 8.185674740711452 0.14951633369699413 0.29426584213296414 -1.0981258734946895
P 5.053304027024757 1.2177484232182016 3.7719101872425167 -0.44620621189041865 -0.7260710481067044 0.5852830954216436
P 0.35862419367038806 5.663764655824418 3.612661253330811 0.2187931657159458 0.43084489894299993 -0.5531234799699636
Ni 0.8823214781566758 0.13093959266636612 4.660577334161433 0.24115379279933305 0.599424162808716 -0.0587039415991118
Ni 1.930551195489339 7.0456252022040085 4.729486191208864 0.2245434379361617 -1.7059120351148558 -0.6901421954205792
Ni 6.18863169505524 5.962156965092524 9.382417723899012 -0.2820196777757595 -0.7853897404716796 -1.1477412225289718
Ni 9.223466015277033 2.2573075500438384 10.39071531473044 -0.617065272929247 2.7127496053165085 0.5920942048062061
Ni 2.5695946857396086 5.638983725227049 6.570619072925687 -0.07684127462977089 -0.985614913377451 1.0185188631943234
Ni 0.5992982692226339 0.3777049631899521 9.401713662646722 0.42701112701920646 -1.7529010022698843 -1.3546695184865314
Ni 2.05146536089858 1.5759322493581067 11.826865974919851 -2.3607421854977018 -1.024846605184564 -1.4297279901842668
Ni 4.253148018530883 7.280579058530062 0.8722668754109881 1.5894544316450432 -1.6311536111560425 0.5093532768625486
Ni 5.8766180795647385 8.075474361742597 7.809609987019095 -0.5186344450541583 0.4754908197871489 0.752785067062781
Ni 5.329605021047305 3.242217339856733 4.796501376701818 0.5541454934765746 -0.695192613360293 0.07743519946002794
Ni 0.8452075215037279 7.922585684337412 6.797189534960246 0.5447275425967844 -0.7130959760032751 0.5656360106146774
Ni 5.286607644779022 4.640789970778258 6.9972978288690495 -0.020239724085642563 1.8832762442620532 0.39814818004092717
Ni 0.4597254671439612 7.709294628268661 11.241524530038078 0.9958119085151109 1.488988575617797 -0.7475035069488675
Ni 4.490499735323128 0.40750407781998993 10.36621519821048 0.31487014864687707 0.851070884719573 -0.5910161412506789
Ni 8.341728046891598 7.547853885778733 4.4192349575743135 -0.1832003562130006 -0.48923799416991226 0.6548514905390851
Ni 7.689856459014212 6.765239639782776 6.816818256624366 0.21259320755282093 -1.0857095021082075 -0.24840481793479158
Ni 2.6468823784084465 5.746221880372841 2.1189172669859455 0.3436706178183372 -0.3187082914460447 1.676752125721448
Ni 2.778673530647217 5.507611970636358 11.366212362546012 0.40641401959414525 0.07137305242634805 1.4210122075778235
Ni 0.8411138357648689 3.4651636591714787 3.5024517570217815 3.0014402673545404 1.441773351384575 -0.374198096983233
Ni 1.7973924422242242 1.3445068036800225 2.543154399230274 -0.09993955121013111 -0.6390626031359445 -0.48265082787069785
Ni 1.3168903802880314 3.75830438049842 7.952112190496199 0.10302873165841611 -0.37740374840472424 0.04720956780626709
Ni 3.9355090041520167 2.8100098288308666 6.961522297753885 -0.8534398991723818 -0.5297320976292168 0.49769049581263963
Ni 4.4433174999142295 7.16129689701226 6.01915857587058 0.3832445234562174 -0.07624477869635256 -0.6500214161402934
Ni 8.54424240687275 7.327259840229301 0.2985555096572498 0.20825652785068005 0.8163229397154264 0.1086933861433612
P 0.6190518984471596 6.084174328663016 7.891556640517681 -0.8180643478865653 -1.5795220030226798 -1.5149502897888814
P 8.96166159213374 1.8992696013467436 7.923795555378718 -0.048926036276741545 0.3451130066918186 -0.06629692345502129
P 1.9933423172789213 3.7259104708543975 10.252936805198331 -0.06038184352216698 -0.6025256845521753 -0.39482580053591354
P 4.166296236017806 6.014526967061359 3.924727749394331 -0.7495071676424575 0.6086153423896808 -0.5396133612986707
P 7.270978499325121 4.049238705502859 10.26257109856192 -0.05542629928910455 0.5804926160115358 -1.2798290763368732
P 6.5029611149503515 8.113247502090243 9.907497197155925 0.28884107157296707 0.36492387077015864 1.9956583921109112
P 2.814222039992009 8.58365666845201 5.8747882293914895 -0.562520090693515 1.7303370009264392 -0.6171105243448857
P 7.270267346791421 4.071421194150173 1.271921835073776 0.2476262878975542 1.0234957475836244 0.525693665893785
Ni 3.2888707695354458 1.3098153243117405 0.39891280817249125 0.148604363405686 2.0539442723359977 0.735447861335914
Ni 1.784464053855177 1.1419103876372891 6.886448295279689 0.060311395295547736 0.53167842272231 0.851456550193766
Ni 7.162290687091404 1.1304134216758164 9.042075620748802 0.021676456532169118 -0.943752211705394 0.7951702168972111
Ni 2.8122435771738963 1.9610304636964793 9.189834882571176 0.19506728285391564 -0.24366987435296744 -0.045266585147283336
Ni 6.480359228654958 2.4048078794052237 2.3390691215368595 0.5708730906439007 -1.9037396543227276 0.8737868382598499
Ni 4.193356501659085 7.163211538449143 10.341581968523954 0.4987760155673346 -0.08382259104361048 -0.14536374498120125
Ni 7.329712404736546 6.572152609543227 11.454177372294533 0.08643123231105114 -0.10542551402536682 0.008880076098449223
Ni 8.048614677585183 4.547838687687682 7.930761203272901 -0.9790346890567719 -0.5507377533466064 0.03669144188376261
Ni 3.209923720954642 8.666998274997468 12.28964119235256 -0.45122937613662295 -1.2854680197902055 -0.563877633162674
Ni 0.09011852549800599 4.957845475385883 10.074752067475854 0.5778816607512499 0.2253613058517667 0.7649669538409536
Ni 9.351473471342914 2.456229677995792 5.654049218133264 -1.2746552454454176 0.13698014890319635 0.7775116232751835
Ni 3.672364332002907 2.976711276602134 11.463998571131723 1.4124599471324382 0.41052675621093815 0.241309601650907
Ni 1.4395368403306419 3.9292453914513574 12.455281381727387 -0.9443859886346511 -0.785776177276821 0.8346885867068077
Ni 3.204517138230492 8.561811521391194 8.016270913312125 0.7132628405984426 -0.33219989817457624 1.1979810925211303
Ni 5.778506381934756 7.7891989975679055 3.5478752575108006 0.1839655165137993 -0.18006155347370278 -0.2208886147923938
Ni 3.471007874224059 8.544224172192399 3.5801552004026282 -0.36734584994808994 0.36729417077454807 -0.2090252876959045
Ni 3.844317367715339 4.664631815337537 9.288075134697635 -0.49592929014715886 -0.743315694119765 -0.10199643373915983
Ni 5.467842132790248 4.394503260613892 11.360741046706615 0.06740866846196132 1.8781312097260043 0.06577653217517704
Ni 8.349094857753508 9.169035494428506 2.40428180887709 0.34234315725616526 -0.13044671866005275 -1.232135369805336
Ni 5.018913419882271 0.23987357308482524 1.6909702890241518 -0.2666740485576246 0.6218778638265419 0.44772984762379664
Ni 6.491701199833446 6.015712221284191 0.5114536083644307 -1.2460447807975767 -0.042801411436242415 -1.4734786529076558
Ni 8.059865475361914 9.494980405707373 11.548573753802945 -0.04036966206629822 -0.7717868049762644 -0.08521330074355002
Ni 0.10978918692693346 5.0896548623050055 5.72273196514434 0.2454897011705256 -0.15078980109277904 0.033943961045612515
Ni 7.674749026343189 6.225465749364796 2.46131533034576 -0.27069191146776606 0.02786227362790685 0.7866454672556517
P 8.823889464739754 1.7033379609723975 3.6594322966977897 0.3328383030895235 0.37806246503464563 -0.5336286044701454
P 2.3246299899007097 3.6710970217184937 1.2780167769811863 -0.45946950465822806 -0.4939328285424203 0.8301225646026799
P 5.030693023389189 1.201382797602941 8.407081141270531 -0.6878076337501317 0.4078016439702912 -1.4626967318008033
P 8.923277589994326 2.0855186264545678 12.766427026433167 -0.14625823177101263 -0.2319513003644586 -2.6281274011897384
P 6.731642241235571 8.142960913722629 1.3498805639795406 -0.2132120720837425 -1.226490512814733 -0.1808933053463788
P 2.1208756716556714 3.471263159748977 5.7837944392366225 0.33934396541852524 1.2876927953556663 0.6951049387424931
P 7.040273323520911 4.21764509588697 5.857947590353079 1.7223699235605627 -0.6120984158422749 0.6404851945150841
P 2.3173634697807306 8.529162326222254 10.29721243255924 0.4501070896067215 0.7286210682220677 -0.13174075488112794
