# total energy = -340889.5731848311 ev
CRYSTAL
PRIMVEC
9.08352182963354 0.00000000000000 0.00000000000000

0.00000000000000 9.08352182963354 0.00000000000000

0.00000000000000 0.00000000000000 13.29465237412696

PRIMCOORD
 96 1
Ni 6.482537261095499 2.165175565874607 11.229381504018423 1.6742825811350326 -0.28401228272575607 0.4273358573484769
Ni 4.719189460048465 0.37734131444337765 5.8913262367415875 -0.7778384104869831 -0.20454771154052515 0.27074719018573373
Ni 2.5685475294503033 1.3652806143472396 4.772501559299081 1.0920953510298934 0.6584080975420918 0.1772459384017786
Ni 3.411816298755813 4.2959245831881345 4.728176696762537 0.6687133361228419 0.12026257903819934 -0.39351505214429
Ni 3.6171402311237957 2.6846076906547682 2.787901869973285 0.5526935915213965 0.5954816332212002 1.0718831377480764
Ni 4.7300442688955595 4.725820431143343 2.253231228605771 1.527476190170034 -0.22855487308839995 0.1292868940239967
Ni 5.366690162180254 4.953507994792957 11.309295605938166 0.3229765798040954 -0.6077589079266565 0.5003068503895642
Ni 5.681107194342056 7.849062317963282 12.187314297189655 1.0956907816906356 1.470179413331094 1.1463021760896002
Ni 1.8183485270463315 6.733206135525991 0.12826932318888382 -0.32466759435327314 -0.520115143364743 0.7339566215023683
Ni 3.1473768049008872 1.8673268779279528 0.135452572424267 -1.6418072342151468 0.45901621917089336 -0.5033862606458364
Ni 8.160127530489456 0.014755273214411262 6.335074455819658 -0.20735895573707513 -0.35906972598222675 0.9143128233983543
Ni 8.710225625702916 2.47235303096433 1.540211990295561 0.33398270110661193 -0.45512999674260973 -0.5878362008608005
Ni 6.683183179608875 0.7519911813039983 4.509093953548783 2.1827557693854733 1.6058567842624667 0.2910977288176277
Ni 0.433690943466771 7.267299064891267 2.3672321553620046 1.1044425597413365 0.05151282316731128 -0.026996068972869637
Ni 7.83619096722158 3.8716241848143564 3.6042597968600463 -0.22975840647819784 -0.2854299890088891 -0.22750277767480176
Ni 7.506241112358079 4.124037095478023 12.627062133157885 1.653667475987842 -0.05768218520281678 -1.6355874785576796
Ni 8.218080401154282 7.246406964181377 8.918331840874135 0.6774224338610656 -0.020716663722061098 -0.581874583960727
Ni 7.0585506447112705 0.9340676556951025 0.0116505253784806 -0.937314169389534 0.033738272792709634 -0.3851476540162012
Ni 2.198503008267906 6.3594555373481 9.203608934306663 0.6745772511027865 0.4460720003053995 -0.5224108813774552
Ni 0.14550530627454336 4.700722659725331 1.344740954292803 0.07883542224166423 1.8018450362687548 0.45163920998053186
Ni 6.438364093377151 2.2097211579969125 6.696210766929799 1.1640260757319243 -0.3959737980974277 -0.08508680246801475
Ni 3.6584975070073313 4.389357690971583 0.06895392421689074 -0.5478285501196114 1.842406759741201 -0.8727594254366001
Ni 6.087086128745465 5.482232562627995 4.389069743322668 -0.2503010065162399 1.3906726760540178 0.057556715368546035
Ni 5.828323836170401 2.766631894746207 9.045974401041722 -1.4644581945766006 1.56690225737614 -0.0010484958691723877
P 0.23625877505389756 5.602262222967339 12.362670781969813 -0.1580822209891342 0.8493870692592469 1.153660159116568
P 4.0322753557513655 6.501739826704502 12.515732670235902 -0.5158108595624342 -2.0540286045196883 0.06621156283006661
P 2.1676099497834116 8.595346322364662 1.2491150842870207 1.2437554705427676 -0.5945056424611761 1.1849908509090494
P 6.319251868764634 7.954867182775807 5.4943209137691795 0.6738866527936652 -0.4482916336645376 1.530215443478068
P 4.981430741567827 1.171401919759457 12.525078706070863 -0.1036841058542279 -1.240345416419954 0.10823007335369747
P 4.237235947237437 6.155294295802233 8.248281295258735 -1.6341173217700569 0.4160592559933931 -0.7387093056960051
P 4.755296460188384 1.2096072134924132 3.7337635706952232 -0.3731308320609832 -0.6744348119876513 0.12393771389694137
P 0.24311683419997024 5.4038326838336195 3.6759578530875707 0.4670848551116407 0.8970836040042615 -0.9051334708919314
Ni 0.6649583231554144 8.987808975960977 4.472587278438762 0.07262646521747493 -0.5716099688099253 0.06674455251540118
Ni 1.696038902672995 6.578759010147615 4.821465376545426 0.5243536069261228 0.5377611385812804 -1.1910046612032974
Ni 6.106988125552147 5.4577978883194715 8.926681414340452 1.1082007412321881 0.23961858710172926 0.9152430485221076
Ni 8.989325924142955 2.6826547334144957 10.02454041454448 0.05655784179038646 -0.9192025473904879 0.43259607730615174
Ni 2.4655948905607827 5.339730268742448 6.64937340219484 0.3955235979338866 -0.23336900664759166 1.9331237639118
Ni 0.7310118787824494 -0.008040733716693456 9.160880046593913 -0.127088086600465 0.4236463243120317 -0.10966320625579823
Ni 1.7218996899430203 1.2268386548170487 11.410561434783412 -0.2729585960147557 0.42367923443249617 -0.2588113579800962
Ni 3.866891669827464 6.9820583055469285 1.426210155187123 0.9960381655933038 0.5339813598238738 -0.1840763310600507
Ni 5.826425380062415 7.844684060336253 7.937970923414734 -0.6753822635025852 0.8276216525576973 0.3489838025011345
Ni 5.701654121214131 3.1490209223915353 4.497714117127327 -0.9159570438699967 -0.4241803424386308 0.3057003092221509
Ni 1.1475758414281343 7.677692591009896 6.946043957331897 -1.8238446804682975 -1.144000781649933 1.3519858010067813
Ni 5.284547872302193 5.064317880253806 6.680297344654296 -0.800040400505319 -0.9673423403205081 -0.09853881420786256
Ni 1.0144023246856548 7.464438743894202 11.173730397840504 -1.83953380906878 -0.016945369605086948 0.71853617318224
Ni 4.828346144496618 0.4151078740614259 10.42638452971174 -0.5460069235298404 -0.1466652374014442 -0.7520255631889371
Ni 8.08720501548989 7.191551574534842 4.3248301670485745 0.22766295740174985 0.42795806431350814 1.069036412327901
Ni 7.2858930345230695 6.5180992499125505 6.691610871364804 1.1599022833715378 -0.9782710714178702 -0.10581477904398551
Ni 2.3160710341323023 5.302705832875702 2.604010507877035 -0.28294038981781594 0.42880652835673244 -0.03564346023522248
Ni 2.2674378570884968 5.3460160659995095 11.429904794984157 2.0177058588292542 -0.1156543908422266 -0.20696429140181777
Ni 1.210224892991662 3.316085059894276 3.7716000734330395 0.0003887507979864272 0.2128636876053882 0.5088897069625687
Ni 1.6261775346035312 1.2242226004672885 2.53378761563007 -0.451607585411648 -0.07399094966516934 -1.1204314789704253
Ni 1.5394662331354385 3.5760100432914554 8.106454815413542 -0.6095561090363953 -0.16269966515648754 0.8093351955436836
Ni 4.2204768490592866 3.0259028645559467 7.173741512855763 -1.765252838967018 -0.2295789434775401 -0.24250439328995654
Ni 4.182398724634999 6.9016873024681855 5.855031207695278 0.14725530557695932 0.9029747726777159 -0.5489845181009254
Ni 0.6858177231859326 9.407622114443152 0.10479750221742438 -0.9133705140897431 0.020047919789810634 -0.48366487095750893
P 0.5248531707382752 5.826207375533269 7.964334937806205 -0.21436829717537279 -0.8971864481307129 -0.43698700728499573
P 8.574445138132724 1.5956569005229957 8.070053509159274 1.4301535077574596 0.616861384448557 -1.9783078166476058
P 2.034127593291308 3.2283019028245454 10.58654519045817 0.36851467344521055 1.1185864553418863 -0.9142215492361287
P 4.1378894666008845 6.303664544930645 3.6308763331644465 -0.8924103668983082 -0.4217164542791704 -0.04866969729156134
P 7.182858643935119 3.964784786936372 10.18060622355177 0.20079132982188647 1.5620732114186129 0.6193319574762366
P 6.657322392338851 7.960607968710002 10.106023240721873 -1.6196669506726815 0.02335718666870171 0.9168931825310209
P 2.6236118401039357 8.463835090156927 5.785460512331344 0.4058648319588945 1.0904948393119929 -0.9816415305519998
P 7.0414463726953045 4.029523048570889 1.3713565822449985 -1.0640818965361027 0.5924731854121796 2.0040185911501487
Ni 5.4689342863500485 3.066260953014226 0.1591460313336922 0.5582695429472773 -0.1638659175504468 0.567420613318926
Ni 1.4217801214844212 0.9261468244694396 6.9723007861632045 0.08457335316670597 1.7488319744068332 0.2601856126198035
Ni 7.047005488188544 0.7218402465708075 9.166303817608641 -0.2537097750874727 -0.22228883757403006 -0.1827110752814079
Ni 2.8532069433835834 1.701125675019751 9.229839420924034 0.5618593171810646 -0.5526154299852934 -0.6265662704411467
Ni 6.38987625268611 2.0340640086369732 2.353831235284917 -0.10638170729104904 0.3357138248651057 -0.07947665537008893
Ni 4.4587103818063705 6.9668070720287085 10.34115293398523 -0.5126640864033364 0.5113566804458225 -0.8408340374829132
Ni 8.230688329756598 7.320655673399917 13.489951310086596 0.3295544901319292 0.2845144191731552 -0.005450738701926096
Ni 8.02640900242411 4.123773673338637 8.048516478383991 0.36789658024523736 -0.4918916297426754 -0.000601895250057028
Ni 3.1966549120100853 8.539282824285774 12.398313614133091 0.48597166471381464 0.660105796959489 0.44247656964465726
Ni 0.2835448657780177 5.209372643834779 10.193116958468178 -1.2323659977589034 -1.1759089432124392 -1.2898041852717141
Ni 8.683420152139922 2.447218925458127 5.736629314506897 0.6131294282099505 0.16288041370872594 0.4718509090417164
Ni 4.11791480161782 2.7885050158372575 11.296253484981964 -0.5896969082186232 0.2007278235738027 -0.2697058934054129
Ni 1.236212849570356 3.658370337698662 12.719645931629865 -0.045289982186051035 -1.0945710662638957 0.09246586854090527
Ni 3.355216872876105 8.376787698373066 8.202548486804785 0.43120562471652835 0.5688532320003945 -0.3297604354951482
Ni 5.577845715702911 8.100548709378076 3.496985218180193 -0.9513953300729486 -1.1923336644273659 -1.649238493682211
Ni 3.0437974029900703 8.36597830713621 3.3187574320807327 -0.3711737083346124 -0.6107537288889224 1.2037725023919268
Ni 3.697892742128546 4.311175816706354 9.463359514080524 0.16495426551861914 0.0668975331534977 -0.6019376732591891
Ni 7.602017768829854 6.501839745447027 11.30704925093575 -0.5551587652324375 -1.0196285513187344 -0.04235121127270125
Ni 8.118170742150767 9.301980753027488 1.8684841186368397 0.531356263496201 -1.1440141513863715 2.4529560859288013
Ni 4.204589768997722 0.6110730536635832 1.6091186801978035 1.6979732398837533 -1.59474241951686 0.35066967484398964
Ni 6.055357386232575 5.872742258984037 0.29755801524112546 -0.5571480277483243 -0.09767466643535437 -0.25782071193205275
Ni 8.343478423023862 0.10923480273776413 11.311090509894806 -0.27506175840068753 -0.04931427285409572 -0.2248601978456321
Ni 0.06602721341309654 5.035595783538731 5.9536382896371425 0.19119880103744488 -0.6816313297360905 -0.4670421747991633
Ni 7.173166525910139 6.36154474741909 2.3654245344744966 0.13549867926166342 -1.1802404807082576 -0.577793729023134
P 8.626348383113731 1.5860283671523507 3.698319667664792 0.21294981956129133 0.5051891181825299 -1.0627150980955633
P 2.324882050518647 3.451820129854229 1.4152290853835634 -2.5620011989846265 0.28354048529566006 -0.09862983125977208
P 5.082157917555643 1.1150295819309441 7.967286174119528 -1.5817894589006178 -1.5902327045719646 0.7628691907716604
P 8.842082031748467 2.0921894662207077 12.366712949281075 -1.1663881482061977 -1.211858364723855 0.01708138096231897
P 6.383699457693621 8.10768835770763 1.2427429935705039 -0.48001493290974745 -0.5444429214768302 -0.19518503937870257
P 2.119630786327046 3.1008146708839748 6.110794121290167 0.12781545168479277 0.026376176000683604 -0.7290039054827832
P 7.093631206859791 4.228997192740103 6.0090504991852045 0.480118034146515 -0.4388790821013861 -1.0199607378471727
P 2.5071701709734646 8.499406162496028 10.276846139647985 1.9462343331518288 1.2472215747144972 -1.244683895894308
