# total energy = -340891.8109502629 ev
CRYSTAL
PRIMVEC
9.05579930616880 0.00000000000000 0.00000000000000

0.00000000000000 9.05579930616880 0.00000000000000

0.00000000000000 0.00000000000000 13.25407765880027

PRIMCOORD
 96 1
Ni 6.519541742808927 2.103698449879134 11.628571170778551 -0.8413883673244864 -0.9519609727684314 -0.6809201626016789
Ni 4.515303138972145 0.17936097629828202 5.931332246874271 0.5033685200340233 0.48690086139630345 0.7512696588595191
Ni 2.759447004155633 1.5057440080894136 4.993845091654311 -0.1086252519095871 0.7473523260829839 -1.0278301132929202
Ni 3.610438595914888 4.44175193533416 4.938893594634408 -1.234036700593107 1.4338070453496468 1.5216516130684568
Ni 5.0664662646823935 4.685823843786629 2.72764937532849 0.7059848188797906 0.3971873587895547 -0.1768510169562051
Ni 7.4433057394481175 6.212767478534074 2.4060924239299424 -0.7843289033073331 -0.5792985957034346 0.29423833132913846
Ni 5.1316861327691665 4.62935187802863 11.177627672689725 -1.0352806560336942 0.3499644212468489 -0.028565470342518547
Ni 5.735490621043759 7.893406142602358 12.319294128351068 -0.6654619190650797 -0.675465824355327 0.4202370415201666
Ni 1.9959434914836185 6.741372607659464 0.4002690551785276 -0.9768240545586983 -0.6156750774499397 -1.1896298923429578
Ni 2.69207185578496 1.6638401559731777 0.44808548776277846 0.7336015521557946 -0.9632059495546316 -1.5065597517323408
Ni 0.5096051561688709 0.062201570109360185 4.569078287635414 0.5345518876153632 -0.05823394394122874 0.7265294758003616
Ni 8.604576189893443 2.225671013508783 1.212090691727768 -0.4197675580829158 1.2383911209070608 0.8054402313646517
Ni 6.868072298634475 0.6964090940862196 4.905254921766438 -0.41763508512094527 -0.805554902565645 -1.156673234911279
Ni 0.5706367169812565 7.4938189891270985 2.2870575616620465 0.60255525223853 0.016010773605959525 0.6289885067293941
Ni 7.438424663511049 3.919377196273154 3.6890212017618436 1.0361831132433057 -0.09464025048440475 0.15434769364736645
Ni 7.730202523793721 3.867116177288322 12.6555504535178 -0.1087653770318772 -0.5266665713300156 1.2159464187502993
Ni 7.9419180605891455 8.666970648532413 6.945653333055383 -0.26125262043173714 -0.20481382071771823 -0.3974472973191607
Ni 6.925531346539303 0.5525377960761992 0.18196632981793828 -0.6527876660315209 0.41135233743602706 1.7819876352231954
Ni 1.8948264341305365 6.458089087319225 9.135439835417174 -0.6126653440893384 -0.258727025796406 0.36161768921506104
Ni 9.243254562089469 4.781525533031424 1.436026124384938 -0.9672896327057018 -0.23183354383967167 0.11459663900167362
Ni 6.345851508165176 1.7396462536896966 6.896732998510597 -0.23061946892691254 0.724478506808604 0.855527892049662
Ni 3.4311065981750453 4.715870986568067 0.6230779463763814 -0.2049457183098922 -1.0845545625681579 -0.5813639628728955
Ni 6.183761752696538 5.6046886528897275 5.038498333468955 -1.024990072740964 1.1438699124990235 -1.2500772989957374
Ni 5.255650972291496 2.867401190140417 9.372395696612966 1.030188843333084 0.09273172060778223 -0.09075557071801789
P 0.04263108178357244 5.461715690191316 12.548577010620185 1.5610005471797244 2.09816030473158 -0.42768964114346986
P 3.9584891943662908 6.21184378698383 12.260128062238193 -0.24414295733464403 -0.4530597444771423 2.1997433050824053
P 2.3772379299442608 8.644240591756823 1.3416311870097524 0.7358481820981263 -0.8716466519883956 0.2074108920209331
P 6.157988947284853 7.752878245772237 5.727352174022157 1.9369670489172899 -0.16692373054016413 1.4827227972137433
P 4.771437372374847 1.2038327081526046 12.44773977747203 -0.6378169036543015 -0.5435108965808639 1.0618301243874486
P 4.147547120782223 6.08804195185272 8.206447925719596 -0.30952148274045405 0.7780854935007826 0.531448051879059
P 4.609139333517428 1.177244880784823 3.6814922100474115 -0.21367512776309006 -0.6982272864215588 0.16839774398252935
P 0.20411862658465058 5.564390345060494 3.5746908273405293 -0.8322054152736378 -0.4345586003491612 -0.49318900839786034
Ni 1.5148269750001373 1.0942213108570908 2.554617497309276 0.05663728887807021 0.6325895938170911 0.5361657690697024
Ni 1.7379980981784786 6.351792112645171 4.7832642465377635 1.2305132608208809 1.0362705307507896 1.0044076206039219
Ni 6.2387032883369775 5.528203370209795 9.036497981106919 -0.6731315197951956 0.3769136961421831 1.0958581605064353
Ni 8.70161813746604 2.165948015725909 10.118415177166801 0.0665972283042595 1.2728264197667951 -0.3005082234982502
Ni 2.363011268910614 5.103694656476995 7.030651972856723 -0.11706541225714032 0.023037084325121613 -0.22276834831360987
Ni 0.788264785278188 0.1273308802010105 8.870874652668624 -0.22005480603718874 -1.5281176804087746 1.5464869269445816
Ni 1.4652193052723759 1.1320111622214482 11.256820639423804 -0.09190279694858365 -0.18428613307801164 1.688345744096318
Ni 4.129236294168581 6.884499518949583 1.5425232322282105 0.4739360737055193 0.00395718487553512 0.5387767243299882
Ni 5.832976302792455 8.182802327613324 8.288530598078012 -0.7044676109043158 -1.8859409355784098 -1.0334510590241235
Ni 5.199197118132521 2.8936177297281986 4.884816887847382 1.2396242219832136 -0.8423486743552266 0.40672975106235115
Ni 0.7439466080454951 7.152524017111787 7.104835271300659 0.9746399024231858 2.6702646966794203 -2.0870698512453734
Ni 5.074661763240924 4.503304204618497 7.102740664873489 1.1530590351974594 0.23917172937229775 -0.7196556314986639
Ni 8.400458468888743 7.1328185973732685 9.188840073980638 -0.5916555746068907 0.32091969727506664 0.5243068128485874
Ni 4.842308059357225 0.35409987252554365 10.298551329903326 0.02987313341034855 -1.064990010172669 1.9424905498386804
Ni 8.345381096255622 7.126805546497176 4.756478097160666 -1.0707395110619367 0.017944243183246517 0.4636622025833369
Ni 7.422477400570087 6.124672660879516 7.107552011154315 -0.2800090751036339 0.2530957956525577 -0.8472653949305536
Ni 2.1581871955439644 5.402219087396246 2.5860963619935897 1.339620337462893 -0.08174719657182049 0.2623947044559804
Ni 2.0268962142162743 5.344171412523127 11.32965190700057 1.0842450017475391 0.08277692338791551 1.1226385139240729
Ni 1.0210504507986184 3.337333794226347 3.7278551868099563 -0.47376252424213244 0.10891167280175437 0.35894451325827215
Ni 3.4171697227257893 3.135615860092377 3.1421704477792978 0.6179276209295422 -1.8778512165917403 -0.7326078207839576
Ni 1.118364072356582 3.3305419445922064 8.23068939543377 -0.24251339215102102 -0.08268230679158019 -0.10489560966382579
Ni 3.638629299796327 2.8325725852165444 7.423026182020527 -0.8201299721663424 -1.5003078572853579 -1.0488653366966647
Ni 4.140836773343692 6.827312145030121 6.113138289040844 -0.3402806183001817 -0.5076414363777644 -0.5629039563954951
Ni 0.5866156752205108 7.634537057746975 11.359752478999129 -0.43517026579123125 -2.8053946797477556 1.3417168149806054
P 0.25965241151318735 5.458256374777661 7.981923866094134 -0.5486371620638358 -2.8532398242554926 1.313045415187842
P 8.5327636997618 1.460836298308477 7.863272969725555 -0.15532651262086797 1.1589046953449589 -0.15231729348089898
P 1.7708797062072303 3.189217137405013 10.424225904373557 -0.5977434326721836 0.4263392977631625 -0.3253152552396011
P 3.941745021068257 6.2294029822379615 3.8386728166004933 -0.46888102778011503 0.523418496706363 -0.7151947675138328
P 7.006426803581672 3.8370509229078604 10.612884470031002 0.8072477168870356 1.19547735226267 -2.980152561620358
P 6.554968030500603 7.7295323946298184 10.347233496920941 -0.17004145023353942 0.16150384507617346 -1.665127911218958
P 2.292656762500432 8.336080790156606 5.887726761063187 -0.33828364247481096 0.6782025065601998 0.4464718068469795
P 6.808910760421356 3.915546593079499 1.5967982610245535 0.08855907728733135 -0.06713304620307148 -1.0589746572165246
Ni 4.9736805428805235 2.668608279248883 0.8778121531744998 0.1885539072154301 0.4933440459184858 -0.43196461436973993
Ni 1.7165267975350826 1.1691037170233667 7.123046484119667 -0.20625646670151576 0.10803492662375587 -0.9996109705462268
Ni 6.885767330881289 0.9619794705806213 9.248788561171366 0.7079815375948452 0.06705411333602 -0.13286509829355828
Ni 2.9497365193052225 1.4676009805440813 9.453643424256358 -0.7346212516695606 0.1473190689353592 -1.2247395915618973
Ni 6.402278194925614 1.8750304563968951 2.6917041903247654 0.4242721308214886 0.18446842429214683 -0.5137948575736699
Ni 3.862887118916131 7.001636285639725 10.313209952573704 1.7735024805703197 -0.13129389715169645 -0.53741249699261
Ni 8.172424381372359 7.313789694824817 0.15164660747118433 -0.5049600328908593 -0.5224882715826098 0.03415093485009602
Ni 7.608755196535777 3.57955831957833 8.030288174548872 0.42998846447997563 0.25996989706457163 0.5193594961456411
Ni 3.3528101555926746 8.531722282817897 12.483631533258633 -0.3726713759260614 -0.134322142455059 -0.41168478107478135
Ni 0.12295421229677041 4.724021206129035 10.150092363860432 -1.3370564333904587 -0.15164674977643558 -0.28476638728296116
Ni 8.554443283793974 2.1785627444463858 5.654865932406806 0.7637078846228719 0.6779448820234388 0.44312371631035297
Ni 3.6426772421782747 2.821741848999969 11.369559909870828 0.07447868793486528 -0.2577957722313883 1.2419276733054097
Ni 1.1226474655258465 3.5360633145212947 12.838085487545104 0.9742429240950833 -0.9936714651333403 -0.8403486132060625
Ni 3.168841588502592 8.222167888092802 8.01344167071635 0.2545772652940906 0.48070064612286245 0.2949446133675437
Ni 5.551992955528311 7.863177883830678 3.6711414312049815 -0.24444814727988867 -0.16293620664732583 -0.8043889072820019
Ni 3.176059060713805 8.463975846667225 3.915161721600231 -0.3062111874202984 -0.8829973011145243 -1.5511182550690061
Ni 3.4258361228589522 4.285974072125517 9.273269103992662 -0.6465920787437702 0.8303418797023377 0.5744798341585525
Ni 7.215615772313196 5.948365300176744 11.369759137460095 0.7433617168663521 0.1918390057246051 0.27675482983239436
Ni 0.4779904544918742 9.243888468055323 0.3681336450295802 0.5558329084813265 -0.7961845170943385 -0.32378956262369396
Ni 4.579463478515991 0.18897551864037118 1.5581490142864896 0.04092219213565856 0.9044886382190809 -0.06220912653889286
Ni 5.774312833552506 5.3157633694533954 0.14887100492069893 0.3836803254420554 0.7251053417593253 0.9696519622902913
Ni 7.993771568595928 9.050664873863784 11.362509064370638 -1.0782309343429752 -0.6283958674507178 -1.2203509755758983
Ni 8.97943195490092 4.670845551393472 5.7061326246052 0.8209673804659732 0.2457193006828284 0.24678939381855566
Ni 7.667817120954263 8.779235395084998 2.7895195031757045 0.3703005617010397 -0.2763030870069564 -0.7977081528277165
P 8.579953471019806 1.6593032004175718 3.372619717025584 -0.8317436451458707 -0.26557284507364587 1.0675469722665678
P 1.9910986387445986 3.1763216788996584 1.65699849944172 -1.3894773701943361 1.6124933157423778 -0.5910487942608272
P 4.733873915998295 1.0240116972391036 8.254056980495019 -0.249269479927932 0.2162166632380212 -1.450847288661385
P 8.61147670912173 1.6886802140351072 12.325722840424772 0.346851329539164 1.7506361174951077 1.1905639741214529
P 6.258263815283302 7.738416133951275 1.3365409221039521 0.2579582659511816 -0.11078086480000919 0.04481201410836799
P 1.8325768682837615 3.150720933678705 5.9647852758522415 -0.1543852317535212 0.6626136509830072 0.21862013047319123
P 6.950045395818793 3.894156794631713 5.9436191556524065 -0.31523087442040554 -1.3308521043519597 0.5939559406052932
P 2.2041091548702654 8.310860388515163 10.448812400049146 1.841067214994171 1.4863719639305562 -1.849780683607769
