# total energy = -381163.2297607074 ev
CRYSTAL
PRIMVEC
9.34814317335051 0.00000000000000 0.00000000000000

0.00000000000000 9.34814317335051 0.00000000000000

0.00000000000000 0.00000000000000 13.68195245900004

PRIMCOORD
 96 1
Ni 3.2432727531753094 3.7614029233113104 5.01522913773433 0.2715077225008421 0.8798566986030136 -1.0145596214362593
Ni 3.252078703817032 3.4353210015654874 1.321108538360104 2.188388285080902 0.06429069165826992 1.2147367147129144
Ni 2.0818781716187016 5.94082896642298 4.3468378529274325 0.20148887010954333 -0.4997257810751136 -0.07763163174155017
Ni 3.3374739894987044 3.75594360783916 8.7921322168408 -0.5286411785578831 -0.46614023181018427 -0.35560362181049726
Ni 6.593637831776918 3.2081517801806685 6.926173711402831 -0.3727245977615 0.8737904378042758 0.10477888158030342
Ni 2.89851324185182 4.851611396442529 13.25760641690097 -0.4140000594715193 -2.168075541665479 -1.5226895674146679
Ni 6.496146049141541 7.050640495282108 13.120444854920354 1.6884138783300922 -2.1815193258752106 0.05714328198021126
Ni 2.0027367935583804 1.145353168285699 8.519997493139899 0.8357607367250639 0.3614981329180613 0.19465436368621314
Ni 7.410207465009513 1.2279627073737054 9.944425446439041 0.9153651759222687 -0.6254655811778003 1.5073570508226557
Ni 4.4257567451859785 5.891564253172578 0.850062159728523 0.6040637184632563 -2.3831316089364956 3.9984117433953905
Ni 9.056705227724198 0.4285637430781754 1.3741190524832634 -0.9848217280521941 -0.47905616854090405 -1.0164799783874237
Ni 0.3699191032100415 5.083034022861301 12.76890046145699 0.13726271314062166 -0.8015334401110776 -0.14239926303623862
Ni 1.9987170920977213 8.296420763083757 5.075977109762111 0.4707653892870215 0.9492590004562362 -1.7056477257098754
Ni 1.7115047486621766 6.600396539116584 0.6198800318767963 0.3328115636166462 0.013952348415034036 0.860836448746769
Ni 8.833368744941401 7.5322755154125 13.274585448907933 0.38695539664890133 1.1056872307817154 -0.2389326167782982
Ni 0.42298570619079134 0.3455980397444688 6.23245737257949 1.0833199188301086 1.5916437259868783 0.12089635596745629
Ni 1.3912373718199111 4.50537487853582 1.9142145540660325 -0.820890761591767 0.2557607440792305 0.9748898136504629
Ni 1.699688695996426 1.921435994480821 1.3515414176744647 -1.3032577396734588 -1.2554676167733732 -0.5047054936778921
Ni 4.429552091216276 0.4708061313582347 8.349739765923665 1.1590381355990298 -0.5318244613818712 -0.38005198466084866
Ni 8.24357571109049 5.614438555960407 3.741685820239632 -0.35485157413582114 2.2678150610496624 -0.9905303484011972
Ni 4.860436043370115 1.4576652754930324 1.2952469009393766 -0.329769948576845 0.5051204697281236 0.5076416934880805
Ni 7.371263101555781 4.531605767602353 13.546719237794541 0.4253098280573837 0.8689827320029874 -0.401624825735618
Ni 5.745929534438613 2.4922336018943856 9.165060487260577 -1.269702786536149 0.3991156861605191 -1.0386166623854631
Ni 8.725874449369037 2.663828113549862 0.15911006677010447 0.7192478545372839 0.04898928541450918 0.9132388736078854
P 2.453317282869448 6.656317130134401 12.325633024361442 -1.1737800697948946 0.8914063511138259 -1.950853577091395
Ni 2.98161823251521 7.44170135854663 2.5424761308954493 -0.5741250219222951 0.14633279376268993 0.7787416390275427
P 5.979829418734303 3.255920790561987 11.129748469458088 0.5083484897471181 -0.22512784968472196 0.8840159721870259
Ni 1.6317744375971537 2.384169069603183 3.694688031650184 -1.1139723536086428 1.4631111936304029 0.7538111943344501
P 7.914614561321684 7.638077797114215 1.9218220727839028 -0.2966520829769536 1.6478974062732847 0.1860041442103829
P 3.8473871419976846 5.018204651629511 2.9794644203837315 -0.9926042002110904 0.3761541922683393 0.17527595915960137
P 9.178259130265936 1.2443873945048165 8.091560884805595 -1.370298226162724 -0.5188763858616354 -0.42510388269416466
Ni 8.300262849828714 6.400449109949063 8.99321544537453 0.08915428766916904 1.5326297093465153 -0.3058252648357894
Ni 7.0756187331957845 1.7090555352140542 1.9464768649521396 0.0675315671930708 -0.04865684177575491 0.47346556182700406
Ni 5.07773362581899 1.3564155393990869 5.7288934787597645 1.7388908040337216 -0.32222041836436116 0.629066411155181
Ni 2.679402119674182 4.997909833324648 6.785482290651183 -0.6877443846123639 1.183989663338045 0.8416593615976861
Ni 5.23080946632664 6.77972196497663 11.138340347626672 -0.8485144368463063 1.8834312817826788 -3.694672671664669
Ni 8.259504946646219 3.404920840751388 11.483850514827584 -0.4597201872164534 -0.7496316090354638 0.09301737016900109
Ni 1.5223637727237773 8.835761869531932 0.37587480507186893 0.9866212431547782 0.7038760000669039 -0.20600552703297423
Ni 4.317112628033007 7.407926518134162 13.196571456885183 -2.1451634129539956 2.3182840163334912 -2.0714344587009617
Ni 8.959615415234886 5.9128686709140705 1.232695672140058 -0.31531212128030217 -1.076573087024578 0.6669737277239158
Ni 2.8158663101920864 1.5995981296260189 5.731342692207886 -1.7148849280374272 -1.0911129325119662 1.0392021025752876
Ni 6.525985321379735 9.013385933378398 0.4332265967725398 1.9922622219451689 2.135350540628632 0.17334506068547567
Ni 7.445010601144474 5.607296574760539 11.279100009821722 0.2100233899431157 0.5999185859466313 -0.3583678148191957
Ni 6.7434792148301765 5.78351841716724 1.911929867933509 -1.4228011811574464 0.11526281183076278 -0.5113137430230291
Ni 6.729111119144054 4.299351156462654 4.801544612528582 2.4883429500685277 -3.2752498985156815 -2.0862285862910004
Ni 2.500403878816748 2.7291809807858307 10.881858154450718 0.39650370245896877 0.40159191561515356 -0.38164941105495565
Ni 8.926448204112985 0.4950748452233895 3.6054543984807292 0.8179872147917266 1.039530946669616 0.9325067206985618
Ni 5.170308285272258 5.037405737211356 12.164103658200597 -0.2234520046441958 -3.2876654985712155 1.620883596688602
Ni 9.133042162904989 5.397505551085872 6.124014240499551 -0.05011825681262982 -0.4505621748662692 0.6870895246371844
Ni 7.101662659403681 8.469969036611973 4.138119996061332 -0.11604314164021305 -1.9735461335929043 -1.2902240464179522
Ni 0.11209638633767244 8.635935966222526 9.32882032032494 -0.26281302294032155 0.5717364670854606 0.31231652898708795
Ni 4.985345929224358 8.125854547150775 1.7318201328814882 -0.01653450731991346 0.19064215720302652 0.8977582614737829
Ni 1.0838984766522766 7.081769811244885 7.3309679314484075 0.04517068299936736 1.152410345869867 -0.25676270298118364
Ni 9.124002508689973 7.725669896384852 5.256537425303444 -1.0726765801836493 -0.9067635502961867 0.4213009640083067
Ni 6.845187009927779 1.5448554046176035 12.398612106601144 0.040763555070607214 0.5481414533743398 0.5231780985607828
Ni 0.3566606320899194 6.736813988919829 10.947997200507249 1.2177245936966445 0.24070487818737252 0.46303048253660906
P 6.53608131574604 5.793259182102139 7.8502114654075825 -0.7678422185062196 -0.14068870810303513 -0.27970002850364734
Ni 5.246271294735779 6.4817125164548965 3.9099738937401436 0.5385095867115306 0.09331947479045219 -1.7367917554128474
P 1.50611670030837 3.096581694290055 13.130651157373254 -0.5166415829938457 0.30546659594479003 -0.2463296805733177
Ni 5.8084686106521195 8.123835348277515 6.616222945100062 -0.02335538689648881 0.8340897767805442 0.23405112031628075
P 4.226173893592798 8.776560080345066 10.20026448738129 -0.7128254959507078 -0.6498578939792357 -0.5825363859144419
P 4.140049452762448 2.3757370446787314 7.324386838824445 -0.25696350613808 1.1701913240023716 0.8265533591941829
P 2.116232596892938 0.501709222262063 3.046628957719876 0.1349057828726709 -2.3289157850157247 0.020499919725564697
Ni 0.4806338340223991 7.546494040811714 3.221702848174555 0.44908044811442016 0.024700073849841332 -2.391079660138979
Ni 8.89062612039846 2.8914086532236785 5.257891971214256 -0.5906939820245698 -1.286254777357559 0.81412644628474
Ni 9.251604659708564 1.0154420259629622 12.246852484618286 -0.025147702910221205 -0.7748291913470139 -0.11932026972958805
Ni 0.894459294954354 3.0080080400115823 7.349410882638487 0.012196542066191897 0.9021988137436397 0.11136759054141465
Ni 5.3704520254413435 3.7869887905155513 0.497132371482671 0.2976023627053649 -1.2312781640113633 -0.7601276234707811
Ni 7.440046737247706 0.7473672007373264 5.652917381896138 0.6036024625561217 0.6731299771332988 -2.329514080721356
Ni 5.313101168554966 4.8622682793847405 9.624870398088175 0.6586855195731945 0.584482196786903 -0.6147070571097155
Ni 6.976219929402328 6.338723322170621 5.631477416082136 1.2770160323681103 2.339533412630571 1.3751203301417154
Ni 4.851574003870802 9.000607021990675 4.123740682603691 -1.1031107283037904 -0.8032036287246489 -0.19555990621961805
Ni 6.669666278240961 8.280884149531163 9.310376434320569 -0.4859708933828663 -0.004639298544224268 0.422833084382117
Ni 8.159535906133925 4.176666128626171 9.022768664439011 -0.4094078121151465 -1.69247647843524 -0.3009270562032237
Ni 8.182943656035063 8.276864448070505 7.245619386481395 -0.8388254916933167 -0.3268103517278888 0.7222323910869045
Ni 0.3178480774515247 1.9765246007777115 9.987701739327354 0.04979944002063036 0.3984919365335911 0.7790067197634712
Ni 5.596555558531942 3.68629059485458 2.7436416230869773 -0.17381248724019743 0.4050852734803927 -0.09775925572936067
Ni 4.367358896291243 2.1180648329075638 12.388501155206146 3.3849375302515123 1.574435846749024 0.21801489278902453
Ni 1.8545219873752479 0.2524232295149817 10.891449349098709 -0.38978669545010936 -1.3157846684958758 -2.878118846885359
Ni 4.052513442349402 1.986919735717834 3.727962746415801 0.12803733788761174 -0.581544711425134 -1.691522856272719
Ni 5.152855302418652 5.100393524285588 5.769542008669958 -3.825700716749489 0.28321781184891864 3.163771750538332
Ni 4.01828989107621 7.036057392308555 8.0188687905539 1.151402730540959 -0.990125913873927 0.5290949782658501
Ni 2.4138307271256734 7.60314378697821 9.71285885861912 -0.06279250984618863 0.006676126468594954 -0.37702271091622164
Ni 3.9022140002924854 7.10875789988889 5.588037530692517 -0.8616370902711935 0.18799829182227623 0.8726992616226261
Ni 2.492383172181294 1.2340763928510796 12.54782809889227 -1.8525263646737062 -0.6956237873604407 4.430952541983575
Ni 8.669336880917724 3.28707815095356 2.808576628333896 0.021478738699066236 -0.07523639203649624 -0.6508786219342663
Ni 5.677800268751911 8.847316174195594 11.727416378914716 0.9605127189931846 2.253660881036467 0.4929689219672542
Ni 0.9120889577093695 4.237288835538666 10.395287314852355 -0.5740306624362759 1.5557493260831141 -1.2526622861140944
P 0.46266576849325386 4.50400070152485 4.324139627074815 2.365339060839765 -1.4350326902266317 -0.8896050362390292
Ni 2.649235662433377 8.693464437824607 7.2510244827245405 0.5067088972611661 0.4327608850187902 -0.4368697649808412
P 4.201485448110007 0.11219547665274913 13.550728656297974 -0.07800752702373016 0.5794050393743119 -0.4690674327593083
Ni 6.954737896945132 1.0455710906320406 7.669117370904847 -0.42994835527065955 -0.7225756333589363 1.9605260671841527
P 7.9989815512808615 8.069924607990025 11.31054155375842 -0.6230531150815657 0.32571454756054874 -0.7489932041205165
P 0.7452956522636474 5.282551437453959 8.191959005078457 0.1673487338927247 -2.8950703871380337 1.2107023967425405
P 6.402197212677304 2.20051545356573 4.064264992828924 0.6786907590505279 -1.0098501317757318 0.4032708459794732
Ni 2.9854042304025743 5.4469946197666355 10.546254214314601 0.433072502721938 0.019251649140760392 0.38198622556908407
