# total energy = -340896.61821007304 ev
CRYSTAL
PRIMVEC
9.02026325831989 0.00000000000000 0.00000000000000
0.00000000000000 9.02026325831989 0.00000000000000
0.00000000000000 0.00000000000000 13.20206706074117
PRIMCOORD
 96 1
Ni 6.266439949324747 1.9127197393065922 11.578621750309203 0.7912225451033729 0.47807966356024767 -0.9230777140751779
Ni 4.632996577279524 0.40528854138379966 6.082297591384637 -0.499766661615378 -0.9631856378396575 0.4409128247019632
Ni 2.8237572967831257 1.6644369962146646 4.94409462886713 -0.3353638977248547 -0.42700135682719365 -0.16661236994733242
Ni 3.4368194814967623 4.2685959867099434 4.924701063103365 -0.5937322546302612 0.9975903405717722 -0.1974614941177051
Ni 4.986888561284086 4.492650302991883 2.6547374100071797 -0.4333239566111118 0.29837960719102163 -0.001316404818578378
Ni 7.147007057894305 5.914550463738582 2.573267295299387 0.9336925134765468 0.12503737471902335 0.18527960733953253
Ni 5.039584938582653 4.437924366485481 11.315993180709976 -0.25268853291181 0.9508960218390268 0.814520596399365
Ni 5.781023508389271 7.836209283822799 12.238039067329812 -0.8034188300592486 0.7537307188055019 0.9054643718687889
Ni 1.5814595955351864 6.777852788646816 0.5225681987546488 1.267925640031068 -0.953553256956216 -0.6867164575684819
Ni 2.750485699248676 1.6639408817416381 0.36657537601406537 0.04441889243500737 -1.260017183817269 0.43705642707035053
Ni 0.4898029949033457 -0.09698767339774833 4.958141884664299 0.5140756220388824 0.9630884501401608 -0.483529116710593
Ni 8.722486218963734 2.239839582294013 1.3988642127246043 0.07179111380037313 0.7775334776520545 0.37670132302106096
Ni 6.6891024195539375 0.8553148818925052 4.694180120172103 0.19139780442212842 -0.7403357855558346 0.21713763239039374
Ni 0.8236140690924226 7.541697692107943 2.594721089165685 0.08497367392891818 -0.07107171913584534 0.8341309144311246
Ni 7.569083211019008 3.616340758627209 3.635862412127647 0.9650733417806734 0.713395766631881 0.824188201396116
Ni 7.442249290923982 3.9203597076978838 12.624080171212809 0.6192357982180045 -0.9115023505327527 -0.5760271240410144
Ni 7.686283490074173 9.075647561653476 6.7636828572708625 0.7823504394247236 -1.8979225334203185 0.009629038449331802
Ni 7.03024877173329 0.6687244245345875 0.4483485715635611 -1.320171741819978 -0.5201915051286331 -0.20077616031323486
Ni 1.7751426858047545 6.3789226307545865 9.23711658614996 -0.3015988854592677 0.7272383289419281 -0.14193209359183298
Ni 0.01708347637209088 4.892915459829711 1.0600333620948132 0.08866680650978924 -0.5322826319652123 1.2475648169865288
Ni 6.340965363436482 1.9426760332142503 6.965568974845346 -0.07005356228397612 0.8209229003812828 0.3532153240839788
Ni 3.448536803323335 4.488266455102958 0.5227269553860173 -0.07015254975568563 0.11767990591268766 -0.16481208351380003
Ni 5.955502458421139 5.431353007537007 4.76783417686394 0.2527733793161324 0.06267192510792433 -0.6478961422671744
Ni 5.394983306532587 3.0018353318102218 9.125321248771838 -0.802363906432173 -0.1952220632642251 0.6764713828017059
P 0.14429534549293171 5.5683617844606506 12.153519201652378 0.7355969853192686 0.0039684977294447785 1.6811345710598595
P 4.183751391559256 6.191418420739986 12.553858324648 -0.6848369811575818 -0.5667374712089723 -0.5348830457025369
P 2.529949285593652 8.60408624491016 1.572960703599084 -1.0589620588110342 0.5400746172058054 -0.8622487557132634
P 6.244304223564617 7.731005954751731 5.720178225364665 0.575866430093434 -0.4284445170316234 0.3513335336802336
P 4.693405279567866 0.8492974643478503 12.66235314774102 -0.03384703045643203 0.8366691074719461 -0.7788048881653103
P 4.13571849030714 6.065270040644052 8.078252710896681 -0.02779568205602955 0.012231509069185386 -0.14055603917991277
P 4.632545564122227 0.9810347994890078 3.861089362618558 0.9415390061041591 0.744205810034202 -0.9058868041181883
P 0.1861980759110694 5.593726764427027 3.6399549055169587 -0.2074579432087847 -0.8769752632901606 -1.016916808814526
Ni 1.545622090056377 1.1423802463803907 2.8527024191921244 -0.7127895005064498 -0.3465340554090613 -0.7096360424791327
Ni 1.745691526633269 6.6701237858948845 4.840656565293722 0.769816568623771 -0.5100721573064442 -0.49703923538188594
Ni 6.08614292956375 5.503767680072593 9.163990214852157 -0.9512750024450004 1.9593091640579157 -0.8455491835703953
Ni 8.701216438465613 2.3283013029662207 10.186014894128935 -0.31376714539068545 0.010424794877749789 0.20061135260059645
Ni 2.2296196241496657 5.420014536762564 6.961159870219612 0.6054148331745123 -0.49519292620176647 -0.14193800712910393
Ni 0.7891638800854583 8.936040948943802 9.050465693028963 -0.11744336442184936 0.6562218885240505 -0.13787746390648511
Ni 1.4515317251811037 0.9475876637438719 11.41106134211027 0.04659070327534557 0.9534370430933257 -0.11357205439190118
Ni 3.9913221178669733 6.964265546820759 1.5207992279050717 0.43938867474795296 -0.6231523596635914 0.040439338961969065
Ni 5.729968818983266 7.793480297300493 7.886149068703967 -0.7261278694865688 0.19865422887422562 0.4576201101543151
Ni 5.24239653515591 2.8821364398636327 4.793486001198357 0.5595692355953072 -0.07778769770344023 0.25035371413104623
Ni 0.6967530882079587 7.38987764309867 6.880046055906084 -0.4469623733301529 0.7333074179541434 0.5834524699708081
Ni 5.2225339157085555 4.404098379688215 6.926900008765027 -2.0507339929288166 0.42492570524508755 1.0681259846984896
Ni 8.1468310655163 7.38627855810344 9.032603767947379 -0.14698071175933397 -1.0775169389950863 -0.6973901352322441
Ni 4.583637697344954 0.2871510569877718 10.496514902269967 -0.2593795717787404 -0.24999941611542104 -0.19076068505876181
Ni 8.056429988267716 7.104864388476485 4.632909080727008 -0.41119395748129184 0.2092309759488074 0.45680609889345203
Ni 7.1401336173771 5.893028115872376 6.889062710946764 0.7384992465677281 1.248212992093489 0.3928349953581299
Ni 2.1979133991916955 5.338967472396316 2.626260439255455 -0.105581837097573 -0.09483565432466247 -0.4853797967660866
Ni 2.3356077161144304 5.289347004830515 11.39764821081226 -0.23794119939930633 -0.4128602894401212 0.6443135671222386
Ni 1.1594285437262124 3.45103541621476 3.8022610104333836 -0.49584444374283637 -0.27900300243662274 -0.1320729414095661
Ni 3.5420949726729978 2.6104641544342893 2.6981853115022165 0.0769520891760223 0.14795078898208713 -0.21165963999495804
Ni 1.092570353288524 3.521384448489926 8.167947501540938 -0.5068909313649851 -0.3992761229977833 -0.08459546465389302
Ni 3.6906947877391714 2.5850630934153296 7.25803386885239 -0.048516459543148704 0.373652251782092 -0.5816125885485919
Ni 4.24324904726986 6.726491410293847 5.806124194645471 -0.7923137212850225 0.9014855897266991 0.9686281490114672
Ni 0.9389191908606261 7.432065413832219 11.3529194319505 -0.164987946970032 -0.3130768041918802 0.21551243808214499
P 0.12901231364476995 5.609674589669044 7.941861821998534 -0.23308078598321147 -0.2265869507287517 0.30625052529866614
P 8.588075277826121 1.4839325104013108 8.011528922379869 0.2745938176253335 1.272888126242666 0.8712149637676156
P 1.706940476158322 3.3490523210867917 10.355094314641644 0.39983379527346624 -0.4965779794747513 0.6061591675397044
P 3.939879557145692 6.195224971787571 3.695905793758579 0.05398313908467477 -0.7864405503336973 0.05503780560143425
P 6.904370999531734 4.036441474122952 10.406991496625482 0.40214470279483 -1.6859029389827804 0.6293996261248839
P 6.380438034963104 7.794274080457336 10.101349802214852 -0.7206673605926298 -0.16546617215803117 0.26415873833493864
P 2.4728961211955975 8.517491718709161 5.911753280137027 -0.4319594721634174 0.38057057616848006 -0.1792927936284783
P 6.741753695536774 3.9108613706052116 1.5340409742033079 0.9360350455667944 -0.32807559159355754 0.03801890244593452
Ni 5.074204708536761 2.7384707087382876 0.47222881621611584 0.4685472985897802 0.37633854036500347 0.07966820255560472
Ni 1.6539734909653772 1.2782614904107918 7.098619660300552 -0.45490065434062305 -0.7893759788129373 -0.12633475337420824
Ni 6.757845844989126 0.8347802528407786 9.270887549342033 0.8239917691145939 -0.34829731795707114 -0.07916195234314753
Ni 2.75571745187332 1.6463243078176224 9.349399919764272 0.2033629472038046 -0.5132549259097999 -0.4004773423947361
Ni 6.247975470665014 2.001145378926217 2.5486852741740784 -0.050974177055021885 -0.38686283693509504 -0.1835582537730516
Ni 4.164899041584247 6.758666688935407 10.354024511432536 0.04248593707835264 0.41395840760030644 -0.39131675894139056
Ni 8.28164791849548 7.1199913697722215 0.33296948363756096 -1.474728723264673 0.0795411900594372 -0.17006150483819743
Ni 7.568063921283517 3.8213532994080746 8.281840952126803 1.063396440433304 -0.9130462979811049 -0.8248186358912634
Ni 3.0988392416816333 8.17396401705928 12.460612256403188 0.7895443860700015 0.4415175481654977 -0.07538037381352823
Ni -0.10799600254105035 4.913824429801993 10.121536249109145 0.6184459553268574 -0.36721523790749666 -0.4189093238476785
Ni 8.720952774228925 2.13589006980023 5.778848722944786 -0.36288472885294276 1.0660642170734544 -0.11090350642080254
Ni 3.642418339382114 2.658902967527973 11.399628158572792 -0.7441669863764667 -0.5644921268182214 0.37950562523907544
Ni 1.0568140301780282 3.2314190694006215 12.601148858243207 -0.34580926142789475 0.24058455055942435 -1.0630768523103562
Ni 3.073239734873463 8.040924155919848 8.006155551623833 0.6265842681632757 0.671098805635883 -0.08059482813493217
Ni 5.740432324232553 7.7718497062765355 3.6040190791698583 -0.8621471971383927 -0.037882119757754115 -0.5215973843372242
Ni 3.2348738301855158 8.369315856010846 3.699654615122031 -0.2561782912326233 -0.449150125010091 0.16637737111839088
Ni 3.211736855216186 4.428741738602917 9.153600675760668 1.2397764312903616 -0.898172723303382 0.21114156270795895
Ni 7.154647220778913 6.135637113445509 11.357698367365217 0.48291256617251677 -0.33409762941792137 -0.04287314521444229
Ni 0.5656913707764318 0.04130739305050582 0.2616210062058252 0.7473356139124354 0.058826326109589 1.1770209453296956
Ni 4.80476944836761 0.2986861694987966 1.541869660587667 -0.8647046734529237 -0.24926742304540297 0.73130067193676
Ni 6.045876474880286 5.661054008548303 0.41297290355782373 -0.7043526825930062 0.47979433225850915 -0.42726849444565124
Ni 8.101278736629316 8.764448483118635 11.202983715912413 -0.6803933435639314 0.546618331861594 0.1666437374059001
Ni 0.04459347491457082 4.8140603194079254 5.790202528166577 -0.07751824609213746 -0.6482005608814707 -0.23804121531228037
Ni 7.844390662496164 8.69218715505653 2.490491046488063 0.19299163127180957 0.35905944156958164 0.7398228504751581
P 8.422012233309413 1.4961820277534938 3.5755953279706953 0.7829883301190386 0.44973556519991575 -0.20096642194717002
P 1.791929395519344 3.3373440195233646 1.4695217379993615 -0.3116629545634891 0.11638201303687053 1.0802363948087783
P 4.81227430730503 0.9742064602875333 8.369965314957355 -0.9185006362274568 0.4117935387385038 -0.9490481699970108
P 8.452212074322011 1.5681547073949287 12.39931505819497 0.35766410388395176 1.1080706434122272 -0.7666931925034409
P 6.317386395573002 7.675441133772756 1.337448849069175 0.1544345969342179 -0.4916656297747985 -0.043520034769821817
P 1.7550816205681898 3.293298074581752 5.988193696114645 0.4383774598746192 0.18394880434325092 0.4183416242696667
P 6.958700044459715 3.823545223352537 6.0284466204033915 1.42805085959216 -0.25803951281107823 -1.7585687420786231
P 2.492443031432844 8.44411187801696 10.227759769942018 0.8545817260863089 -0.2351764921699756 -0.2427381065673174
