# total energy = -340890.6180357118 ev
CRYSTAL
PRIMVEC
9.09800923473609 0.00000000000000 0.00000000000000

0.00000000000000 9.09800923473609 0.00000000000000

0.00000000000000 0.00000000000000 13.31585615590313

PRIMCOORD
 96 1
Ni 6.410730315756199 2.072053429392508 11.392141530199574 -0.43121616623948966 -0.17313011646119214 0.5965447843783921
Ni 4.678733181173762 0.4775481412412499 6.160967214563663 -0.12325894266236191 -1.5508709149448905 -1.8324555620657603
Ni 2.7088412985726564 1.5176753287435314 4.711336807416675 0.3952263784084419 -0.07535800521602505 0.6466288455189767
Ni 3.972873225143463 4.50935554143598 5.3460630676821435 -0.7746983221961046 0.22803551024982016 0.06789897783481856
Ni 4.868417577741039 4.372648853210169 2.9482772493722 1.086450236928974 0.32227621130296114 -0.8594192566842682
Ni 7.408208764911873 6.4158797890382315 2.6425850456108257 0.8579159326658644 -0.5175671801319086 -0.30567459819053805
Ni 5.197901985707079 4.353024447080589 11.789206861286214 -0.03468469586637898 0.11324809539357916 0.3841017292501901
Ni 5.340959084446773 7.983111974614319 12.422841360431816 0.73968658200761 0.03546348301393247 0.4414473570491945
Ni 1.8662928503352125 6.337282086417256 0.5569864999245215 -0.22427321499391056 0.07795970450493026 -1.073653342274622
Ni 2.6642519548354877 1.5930887280982329 0.22072225540411747 0.09258491061727281 -0.5045170318161698 0.6648176006128615
Ni 0.7350645659866971 8.905968551227193 4.7273283784199025 0.9266446054908299 -0.05294158519403785 -0.009772506005731556
Ni 8.567195075732966 2.6560364524085003 1.589340348253362 -0.6471109273617178 -3.174530017496101 0.08952118409028453
Ni 6.8547677592241145 0.462475469180575 4.7909252832539275 0.44469311768000186 0.27351086897379995 0.32288376297997295
Ni 0.47990543545922587 7.536599872608042 2.145277847701879 1.2333304185547016 -1.0490504561242773 1.1538460498751288
Ni 7.470803069117488 4.026697048352826 3.7898258263840336 1.4571297792359874 -0.6370633133177286 0.16890425130530265
Ni 7.673624991160479 3.8440818050366765 12.648399207796004 0.09160146365808094 -0.23085446775585405 0.4750488471537238
Ni 8.208042059334584 8.886153086901636 7.181574623043685 -1.3425999889165072 -0.2755595239727125 -0.8575130408004908
Ni 6.637816628688198 0.7762130425944234 0.17649501243837085 1.816819655300716 -0.4984985935362318 0.4375061130132595
Ni 2.1637704614705324 6.3040379603173555 9.32537404422908 -1.211732894889584 0.5848917735204958 -1.7584291311769653
Ni 9.012315182311415 4.807497307252551 1.4343311946539414 0.39008340075492176 2.2548037363916587 0.20649095130982503
Ni 6.604208582215009 1.8667750448298197 6.937640616430296 -0.2865191083080098 0.3391346776211966 0.4283298458306301
Ni 3.40230066788315 4.3201988294099705 0.694303664576523 0.2600082065016748 0.26107058632791813 -1.1132010226602571
Ni 6.14258468670793 5.821379467234202 4.606367614945351 -0.6283940676785048 0.7612959327472696 1.3959071849800797
Ni 5.4109409722301445 2.651360075611744 9.203014006919235 -0.04705170207216412 0.3321603031858925 0.09985161948201512
P 0.18935959763411792 5.622305925036082 12.636255184939369 -0.026548439912489764 -0.6854998115525613 -1.2662312830477804
P 3.880855958757476 6.004586081156946 12.575495039415127 0.2078523504337259 0.07638310404642973 1.4208057479939724
P 2.268497646893619 8.70136341935509 1.3577778147299142 0.5401201257317602 -0.7723904999985343 -0.06857672062813351
P 6.521252933123905 7.773794073908129 6.027888812459539 -1.2085521831687573 0.4048626159466253 -0.5927156404402889
P 4.640312287763832 1.1352678004920171 12.549022561661191 0.04379308592555038 0.29055291205775124 -0.0010510669723336737
P 4.198503856582309 6.23008934046514 8.332916786423853 -0.22915008347023763 -1.2432170815407944 -0.006509776094059756
P 4.479486776798329 0.7800860651671457 3.6551097826001113 1.0545158501142224 1.2050400562504409 0.4258027085334022
P 0.4167379566656813 5.723157358483646 3.5956670288271737 -3.4651940012104188 -0.9787217858020434 -1.2762259323666474
Ni 1.3945246744227164 1.286931616059983 2.5310643766193768 -0.14528969721015622 -0.9177341903750775 -0.20743248928748792
Ni 1.9431255391457385 6.2795370211857096 4.7069024376681545 1.5433224131736711 2.283424485452145 2.5648612941412408
Ni 6.39304378561438 5.904790016791917 9.188513599645555 -1.0813301420935892 -0.42108884799750057 0.9070893090667216
Ni 8.441933683247079 2.3173903490449237 10.152421304166301 1.0280615125774357 0.7389322203400888 0.08824308870880931
Ni 2.3440111243509745 5.476774167758027 6.819609411960717 -0.4148531515004339 -1.2101557802104514 2.1623954605615663
Ni 0.8487678474169438 0.05647316352690332 8.889186363212996 0.0818667528688203 -0.3151084899099283 1.1099241516811982
Ni 1.363409482506553 0.9307627467225669 11.430331334172465 -0.5177659264062761 1.3459557927626176 0.12126273816793955
Ni 4.009583692798937 6.8320682259402465 1.5292998552672983 0.1561901461727439 0.8364351370842692 0.28214154806560443
Ni 5.733747441346341 7.946356016912184 8.159783488433735 -0.3481667059164778 0.0979402613919152 -0.7717307549273483
Ni 5.384684117297382 2.8379966390527307 4.805106350400045 0.307457915343206 -1.8586211647175344 -0.10369104783276334
Ni 0.8566012334519779 7.46027667232012 6.811966174320726 0.9717042168336297 -0.47345964828973297 0.5695248041461224
Ni 5.452855501223643 4.434269670417238 7.585244199104578 -1.5123799579585437 0.7703274468219184 -0.6248284618144336
Ni 8.242678180862313 7.571299680201096 9.44942449167285 0.649292765504385 -1.0403387872828922 -0.4498996015816058
Ni 4.422587826434678 0.5491976941352151 10.384609780731806 1.1438408590333011 -1.369882478781544 1.2050613964066794
Ni 8.335332307901554 7.248465917056904 4.996136342547557 -0.5202748088710588 -0.8919575956316058 -0.9430191901941113
Ni 7.519622987194136 6.233965092440662 7.215529303672432 -0.2523380915509267 0.984719398146375 -1.217055078433446
Ni 2.402847950702386 5.273597423351079 2.744225276467493 0.038248501958237355 -0.5496596897910792 -2.219663183934784
Ni 2.178927745017997 5.263962631468266 11.344310565737338 0.34874340435555423 -0.8661347210312309 1.9152360849981014
Ni 1.379403782912581 3.441449402039656 3.7564697947693464 -1.4428300747838634 -0.22579839338918534 1.2624985554782258
Ni 3.5020239481735205 2.6058336369133577 2.502449317667705 0.25883449790854773 -0.8463878774216068 0.2963934299989283
Ni 0.9082797460608056 3.4020186295938517 8.274499378302655 0.9214334936035357 0.0413083718304837 -0.8260887608529385
Ni 4.021975181509409 2.5782211785900957 7.070692634307357 -0.44747376574893255 0.864527524445111 -0.34742391421318225
Ni 4.275099997150197 6.947340004179368 6.20466950239094 0.27697903002805846 0.16580118689994672 -0.7940571863386905
Ni 0.9598945726043081 7.435339028740528 11.273882875496689 -1.135151044568787 -0.0010035015638498847 0.4266511725766265
P 0.298074440547513 5.644104755396061 8.044788289678314 1.0753705820760449 0.3021506441976796 0.4630415382802025
P 8.565703002202483 1.675598574732059 8.019061848689619 -0.19814720733082003 0.5365110682242631 0.3277570319118742
P 1.6006127818159719 3.2532752750215255 10.327059412899967 0.6554163619036196 0.24827934810052082 0.7450545311877427
P 4.0083099714924275 6.1296746114655205 3.840918427191867 0.8651744140004907 1.3326395352696854 0.18413083844706998
P 6.808076775331205 4.017189628600665 10.274687631980026 0.5252210971327407 -0.07957641417274683 0.1815471368802938
P 6.345706843058884 7.806674279634741 10.467913883580334 -0.19710822454334442 -0.20132740483101455 -0.13286098452850023
P 2.598655307550243 8.480445556750329 5.831372720684703 -0.06941361470713206 0.14447851416277052 0.44025282252046116
P 6.782711525312999 3.922170019135048 1.7920612823927655 -0.3422302858273848 0.43530576292783096 -1.2607370927024288
Ni 5.301573802047629 2.8245952713063835 0.5950907826096898 -0.09061467426477943 0.4721774391431997 -0.3635557867780384
Ni 1.502599927280057 1.1764908807762677 6.928666340025003 0.5744440958246106 -0.01852119873263907 -0.1699162375095848
Ni 6.84364089381082 0.5358199812131313 9.35167275000477 0.13904834428613472 1.0680300825505735 -0.2972650339706042
Ni 2.8698578677341358 1.7705635961416828 9.219473215602138 -1.1930831409988807 0.45339758743253533 -0.4370142609785054
Ni 6.239442094058654 1.6969879946720883 2.698990883868671 0.5540819872284909 1.1612469703248904 0.01018953893849213
Ni 4.047795331994225 6.932237308687896 10.639622433309027 0.8892525379956169 0.3095489935442798 -1.0207757775493
Ni 8.002508930510594 7.142656068523284 0.07908262651838215 0.06415750851451532 0.7586245565626935 0.31644469222284854
Ni 7.710144400619977 4.038133246083416 7.993654747828485 0.5810924543790638 -1.3716899643039282 0.7754195166328451
Ni 2.939157404817591 8.204411953611032 12.572232493268597 -0.03724757149754876 0.5753105575899641 0.19382955379207265
Ni 0.034998222299151255 5.080719625508195 10.329282966380761 -0.6015766903753446 -0.7526981637759295 -0.6872173084643003
Ni 8.766750812425693 2.396715892412476 5.813543351796368 -0.036851621610710726 0.4516682634462544 -0.09775102819924456
Ni 3.433388565771317 2.800312684398711 11.549521625030968 -0.265075336611937 -0.3092990823170028 -0.01220348404472737
Ni 1.0733376509676533 3.392711366046999 12.66973131027724 -0.6030100803877615 -0.1123212127039356 -0.4173527779938361
Ni 3.2701429843234457 8.294937146466536 8.17919773054774 -0.9056988564770982 0.349844607839533 -0.24753115708058657
Ni 5.648289839688878 7.874945741663656 3.3682595561657473 -0.9808439743513687 0.7370517154879241 0.20737772479015254
Ni 3.0080111394437674 8.268052528889852 3.531032041128344 -0.1498778308014709 -0.2918446342859813 -0.362561284075253
Ni 3.7908220584059107 4.401571424877269 9.703637429229772 -0.07793450769394965 0.1803312621953217 -0.8056292074470061
Ni 7.028494247422693 5.902442730384206 11.449105986230416 0.5966730824261401 0.9674423562334822 1.0383641800550245
Ni 0.3599900332569452 9.036998081629704 0.33531987115172046 0.08368760812764298 0.7626984695217509 -0.4753594364156072
Ni 4.695446224317034 0.42330762920447124 1.4325061339818999 -1.5792677209200285 -1.199213936486967 -0.1033280080663898
Ni 6.007943246600531 5.7939307730789205 0.5875876543134149 -0.34559200321076605 -2.1453873560393437 -0.7513203095917964
Ni 8.024071212627936 8.959373866007276 11.488507645046358 -0.03560772190128061 -0.34601880633553955 -0.049246395730637764
Ni 9.051445720449257 4.8649694322041315 5.786924396092184 0.3815828194830783 0.011828617203811887 -0.4164354083858893
Ni 7.903841019302759 8.997931229557187 2.525911264133612 -0.5823137283806745 0.45675082017548435 -0.23321448334759837
P 8.803816102445122 1.4148223332428804 3.8898147685469042 -1.3959040996562861 1.3851730863920273 -0.9493086227472489
P 1.6347485128304293 3.288648335305164 1.4973676621131022 0.4533734190628192 -0.14543007944276243 0.4186658403783048
P 4.695109597971743 0.8774638786516721 8.205004234018558 1.3619457404329707 0.284352182563678 0.7514241821595123
P 8.558733927054009 1.6437828360973155 12.557305389357236 -0.4876210273917796 1.221944288204947 0.1350867885352254
P 6.208417882235812 7.796257058949359 1.2205270655460378 0.4610623030666446 0.900037801536579 0.8636512924877449
P 2.1512606986387413 3.2329776162013615 6.189623214557329 -0.693093050518787 0.5853681989362822 -0.7956618118216491
P 6.762750492838128 4.114638406557983 5.899736982408807 0.8505993443997932 -0.4718506519314003 0.47904716967983957
P 2.48102714489408 8.645920150484592 10.267896877814461 -0.10966294914548211 -0.9299736698640629 -0.25634104206273267
