# total energy = -340898.5234775645 ev
CRYSTAL
PRIMVEC
8.98126858590512 0.00000000000000 0.00000000000000

0.00000000000000 8.98126858590512 0.00000000000000

0.00000000000000 0.00000000000000 13.14499441601732

PRIMCOORD
 96 1
Ni 6.254573420195081 1.8055762781398943 11.378859575006809 1.0277285547180495 0.6654678326023507 0.260716545422609
Ni 4.532316370918903 0.3623600594568579 6.038442783683947 0.0788773312231932 -0.5640401268824673 -0.3004706853920954
Ni 2.8440803671246435 1.538688900225246 4.691658446030309 -0.9609762888931642 0.23558992555831038 0.8023628779909086
Ni 3.512313695263814 4.4546643225459714 4.966126014648953 0.5090624850950071 -0.6157033595847139 -0.4781642528542539
Ni 5.153658495662852 4.503441592348585 2.566625628567433 0.09283019385885947 -0.28981911921552017 -0.0577858006602166
Ni 7.277692596056672 6.0347478897791795 2.63678101203441 -0.5643867115886086 0.2205425443068847 -1.1263463017929631
Ni 5.160520184878319 4.541683834075619 11.38414325532809 0.16518797879598002 0.20261192797039299 0.3222433011824966
Ni 5.470032663600038 7.970624412864077 12.398096148449751 -0.21082377435722402 -0.5317198174832068 0.05097597682723479
Ni 1.822721519909953 6.448407159263392 0.44888739746686285 -0.36619450995246616 0.28567064426478544 -0.6994673294762469
Ni 2.5154467675394065 1.6231218063961843 0.34890073032296065 1.0137983177902024 -0.7238717264625405 0.4180582887012929
Ni 0.4347014837026891 0.08799667355404978 4.869891721528902 0.36932894181638976 0.12516387299455864 -0.4376084429190786
Ni 8.628304750390456 2.3725278402020864 1.2012240192191086 -0.13825335918866513 -0.05657121152682515 0.5752619637402157
Ni 6.795218846508451 0.61994733372934 4.7461316363832475 -0.018383130492878017 0.05451947120411901 -0.18752083796522542
Ni 0.8205134317451821 7.45193818829392 2.648913807795108 -0.7399928003941191 -0.45000244570805725 0.062044318826254434
Ni 7.784299014350909 3.9093396552885467 3.8128368222371565 -0.43137737440770224 -0.6044861507126558 -0.46048637595851666
Ni 7.544112948003775 3.7905444154286374 12.434993894266375 0.5059596777999673 0.0036874761539162303 -0.19145693979483802
Ni 7.767980049292661 8.713545970735991 6.85833471164155 0.4152563004761235 0.009634694876286633 0.225605817762405
Ni 6.728523945835608 0.7578978232734717 0.4675396961091142 0.8382369661796985 -0.7212571716578289 -0.36945749697445407
Ni 1.877345595575483 6.498980682787332 9.232636352393445 -0.2736959884014125 -0.08889434913956304 -0.8338468075318025
Ni 0.11281640934847469 4.907419054274849 1.2660741673201488 -0.3807649515674733 -0.4048675010426318 -0.12883875074298454
Ni 6.451793097528093 1.9932847920184833 6.94889104674849 -0.9027220332369613 -0.9857028451055669 0.23615531114347718
Ni 3.5891484481935425 4.218097707447309 0.5331110400792669 -0.5914118340272008 -0.13930596882289556 -0.07176488854812801
Ni 5.836845636032064 5.535802493606398 4.7318559099330075 0.42197022216118946 0.3589640536422979 0.2081490557385383
Ni 5.354048560814005 2.7003531256127267 9.359880271631612 -0.7597054483316981 0.1496268911329294 -1.2293146125270893
P 0.27918183651026574 5.668357036971665 12.168255605410595 0.21399497299635403 -0.5078208993784221 1.8926558857047406
P 3.9947515197376076 6.017324228682315 12.514297597936064 0.0054031732934423085 0.7299510998874009 0.6644980124899137
P 2.235994594844081 8.486508481628965 1.3728767192096232 0.8140973928190173 -0.4015386937797149 -0.6538449036514417
P 6.155527990001154 7.625348522550753 5.737146369483574 -0.023021400595837772 0.02052280254370014 -0.07848395243951645
P 4.494783649411792 1.127427629459003 12.526745636224856 0.11029981139853261 -0.48693865661277436 0.29680172118094045
P 3.8904610286774077 6.123096629062609 8.236692699081802 0.08337341932133384 0.7941350907644775 -0.5266822550592994
P 4.6893269087000276 0.872757471229955 3.72972146817081 0.9820719332211988 0.6652078940727447 -0.5562237161618421
P 0.18137761763777485 5.567461465444772 3.6167667472857934 1.147083534340315 -0.02632861059219982 -0.124760724018869
Ni 1.3262729164098148 1.0507096330211607 2.643944471875059 0.6135726863949562 1.1569061768576916 -0.21839773004973997
Ni 1.8673135185418763 6.297414071448712 4.809463950089766 0.6625295759096332 0.6451260357212052 -0.7982925645762767
Ni 5.870884644051196 5.460871769621275 9.155225900146032 0.29145742614989156 0.6991336002859121 0.3746359558516
Ni 8.46489954936141 2.2845742767373487 10.049151323354955 0.23107841084120206 0.019234936970212033 0.12363586638580643
Ni 2.297704891440243 5.205848647535985 7.025960210788853 -0.3829352197459147 -0.16322776974581565 0.3504691287974093
Ni 0.6004939059273771 8.855414089646334 9.026825193511332 -0.14082291968805424 0.6572588144289971 -0.6299902085210312
Ni 1.3833848034793816 1.1233321709743793 11.374955417543505 0.190569137873246 0.4866663767879941 -0.8669484751817779
Ni 3.9946347632457218 6.779798008310865 1.4363006418559305 0.6655107700251441 0.5706856572234429 0.3117876530668114
Ni 5.642410151967108 7.6960041626791185 7.964604268517053 -0.8396050501718185 -0.3292536710620588 -0.14523493271282084
Ni 5.246623607010091 2.6361011300008883 4.957726732248033 -0.37843810320650956 0.9220197051243089 -0.5342402699122155
Ni 0.6417152344512316 7.232813196829335 6.625747696662486 0.18057654543690835 0.2649005015969696 1.1842989670483475
Ni 5.051927666155542 4.66599357286 7.049660880514891 0.40834388962700646 -0.45733240371056716 -0.6210391699753304
Ni 8.014003940234105 7.065959188655344 9.15048019781429 -0.39391125914144415 0.41158810759591696 -0.3281792070509574
Ni 4.594718225197775 0.44617505434766025 10.396033962622006 -0.5183282266676492 -1.3608442798386755 -0.19855575562314837
Ni 8.02182662519048 7.139452909663406 4.650343712312945 -0.16383686408472428 0.43996254497355197 0.31992982255797153
Ni 7.214608165363694 6.080229034003159 6.922522042119422 -0.2248141750990451 -0.5788193420741709 -0.06759378788957392
Ni 2.2236902568529966 5.210366225645122 2.542136403457732 0.2725721592096144 -0.1303608438144658 -0.06000389135745796
Ni 2.3517900909893754 5.1894039447172435 11.404518161289092 -0.5120765893309827 -0.1914764801788638 -0.2549590741135415
Ni 1.3253837708177583 3.4539983182009584 3.9661470773523484 -0.5150431281584742 -0.45343075466331584 -0.5145039678255526
Ni 3.8161769560319625 2.6028883986935663 2.620375826797538 -0.9711036071351533 -0.24230950367033105 -0.2900993694601004
Ni 1.0603106091616492 3.3385171664568962 8.28362072567831 0.2711074017386299 0.2049529173987438 -0.6421242727804037
Ni 3.8102583000201924 2.669277936233783 7.075858342913573 -0.29326285478974656 -0.30447029346979176 0.08238328749392264
Ni 4.021183393246923 6.802790055943841 5.994906084113303 0.2928543064974182 0.3907305474206174 -0.07065211509992349
Ni 0.626899733757733 7.505152204788209 11.061473218097655 0.923623559276319 -0.4687239333769605 1.0806549704034356
P 0.1008102494751303 5.566338806868943 8.028278768557485 1.0094112444661003 -0.4783979661316148 -0.18494844925235893
P 8.513164886853446 1.559381743094924 7.897894099687578 -0.2523589174865331 -0.07781777961042728 0.5177222176525342
P 1.8772108765463837 3.283192551840049 10.30629312670455 -0.7002661712284586 -0.8459955270791947 0.19970375318466252
P 4.001577283878648 6.069999369060206 3.520032197504353 -0.5145430485936041 0.4352972782873987 1.1593754643337906
P 6.85437846282033 3.8524702624713587 10.277544984021585 1.359399576972349 0.5046103628609245 0.07285503628851323
P 6.055467676454677 7.575179156114112 10.265754374594799 0.6105027892203809 0.12044564158328287 -0.6289676807937877
P 2.352742105461678 8.359127148981116 5.751907982565434 0.22926886843628905 0.38864461142586615 0.12253851955656962
P 7.035054643379926 3.9919134388579125 1.5597320125705825 0.23985615703383203 0.04208535920582429 0.0006288918332505298
Ni 5.506685220783699 2.735424979521621 0.4714070303711296 -0.8792056952825762 1.046922611147997 0.14304795236383105
Ni 1.4715090110476454 1.1562395391490756 6.954477395821814 0.5435769739321089 0.019103553598670327 -0.2850787763170574
Ni 6.811034860524728 0.4374892694781874 9.055153012823506 0.6445768480859544 0.9524122013732371 0.5915020797481619
Ni 2.800682877217402 1.5077574111440084 9.098387043642106 -0.28208395535479164 0.5011594281978465 0.35303868929679844
Ni 6.4251905799152516 2.1449604562472686 2.7122595934045375 0.0014048507673266126 -0.5100397614066119 -0.24004024802018015
Ni 3.9651672209473654 6.797248613213549 10.471446980731306 0.5916445188632972 0.7831688215609608 -0.5479586479395724
Ni 8.03616971115527 7.141599432860391 0.22243728332671003 0.24726144835896766 0.17487820950055044 0.3966032041513105
Ni 7.595836073909363 3.711536195496104 8.033287622059403 0.2885767621679869 1.087717790787488 0.5287975016300893
Ni 2.952663904578813 8.26679970770495 12.346120648896317 0.4037459858436789 0.16169796336485057 0.2784479012641011
Ni 0.06010803827673901 4.84666077215099 10.210637227282765 0.41772995882759667 -1.2676662157220941 -1.1251016307525847
Ni 8.49174456122663 2.411398770731586 5.7755296171277335 1.0795339694251151 -0.3196716838005785 -0.29052231593013195
Ni 3.705168476054003 2.813346465952752 11.364530859071788 -0.7663085554705125 -0.9630527118062188 0.3540118518433452
Ni 1.1462164433840751 3.32488360071203 12.51395541160215 -0.7442598032005892 0.8213563883742757 -0.6030725581945807
Ni 3.207992389796727 8.304215672720174 7.945504702698191 -0.5736246852471089 -0.09312638494303961 0.24011815244596713
Ni 5.589232060547245 7.780347256163991 3.50945046683202 -0.5819082654121398 0.0023489598481507934 -0.16288349903251947
Ni 2.9939238525576757 8.418331671636029 3.4575279567633643 0.6796564653979069 -1.1852878133241782 0.5939597972600352
Ni 3.5250760779538366 4.301614524220371 9.278657270860686 -0.2181447334986695 -0.3520632127574066 -0.2493702671718544
Ni 7.300487055780301 6.060254692622011 11.241507237951877 -0.9996701059189365 -0.13218221329392074 0.6389368761913577
Ni 0.46305804307440535 9.092726150039349 0.30791201665601786 -0.3869520542147917 -0.4773155317007135 0.020979944685776773
Ni 4.441767220826849 0.24585234871105788 1.4405335137502358 0.14571907143809099 0.22976380579483657 0.38404516498064184
Ni 5.9922395454639945 5.533117094293015 0.39102826884922426 -0.09033699512336055 0.8058426090093928 -0.17046902468926126
Ni 7.716301829730106 8.717506710191516 11.241297076266482 -0.43171187492898555 0.3529304458537083 0.47549030556651656
Ni 0.07578574075647418 4.850756230635614 5.831790079933391 0.12964427736341544 -0.47965420713621915 0.08350068892781748
Ni 7.919206650091113 8.962138504498933 2.4522383953396583 -0.17078372771620265 -0.5398275341920058 0.21436006964525664
P 8.550401226496538 1.745940654591864 3.595326662868044 -1.1156813658799494 0.13448643594706514 0.6976032796843147
P 1.766786179027855 3.2445551342943224 1.5502289322579061 0.3377174855586958 0.37509824019999916 0.6639755643275403
P 4.8890972663173216 0.9496793424651679 8.139367181826044 -0.9008366432887905 -0.07042817201457549 -0.2176060873863801
P 8.39020233836006 1.603102558672004 12.205824251992132 -0.5437299545702055 0.3921770500591568 0.6139992324094135
P 6.285226489949513 7.7098712414077575 1.3839973259983538 0.01942699837636009 -0.17039986201422266 0.039368731605609615
P 1.9786004178466416 3.2350260083026865 6.036194772151708 -0.6036636548113603 -0.5442446894230949 0.2858349377567916
P 6.876059245236736 3.9266016535504913 5.833721950810678 -0.446862871637811 0.5600839704481967 0.78933329850046
P 2.4174880708468818 8.566944723269954 10.221403073961534 0.12181012603097732 -0.49640443001136453 -0.8437440120408565
