# total energy = -381173.07178464 ev
CRYSTAL
PRIMVEC
9.09668573248659 0.00000000000000 0.00000000000000

0.00000000000000 9.09668573248659 0.00000000000000

0.00000000000000 0.00000000000000 13.31391907657389

PRIMCOORD
 96 1
Ni 8.857788695957751 2.6762358833300888 5.605160416148217 0.3303255639699989 0.1802443589084702 -0.5967039356640756
Ni 1.1725173239264302 7.707594639131793 0.536728117124028 -0.31832802528849047 -1.3303335128443283 -0.4465275997855794
Ni 4.536817429022074 4.279963407078736 1.5224731966412486 0.11955989654421989 -0.05803134101211941 -0.5038097213365001
Ni 5.653699422228662 2.7046448332709105 3.6314379304037288 0.11860704571264734 -0.9173395260398202 -0.06509030474142985
Ni 6.4507692306547595 8.481131321238035 6.542420160031566 2.367127520198755 -0.28867832074285765 0.5824168296174422
Ni 4.451754319545089 7.220476208013935 5.959616419357984 0.8025125161948954 -0.4369461267447313 -0.09765204072753504
Ni 0.7754579021598762 4.7915974065893305 7.89259757814123 -0.19792146447325912 0.6926526205472587 -0.3696305322172086
Ni 1.467995874031386 3.4321886716689245 9.912226489078275 -0.33998468432631773 0.9231283648074553 -0.4303389058408588
Ni 2.8306248357462365 3.614941090596594 7.856118048505404 1.0633959262126718 -0.09767698042819951 0.47443152528469906
Ni 8.025905870745383 7.859154522245477 8.993100078788277 -1.94856400972627 -1.0477217100105245 -1.2696477649284974
Ni 6.639925716427878 4.064790399745978 6.199573347316348 -0.29721952544464947 -1.253988975345318 1.0803729203866426
Ni 2.442487443471184 1.0921935877825117 8.683883713697531 -0.7673706781864398 0.760615104630161 -1.0322097304178546
Ni 1.736348106901782 1.957133769410168 3.2816012242736763 1.115199026926892 0.3084724726506494 0.5383887448629502
Ni 7.943853764288062 1.505883570638342 11.496755457319365 -1.602332830269608 1.9087882724902288 0.5029175485395339
Ni 8.698305599459996 5.273321502992202 5.7497895343051555 1.6060408752488147 -1.0829589359462641 -1.70686077218137
Ni 0.13908650746243323 1.4616281939293767 9.712664304349888 1.2410987496462107 -0.7643509175235095 -0.6742952010859936
Ni 8.262501573278472 4.022636357470676 11.596597042644527 -0.8789789239837509 -0.24063108752664367 -1.1768916188406828
Ni 8.929297743503316 3.712948784052379 0.3861452180717098 -0.5317594124718906 -0.5278420796953555 0.2957761081299035
Ni 3.3767716614097227 8.556106206096265 4.6665416273973825 -2.0394442789476104 2.3772841490167833 0.9970102996985861
Ni 3.23267106070125 6.199436897028448 7.5345465646795855 0.31922739717430826 -1.1456524583207432 2.127826207227129
Ni 4.380754686407684 5.056456512089482 10.010083177548786 -0.7339298820294908 0.5379395731406735 -0.9307486003568745
Ni 1.3907559143940122 5.4245084219856246 12.13933897879061 -1.0094462114690936 0.05616883388208391 0.8692403565397483
Ni 6.859365069428982 0.7946446319758166 9.24429323312093 -1.1709947937402736 0.31233658359174593 -0.07691146574607399
Ni 0.1263238572008344 8.93773037129555 2.101056075075784 -1.0599658174852005 0.037909887671896 1.444538829944854
P 6.53273946693934 2.591545737973364 13.232118393142509 -0.5213451591171021 1.5772661171089675 -0.7826803119603166
Ni 4.207362757229968 2.6055000540826243 6.113205773087037 0.8617828718204384 -2.3279133118931394 -1.115776496696917
P 7.46814257723866 3.889187975904279 4.142066746126792 1.366097300707499 0.01709372225749314 0.27280690092823984
Ni 8.455333120139036 1.944398409206149 3.1567037274156924 -0.3993103186698284 1.3418628536401662 0.3286913708006855
P 5.019196486806866 4.888031373391333 7.875329339373167 0.23473143421275705 -0.257785230708427 -0.4457243871579937
P 2.7828308482377264 3.965882134390052 11.733064614247864 1.6002358385312634 0.9541412682492019 -0.7641208037905743
P 1.0807863437140548 2.301507006012696 7.276177034871969 0.20433662397098357 -0.5679556598867895 0.7488417661443169
Ni 8.926686994661491 6.021887782412706 10.436434837453168 -0.19166237093742478 1.0870554746131407 -0.10362857002594411
Ni 2.317089628890899 0.7598998403334952 -0.013503120490603926 -1.3679880899723085 -1.7126244141380245 1.9142778348498906
Ni 7.59060216228616 5.9492598425063585 7.587296426644632 1.4576488849642508 0.5322301814607221 -1.852337902811984
Ni 3.70039535756556 2.2213561069001178 12.717322385626971 2.062706077689028 1.1558993328597318 -0.697565998688476
Ni 7.067924786141509 4.167064438870109 1.9480661929449068 0.9027672846526001 -1.7823133939937306 0.6146785178646252
Ni 1.2472284048947204 2.567239393355408 12.025039120959542 -1.4523629539749632 -1.4692561301858762 0.6401157269908073
Ni 4.592953077464218 8.630080455509894 2.6155991947244113 0.6298832506295217 0.5843312730313356 0.6734457086015048
Ni 5.160531695013894 9.256605597432458 0.5018614298911825 1.1743683381981969 1.2950052698566794 -0.3969906693977163
Ni 8.123440536536448 6.255936412904991 12.695473965528391 0.85879884949145 0.2913188436894983 0.08372360357190098
Ni 6.629118853626182 5.766962257871691 9.412594656891384 -1.1997718658729661 -1.6802161730106482 1.9230578950353656
Ni 3.3984126770706946 7.902281909907801 0.7592385112714723 0.2639651342668938 -0.7248091506751453 -0.4028232169190934
Ni 5.329475344806064 7.43433019589699 8.091015399788429 0.3489879162661925 -1.535736116185981 -0.37627092035186166
Ni 6.225635352305287 5.277706105576728 0.2637438518137132 0.18380739366938023 1.7381215299678647 0.5517016599217724
Ni 5.674321609073313 1.1861623527164504 11.683976168341472 -0.7586389547403966 -0.12989495992164082 -0.37087417481632257
Ni 7.889555646389641 1.1814957528702634 0.6688165441543529 1.5125499078775047 0.8235765359540462 -1.3747616612507163
Ni 2.251020399489622 3.839019753386305 0.5612673369000002 0.32760867925946807 -0.6946521674757908 1.102867501944733
Ni 8.657215869430315 7.7062392329386515 5.780224316187003 -0.48651442459116206 -0.8049797467884653 -0.5248269470181155
Ni 4.317469042879571 8.36928756858917 11.922747798132278 -0.013107998136867749 -0.23706908120699816 -0.997817883201546
Ni 5.663105395407917 5.065043783541334 3.6532727054735186 -0.5217408518936241 -0.3959180051588278 -1.1852608167409844
Ni 3.727976509093121 6.596998455854474 3.731199464893324 -0.5798166729904337 -1.8499997415971106 -0.12705543359031665
Ni 6.528227510752773 6.142900994408464 5.485241535461419 0.31924770888928244 1.1134421921367856 2.031715542844785
Ni 4.315968089712669 0.48103274827750986 7.238045547083964 0.40411108249258143 -0.8279777503455354 0.14309088978662454
Ni 4.048680169087895 1.7380582838434648 1.6419254173434288 -0.8267587903367697 0.8321483367834572 2.044660018820595
Ni 0.5164470559991281 4.427739068874653 2.4662170582056153 0.6184014752421672 -0.36450863760961094 1.2455321028272162
Ni 6.947029831061931 8.366176502025045 12.779591929344521 -0.031409110438900746 0.08066347658933849 -2.2845151474131624
P 4.505160962229228 0.7982851256569939 9.60350316436114 1.0849921643262088 -0.66093986282501 -0.5217017711255724
Ni 5.493006466511526 0.37953556612582406 4.872801701924499 0.6266714285604432 1.0760326411400758 -1.3306746982338309
P 0.9360216849378012 1.8607088992940257 1.3699490648264034 -0.6597360723248961 0.5756787395626602 -1.5886815580347609
Ni 2.124130728428294 5.959875674904994 9.79358569275481 0.11438015211549334 -0.6762155580371579 -0.21371086609703194
P 1.9458720723154712 5.003904957876184 4.301554390967477 -0.20346399155804315 1.1881358242959346 -0.7606086768722577
P 8.115435452979636 8.305465220595316 11.01311468920579 -0.89195399608718 -1.0881091126886357 -1.014009405359744
P 3.7872687075286886 1.567695551057133 4.1988773686597485 -0.6114960063715855 0.3533366801531915 -0.6808389157417822
Ni 2.3573515605073183 8.591747021295799 2.675551812553416 -1.4118158857905363 0.8587751953423661 -0.15672673540250429
Ni 5.0550192357235995 4.128876551629773 12.105547519826418 -0.15734380016121288 -1.8635157738056747 0.21543067700161606
Ni 3.4200354993599467 3.698193959587437 3.4775693084187735 0.21985940219693104 0.2855264053774373 -0.42403327533780516
Ni 4.403323564026377 4.685648306377755 5.57349940101244 -0.9698892751120781 2.487666492826793 0.815924161615111
Ni 6.231812002004236 3.0194993242576955 10.327700332031256 1.4038007287955436 0.9537224355442284 -0.9087067900654866
Ni 7.84076102343653 2.5647650948014844 8.129745449506022 1.4501443490570898 1.731125558266006 0.6281847798811762
Ni 1.036185292942409 8.090501437037338 9.696301185824895 1.6316272083583512 1.3912833130548232 0.28916914433634716
Ni 2.15514133052508 3.3602065964586383 5.5261948152031986 -1.118931497386131 -0.7439217031348802 0.4440009767089837
Ni 0.7620975996372746 0.3762052694324731 4.688682960780654 -0.20831900565749928 -0.26165756917963967 -0.16801927759718804
Ni 2.6303885865956214 0.7821439662669861 10.939275070742887 -0.5992452140286906 -0.5977961402869899 0.40196164024974645
Ni 0.34940188454594356 0.12639390168195652 12.188267323025865 2.276115610495557 -0.40890901810185704 1.089313417409382
Ni 6.961539045008653 7.606776069745265 1.519983433721363 0.2800039328973113 -1.3644304545280372 0.9739248786340323
Ni 6.0737661818723625 7.294941678464005 3.7794091709456366 0.0961857405946537 2.5492832371973257 -1.073419628997261
Ni 2.0552324297245526 8.91876378127742 6.639678286572486 -0.43672758297602204 -0.3191921730609986 0.7122554823798508
Ni 6.880351123708032 1.7997429106602156 6.319491318334561 -1.5594375735679786 -2.1324248823414047 -1.236628115469367
Ni 6.60718674401769 0.7399126021618738 2.345366676886751 -1.270712972968218 -0.4403813776785254 2.0876169819980945
Ni 1.0309910853163413 6.75662709932599 3.448171548724968 2.107863133841641 1.427517098575877 0.34725190741169226
Ni 5.373430530881649 2.5166436266020136 7.999415411852438 -0.1397710813847722 0.7737411004891578 1.9391992806819185
Ni 5.836351777611872 6.1793241245919575 11.506221468625293 1.0014958462737653 0.39658392087760086 1.0975872273824
Ni 8.689754714751581 0.28892347827423037 7.470586856729246 0.771688074614871 1.6354188141902997 -0.7008703804713607
Ni 3.8430131984788507 2.7506012902356987 10.265271596311157 0.23719043727621084 0.1968868525611577 -0.840401577931185
Ni 5.954872497681987 7.865049174682765 10.172020559891573 -0.08811839020548697 2.3971451496067684 1.0968968861835946
Ni 1.8550780507466773 6.5670157792598705 5.842587555768912 -0.825749632345965 0.3046849805837592 -0.8259596914742421
Ni 3.6003500064771328 7.857680859136154 9.463506988312707 -1.1760770933591873 0.6417753740814173 0.872095566600356
Ni 2.121929330450171 7.586244849759214 11.683217504740748 -0.015336630357070363 0.7249922132202289 -0.05829796440994476
P 8.985124104626218 6.247121724306639 1.370388434753442 -0.6290016193555167 -0.4744500372274604 0.6854134224863422
Ni 2.558333737898455 5.780179742426289 1.841248359233699 -0.14507783830966628 0.15864452125050743 -0.6744936902500449
P 4.868136921415484 6.590467035406985 1.7278936470634856 0.48166558113929303 -1.1685591877155874 0.02433549142157099
Ni 8.120356760029903 6.142482546858903 3.4866623556044427 -2.655358211881233 -0.9757326212667324 -0.3116017623082505
P 7.742389462546345 0.008746463454402907 4.179385899867497 -0.5360914641883412 -0.27126012526641025 0.1658127568641725
P 0.7027344470519991 7.280759945208243 7.744840109717033 0.32316684143803054 -0.5848537211937089 -1.1428198739679545
P 8.352576956664326 4.293462888894996 9.347316839159927 -0.6609784293724293 -0.7958109358050036 0.26320434484146926
Ni 3.7642631889887146 6.2151104867652505 12.520103507176122 -0.30468086681870105 -2.2437302521863165 0.4308490127080579
