# total energy = -340876.19967158214 ev
CRYSTAL
PRIMVEC
9.19372713644432 0.00000000000000 0.00000000000000
0.00000000000000 9.19372713644432 0.00000000000000
0.00000000000000 0.00000000000000 13.45594898036642
PRIMCOORD
 96 1
Ni 1.1844921933443247 8.537110930056372 0.43808660329077104 -1.0348278847669918 0.3360845779409631 0.35444482561570567
Ni 0.11927297726517945 0.08302303144885853 9.555593835410603 -0.20964775177125183 0.9410926625953598 -0.05184295281322039
Ni 2.9018068295060875 5.153755072685704 12.826586720658383 1.5642761326072026 1.5975611199125777 -0.2471136099271938
Ni 0.8764848739236439 5.418883769191084 6.595285482858428 -0.5831351958407053 -0.486948169694471 0.559586719096804
Ni 0.8918871246086936 4.381610724787069 0.606775862673865 -1.2742613524411088 0.7972098730350593 -0.806882620238133
Ni 1.1091955699869813 4.549037685466016 11.608177949386395 -3.024850675858681 -0.11304909200889564 -0.4189630599037494
Ni 8.388935633517875 1.4608740115822305 11.148051224584687 -0.7832534108549672 0.3389017356747841 1.352059077446878
Ni 7.847949161208211 7.049161392736978 6.706444996129364 0.9681054437387778 0.5440472287003082 -1.280366951118214
Ni 7.442220799134596 1.5540524337710793 8.78805278657363 1.8464626749781299 -1.4045116388196393 -0.5021513597974707
Ni 0.9699565760007833 5.277585380378019 9.40438920585669 0.7860356015857947 0.9590366486682903 0.29207937600460665
Ni 5.622009971444703 6.0643109791490275 7.049638547163381 -0.5028401583343792 -1.4436178607924814 0.11411198605577123
Ni -0.014075595892563167 6.801537552259971 4.693178774638311 0.5057025674838388 -0.10056407216800746 0.11120972480731171
Ni 7.99565557767452 3.6838252401014 9.656015995028419 -0.9078228447986364 -0.2723944959811696 3.0800129228531214
Ni 7.611891029178524 5.430127697196704 11.660574837767124 -0.299647932380484 -1.3755594745616633 -0.3288687769188143
Ni 2.6472049503076867 7.259596607880596 7.638538127241884 -1.5119672959011572 -0.34418766666407175 -1.6460233291790232
Ni 2.9199276652371404 0.5895183178992535 7.5779330794797835 0.1673739307037053 -1.1914543471462062 -0.7111429660419623
Ni 3.025756655648175 3.348079527233657 0.7727134395940952 0.4240433026401342 -1.2475604461111547 1.5526539749872421
Ni 2.350330314797068 3.0323853327471553 4.273299428111506 0.2980206811897061 0.9529086813936815 0.3938593228575862
Ni 5.620676881043383 1.123418265510035 4.777991824715701 -1.0198887469586564 -0.4737666380071905 -0.5155887162492991
Ni 2.097613149614327 2.9520781282262285 7.915300565773684 1.4631600445904673 0.33060967086932097 -0.7519450876599888
Ni 3.4886791928018925 8.634389754445145 5.254817115696154 0.9680388521669006 -0.24626180344985973 -0.7503219502342691
Ni 6.554980184104021 2.9874372019053905 12.017750208679265 -0.6530362917072172 1.0478528362717503 -0.49325611419036985
Ni 4.068674648372265 6.207981349503753 8.947479366099273 0.03294534457776906 -0.548961378172474 1.9505908103483116
Ni 4.6356150117366015 6.607025872116955 11.56694868107797 0.0753556912231799 0.6041094840995274 -0.6667202169522131
P -0.005891340201145968 8.737598532688068 3.554523745527528 0.37303698679559627 0.9831497396664101 0.6807160170106729
P 5.188360260758603 8.5374786791326 12.737145548456684 -1.1171587217564243 -0.1336899081876988 0.550317377979736
P 2.5200924821100523 1.2300930787963906 9.506076422296726 -0.8468923278618512 1.1573679469854583 1.8226594019109448
P 4.1509585041779085 3.9771970656609628 2.9098623730208253 -0.4050307660933734 0.3889012075213625 -0.33952137153665396
P 4.481344274259652 8.152031678612866 7.3772772316457145 2.160019247019906 0.23910539491073657 0.13545162807381186
P 6.662316945727586 2.639436251072405 5.871247310993652 0.4922520984058877 -2.0393764018241525 3.0461982882965217
P 2.3632383073726126 1.3145558478786754 5.538845356601497 0.4581160759541272 0.10619581653248807 0.4254188428314222
P 6.068530899798725 6.079572565812421 9.77873386176515 2.096183383510867 1.487749046783741 0.7118736735603999
Ni 0.7509279843184469 2.5924471128575846 9.823501795559563 1.347318220327783 -1.0287675375055247 0.2922112735967806
Ni 5.316649526000162 4.267084468723281 10.449593678462216 -0.7622480122478936 -0.3425151640576553 0.02007903013806219
Ni 7.917904229233367 3.381324043724518 1.3894074948537847 -0.1618404024799858 1.3725188879631265 -1.59413075407479
Ni 7.816451452829425 9.046075651553627 1.2604967336734034 -1.092812431701576 -0.6417172671499722 2.402207394621024
Ni 4.111866777375049 1.2380088776621627 0.042063139338768776 -0.17728141962540434 0.10749062408451164 0.7480789198363632
Ni 5.615813399510289 1.014417439316548 7.505432268474451 0.7074552327777299 -1.9302176460085985 -1.8738302683578052
Ni 1.1869744996088523 8.69755065828702 6.045085057443914 -1.4602726957403431 -0.0118170472395861 0.25401959301840765
Ni 4.0314308606774425 2.436769735164069 6.435724674919963 0.6874903596200289 0.6756848823446686 -0.9284315221879237
Ni 5.902225573802268 7.9823522548420325 5.765591162648444 -0.801370175060336 0.7546396037730164 -1.2422621738266928
Ni 4.4569717042327515 2.266033032799085 8.932381427774802 -1.535118280096324 0.25678018648268036 1.2541221584890725
Ni 4.028102731537594 6.157471013884065 1.699190122939948 -0.6344932385977072 -1.3302363251448317 -0.1455069554272849
Ni 0.7176319829569141 2.8108257080476906 2.350700821991366 0.3321312497201699 -0.8333888940587776 0.6146026703213673
Ni 7.487545872779492 2.5884294541998116 3.802852744858198 1.306149459398957 -0.15936777256977713 0.032296912360492765
Ni 2.0739025279246337 0.866690796651046 3.098340210195659 -0.3835651400204298 -2.1895385966352614 -0.08814538678868045
Ni 2.252260829894409 7.3072017257980955 3.343224320054779 -0.4924621575341648 0.9260056863552505 -0.6051322689370868
Ni 9.109797372736745 7.194642927292118 2.1320546893483048 0.38754906436884223 -1.2583516231893876 -1.1660598183325015
Ni 7.238294742640185 7.604517660200186 3.527652320527669 -1.5980447444172154 0.5502068205438009 -0.7189619478657489
Ni 7.744933451230308 4.607482207405287 6.083433931112797 0.42317426977161954 -0.6743317107508838 -0.68195014652809
Ni 5.527406521585477 3.1828682547389735 0.8703471418414264 -0.6653451909815574 -0.427123998447987 0.36038715924206965
Ni 0.41328560559006666 1.48920907790547 4.64964923585809 0.02418122523189384 1.2211559879756968 -0.11605728270760014
Ni 6.145758205806256 4.995172477290001 2.722178873850641 0.09396559301488333 1.5534181068467763 -2.2066942824789413
Ni 7.752058589582193 0.2476459054215797 5.178454939390446 0.7042315836341099 -0.5369939213979527 1.322588835901903
Ni 5.776078446929728 3.9019831858457708 4.558848311447044 -3.0824086767788077 1.1110214985104347 1.3834270502351982
Ni 8.968793183184662 1.290790063827548 0.18011154569068402 0.759729102480782 1.971264536647579 -0.8729226904873418
P 8.53643978799226 9.061714181020152 7.484763851017839 -0.6576028280319771 -0.5216794025280693 -0.5499949616433109
P 2.1148513875624366 6.74586953584621 5.448555603406406 0.8770025169836704 -0.6081687417705655 -0.3179487875722008
P 4.20493487484103 4.270090817421432 8.014699463586902 -0.5530260351601508 -0.28077294985285195 -0.7253282564034089
P 1.771263425644167 6.464376005448758 1.1790118127358613 1.307508801640329 0.008901673365004024 -0.4870967794571934
P 3.9816100545756785 3.249679068162394 12.207721107103577 1.3970366705988326 0.4420263694811162 1.792611947706261
P 0.00580032230477995 8.609934440876094 11.825289649008901 0.6800786405369901 1.538587212481531 0.1505460605130891
P 0.15255334929097267 3.7645921309676096 4.473295166353748 2.279894103701383 -1.704093750959194 2.265989834915465
P 6.794329670365935 1.7477090973118699 2.001841177065392 -1.0886639567508412 -1.8796355621856726 -0.9235873067217449
Ni 5.794898005905611 7.657105778100552 1.2283076570313118 0.3062099018687178 -0.09993980832044724 0.19466181988538087
Ni 6.260955603934158 3.509447821881775 8.183612130533803 -0.023952139940223268 0.6584147824103112 -2.151549518985998
Ni -0.3592697019012513 2.004839251409327 7.111011271122105 0.490808938201458 0.27270045725736264 -2.1698714572236373
Ni 4.113144705414935 6.062361909045029 4.194757419156465 0.9280003481877761 0.04329763434637059 0.44396035327903544
Ni 3.4471970970035613 8.416994888033944 1.2514491870255446 -0.268456337269028 0.6465694530359509 0.8638029875742609
Ni 0.9191704285739257 6.624972027036801 12.559674441133307 0.049976589028442965 0.4421376982479998 -0.4235676485552964
Ni 8.588945162350475 4.961872798437706 3.1417217299726987 -1.054007028798604 1.7929865574368606 -2.222704027643636
Ni 2.146661682656015 8.289634189209856 9.853602976821378 0.8791409034829116 0.20884325359208547 -0.5176312006006246
Ni 2.8444103924340616 3.689608094325059 10.527839649410895 0.8344193922058211 -0.29935945460578767 -1.9457355391385391
Ni 2.084263858147311 4.785776153286722 2.611988379395562 0.1964453941483649 0.7728651256421076 0.7463984468101468
Ni 6.703412904995878 0.9439107476770527 12.906946329422675 -0.9024975759309811 -1.2657731124644394 0.55124888865507
Ni 6.760699017345036 7.881267227514318 8.643737935962818 0.5286496631983154 0.44628643030905074 -0.5202935779241362
Ni 7.756085441966872 7.490064953951642 12.940814180597739 -0.1494523132282781 -0.31153902739111505 0.9342324451404168
Ni 4.030226482452801 1.323345050800485 11.18235118092432 0.04916103510568308 -0.07941134934979226 -0.9310118813205902
Ni 5.6841963402345765 5.381364169689092 13.270741183706889 0.09676629568847206 -0.3755345564064694 0.3261704041510447
Ni 0.46718658769256133 7.362741030035178 8.30822758250386 -0.39968749950358906 -0.49139592105317953 -0.9655911619573564
Ni 4.104465827215994 1.8053169901027264 2.9794965799769737 1.5453600124289903 0.16432408813378796 -0.9521363220040312
Ni 7.755561399533248 5.492084222813937 8.415471487485677 0.2003077053172486 1.4687326535822383 -0.12903029792850035
Ni 1.5529399928154948 2.291187069612967 12.329712669414763 0.6302627454561275 -0.3777364491537946 0.06659440009078209
Ni 8.57938368636859 7.16450589049537 10.410867861990202 0.24481555792163642 -1.0727781387585202 -0.17501679196094375
Ni 3.2186318524019852 4.686566646247761 6.042649639186605 -0.060516569327818355 0.7514663482513574 0.6301437033797599
Ni 4.774357544469895 8.645385451824312 9.546188652786114 -1.539998748117077 1.0132393599629388 -0.09221724286520894
Ni 2.9103661892552557 8.557769234413387 12.288174491882305 0.7449074640869171 -0.7723509050098505 -0.9451424071847011
Ni 6.553711449791041 8.203856717180063 11.033729988630895 -0.20532289914365284 0.5077882463682738 0.12232228978070546
P 6.581338599142545 6.018434281889792 4.77181547898048 -0.3120961854461657 -0.16697978058908017 1.1634666036840284
P 2.5617032900850627 6.513681962843804 10.844983694630418 -0.35809039278809296 -1.7213965039037 0.9749548625604436
P 4.670385686893803 8.41043976075021 3.2180976968687665 -0.14119033032980202 0.014840921667574442 0.027880014239719725
P 8.625628132704053 3.38191244224648 12.494655485083799 0.6475585564220977 0.043937581923214654 0.12951649353629952
P 7.357859161048274 5.947982752611731 1.083257308268047 0.3047405164120429 -0.016329333287642845 0.3244922451176734
P 1.8479207205835477 1.3560379436770065 1.0046196845531876 0.7931868679185952 0.3898221766737351 -0.40113168814928335
P 0.18700224400647508 3.8615951435492124 8.058741092955769 -0.8276941576668455 0.38633601789734756 -1.0133393758759128
P 6.151899615379236 1.4798222827347924 10.240945723829059 -1.9009641484601196 -0.49502811848912814 2.784463328911727
