# total energy = -340856.32933757623 ev
CRYSTAL
PRIMVEC
9.51781975713344 0.00000000000000 0.00000000000000

0.00000000000000 9.51781975713344 0.00000000000000

0.00000000000000 0.00000000000000 13.93029129053201

PRIMCOORD
 96 1
Ni 9.678290342886603 5.13935624670964 0.06490296567588265 -2.535119286992118 0.619678542182378 0.7285645039525195
Ni 8.060575048048172 2.1899171093694383 7.436880876079512 1.2230372641588096 -0.31000536435540804 0.23209322525896156
Ni 5.282161616479983 6.518193297713356 7.263184470043733 -0.3930447973760908 1.1327774021302879 -0.7274067361989924
Ni 2.6484951899416105 1.920020290482634 12.518637180322065 -0.39173996252173826 -0.4686917945874444 -0.46561546965496586
Ni 9.27001394048267 9.674292858528862 4.697113600430778 -0.4922526126265199 0.027293545608630416 -1.3076846650965606
Ni 6.672657996860443 1.409265521222044 5.161507068961474 -0.7198165825565602 0.08022690327255216 0.018177699350291274
Ni 2.017301927674228 4.2979238606847865 -0.02816418086426425 4.121084731647296 -0.9997079011354073 0.1379258006459173
Ni 3.8468743756530253 8.692682021025893 3.9010250601885748 2.2200879301770278 -0.5952186093678007 0.5722545443724597
Ni 5.346444972080415 6.674342650982633 4.4261412678953445 0.7393826776139459 0.586065739223939 0.5582574587624192
Ni 5.477115121479045 8.172495092245015 2.3452060517198112 1.6506070918949638 -0.9802320517989828 -0.5848444652223282
Ni 5.856590600867445 1.250375035821744 8.054466511236747 -1.147134185072592 0.6912251440721128 -0.35486880052700176
Ni 0.6453443568937853 2.133133795849719 2.846697126872332 0.8229237328613958 -1.6912539188820486 0.14394989535281016
Ni 5.551020992997754 6.489506588536615 11.895521691803289 -0.1887598525786491 -0.11361602025595918 0.032006891923899716
Ni 0.5078347021154594 9.497451764798324 6.852199296096434 1.3950654058050749 -0.4785843711108081 1.482324019113428
Ni 7.817118732841853 7.226309580407553 3.96882334667785 -0.10620970048955901 0.19865088644011594 0.09589906259217032
Ni 0.15735240570455958 2.678809446321145 0.5363814993396789 1.53194733856751 -0.9352511162129183 -1.2318242663228205
Ni 3.60368455940389 3.358267573298299 8.082452708868892 -0.6608704430396554 -1.4105989826642997 -1.4425194855219803
Ni 6.668413049185318 8.710699254095426 8.633758149810804 0.14558768806654926 -1.327803547333623 0.9244879641591432
Ni 3.276357215244209 0.6696176529831819 7.079318273445462 0.4197624158765932 0.7100019104589836 -0.5076082691469839
Ni 4.7123868460233185 0.3208809247418288 12.266025674154532 -1.5050433150878144 0.7612360260436116 -2.1525597054180667
Ni 7.880992822186613 3.696673659820862 1.0170494881163294 -2.163676898377151 0.7633019074337047 -1.0640708407925095
Ni 0.9911001039426517 8.429542854267652 2.7244445373927175 -1.5400982498094187 -2.790382779719956 -0.6899714741706698
Ni 3.250506816397485 5.702963469871504 2.7440303071816676 2.1374503605804542 0.774761314223556 0.04310737271243544
Ni 7.288403837431127 4.521925752016765 10.981554952107226 -0.7627938574490346 -0.5346699012504662 -0.3633097322055034
P 8.241109055899669 1.7764915663999385 3.520199002156452 -0.10310483631199018 -0.3736748774899113 1.226362986097933
P 0.49115186739582095 3.3922366725191972 6.284873460699881 1.7188763085850074 -1.2799458044203957 -0.1872292748667356
P 3.4334583505034253 6.408271995695382 13.115550110657841 -2.2040673863790556 0.5538410748622784 -1.6273825741493844
P 0.38568300152677804 7.06284102363565 6.913714869670127 0.03965309561524783 0.6452833872346757 -0.23438459239629958
P 1.2788428351407988 6.141820627612155 3.085294595020015 -0.5488377081104161 1.3292868167473688 -0.15603819397591193
P 1.7163770159154352 1.6831693422864882 8.084709383967036 -0.6660468450342723 -0.15625005287640187 0.8489972900199959
P 4.1747918246464675 3.5950614145750492 12.550384820378447 -0.8621505395725023 -0.5718202850485185 -0.03779881601532845
P 9.002572719129905 5.208236709321474 11.941588891898293 1.1659338342775982 0.47519745691644616 -0.050082261368371815
Ni 1.2763301306873616 7.195386183554457 8.956927158456445 0.2492049452385837 -0.2254330396299666 -0.6977670589556887
Ni 8.824094560376675 -0.09003476912020347 13.442048452704286 -2.3728078584129846 1.8239215564528202 -2.518302215434779
Ni 5.383669165706902 8.994301733637341 6.532401499259155 1.259389834645915 0.14868381049336973 -1.5343502915820477
Ni 1.6466304316927567 1.6590321510216528 5.124355210766223 0.06269377948479524 0.2785630866857267 1.2267982738631387
Ni 7.756909004158357 -0.1465753782324882 6.5610701245780865 0.06436576787057947 0.30125307208407476 0.029442216520517032
Ni 7.5409020815418595 6.0945646518117185 13.52960097439473 -0.21265491402869185 0.5160792827324725 0.2557329761650886
Ni 1.6149456092477106 4.081545743092213 2.2897495222940667 -0.9300716288945079 1.1166725261486252 -1.3263932972496577
Ni 0.26847961550378574 5.0875221995376 4.567881593618946 0.38069373200990564 0.37711681329192476 1.472328855573929
Ni 3.5850867393204955 3.5478530278741096 10.234459389797099 -0.6995822577875564 -0.007646975022296508 2.972346178202062
Ni 2.0002840656941308 8.206235763788328 4.9440001379288345 -2.366707144831885 -0.36417465130895993 2.6561380274700515
Ni 2.468313341426391 2.0024255751714923 1.115553213383004 -0.2200560915887694 0.29971195284919994 0.7382714468276382
Ni 4.113563689233738 1.5525943710868526 4.329158490248592 0.21546461556334506 0.23588123154648408 0.7731019242432621
Ni 5.350499563357553 8.520990067860925 -0.02792813893075955 0.5488904157252225 0.06302930844734307 0.6725021137413129
Ni 8.892575274552737 0.14066005316502167 9.345247547877342 0.3795452202277593 -0.17382945652106194 -0.3509792356646084
Ni 6.153403814429704 4.055552576946998 13.244322406768534 -0.09943587210083521 -0.08940368467581376 -0.21442151901081136
Ni 8.00708490021364 4.995684755328454 8.310101828786316 -0.29306642250822434 -0.8076637213785316 -0.1468578130282245
Ni 6.46445568656144 2.4146233193739715 2.6826536937785064 -0.9092181824842663 0.2828635138332935 -1.0160549750348629
Ni 7.707663803998949 2.129478953008356 12.390130431386567 0.2110664864956494 0.2993519984066199 0.6275839130723837
Ni 8.39532629172937 6.633558792713777 10.185773837447774 0.542263397327008 0.6519430586430385 0.44849295104206627
Ni 3.2255415748014036 6.153717902486384 5.303387306637597 -1.9848960113880847 2.5382879145280866 -1.8971085221594552
Ni 2.026972032692001 8.980443787863841 10.481750434640878 -0.9025315144927101 -0.4761279391505155 1.202679269327748
Ni 3.7109694253097354 8.428705286116507 8.833379193688524 0.4462195816268574 -0.29470935742828597 -1.6340445595505921
Ni 5.2751279475743384 4.4652471345159395 3.599155028913774 -0.07474402578110999 -1.2619401118715945 0.299248125838904
Ni 3.3577440932038334 8.469555769124659 1.6237705318584188 -0.62020638966139 0.8109598756313 -1.0342023353678511
P 6.495207762656346 6.493761054031641 9.072562007760018 1.8073767647202614 1.9996042641325367 0.7398015103189194
P 6.033564944076573 5.9498557180614995 2.2933853294956306 0.024285869130558177 0.2531377046340866 0.020169790079655584
P 4.827504877706355 2.665275106424223 6.156478070257204 -0.4086092274732511 -1.3863069428861545 -0.3607530272219206
P 3.583925565292771 8.033506368254326 6.6517007092239915 -1.4410542138303633 -1.6645386143743914 -0.6800434164236805
P 9.192891045837968 8.51425145137216 11.157452829885736 0.27939278167587367 0.10444669505186528 0.4806160568288561
P 6.503621515447401 3.231823335934996 8.532247745237914 0.011087368162413163 1.2014202001096663 1.334748096972256
P 5.776621878072829 0.3495952355962774 10.197363686739253 -0.6398606735572078 0.7846132673169713 0.5767030670621165
P 6.641277744652177 1.2039566281724532 14.084081560055075 0.30226762939151813 -0.7637397663020717 -0.35610935780232217
Ni 5.175257463370112 5.0242667684863 9.129244432388804 -0.7213669577628157 -2.879341663548867 0.10955650547460487
Ni 3.76071906992381 6.6240219371745965 10.056430472143118 0.11637044307264474 -0.6122578242382746 0.289702648242314
Ni 7.751407704256513 2.2028803800723975 9.986096638432647 0.5637637332926291 -0.36770374750814094 -0.29976928844969664
Ni 4.173735346637637 4.045996685768017 1.1213133979861105 0.11166249607401414 -0.44998213399308307 0.3627248062363108
Ni 5.05080245036578 6.208978364822201 0.37421402854802144 1.7142593786382863 -0.27229756539198907 1.2509134217437876
Ni 6.368468472876162 4.24881191000397 6.571545437159347 -0.1127834970523348 0.42088058864143646 0.38344378395121703
Ni 4.137853165616963 4.673125838938364 6.322750576771465 0.33909919639757086 -1.6334292945640967 0.6341705651509658
Ni 1.7748735370170434 6.844949572679075 0.9599863506915686 0.2855726852343405 -0.8404864243355074 0.1622072989011013
Ni 7.758869675057629 7.1689551976938715 7.273102990160878 0.41931118727178757 -0.5581818683294775 -0.7037754699332975
Ni 1.1972560829632874 1.8789033085172997 10.37206327099243 0.25586358820568195 -0.4557162082633829 -0.7871902840155283
Ni 0.9853227872637262 0.1986216727882843 0.7895802549950053 2.247026149328769 0.18276275445494977 0.3778377506183493
Ni 5.627677514467384 2.455264410344337 11.094334455440988 -0.4176248007083001 0.057555686927281524 -0.04384425087845998
Ni 1.7962886317906552 6.384525035046421 11.167816783974175 -0.342656574731526 -0.21150074581959058 0.7928572524933183
Ni 2.7196789649690962 3.6300774739848793 4.173459329860554 0.7093930732303911 0.2592841838514567 1.1482410449835256
Ni 3.714338733554117 1.0248502933058639 9.583539494006255 -0.00015683729283843956 1.6894726586119098 0.6346619029650876
Ni 0.20226033533581841 3.9045238107835885 9.544924746892468 0.20921632066078807 0.24678862248760725 0.44023688168086117
Ni 1.0425344026789174 4.970491086054786 7.477000390519391 0.5623617107387798 1.754913661824539 0.12191425570900939
Ni 8.19850729403003 3.369451011680075 5.449028986737955 -1.1044402457484914 -0.9423710150871513 -1.487418917137832
Ni 8.391414467750725 3.9654664115993374 3.1622318921766777 -0.38874617000073697 -0.027030264644914734 0.0005988099262634848
Ni 1.4588343272580306 4.056656644055327 11.722604795217269 -0.7230448596858708 -0.3573514577395394 -1.1021208535866955
Ni 4.498664200182673 1.7982683383297267 0.08444590527528578 1.7004823794588522 0.17334094692041763 0.2288595488130123
Ni 8.313434969315079 9.279950544457625 2.4124618224748215 -1.0504545355606554 0.17404954295166797 -0.3005503895900953
Ni 0.4666349151170003 7.29621796756852 12.990261336630324 -0.7488044851484782 0.6933164793835027 -1.172069000641059
Ni 6.887646512747707 9.127484587489409 11.929637365450638 1.0732427370997646 -0.38509211818791744 -0.5108928534355266
P 6.256148680243544 8.892346846875151 4.217924680866492 0.3042509783701341 -0.01813321926560103 0.8528518878793956
P 7.35175444668142 5.277021993734316 4.8899503422842185 0.11413281199137763 0.8362183930877728 -0.7605248589091999
P 2.7936133899475033 8.86984672063301 12.797814825392757 -0.07791239620676259 0.2833160279896798 0.4192759631584779
P 8.696888897421422 7.820640326204624 0.7800586279676625 0.1540090793610251 -1.6798330786396167 1.0014418531073785
P 0.3758453828787757 1.7215927812202971 12.371115730791578 0.02001603811061069 0.5165006865406073 0.7212083206977644
P 2.149333125318469 0.34769643052635046 3.4613017808370805 0.5493341881308604 2.5704809543208635 0.1529785812139817
P 2.353652165098524 5.08227788077304 9.231102237388022 -0.2720016314181251 0.020137394179823385 0.7418607068407933
P 4.329827592987518 2.129478953008356 2.2970354134270443 -0.4387127317268509 0.908541725242532 -0.2779131118065536
