# total energy = -340858.32277212833 ev
CRYSTAL
PRIMVEC
9.34461176627090 0.00000000000000 0.00000000000000

0.00000000000000 9.34461176627090 0.00000000000000

0.00000000000000 0.00000000000000 13.67678388777002

PRIMCOORD
 96 1
Ni 7.618895560599632 7.634258102287457 2.139924496836624 -0.10801281513656881 1.446506752304502 -2.0628744849460925
Ni 3.436163247737349 5.905252627303778 6.8861238146973704 -0.21284029056662054 0.7584322380462293 0.34325589887842173
Ni 6.199084598612759 0.8047551589981566 5.80100787666345 -1.6548591823030983 0.9306822658953132 1.2541093029732662
Ni 4.365111100040675 1.9845245381904204 1.1068552427678355 1.5379079270263192 1.9128022787456282 2.797010826559435
Ni 6.477413859057931 5.400811796773267 9.941818392372499 -0.9963369277806454 -0.0004818247324249767 -1.2438385171748771
Ni 3.448488790612192 3.624840303223281 13.45727160511919 -0.6505140395059957 2.2780061426500513 -0.46874655908477975
Ni -0.034725511658227445 2.7815638512812555 1.119027534010269 2.430582603329608 0.39991581346431126 0.9059086584950592
Ni 6.231809428899111 1.2288818550734688 11.244750688657035 0.6725391376268353 0.42622076990742724 -0.746914724324933
Ni 2.293242475988881 7.64903193343615 -0.036071135747671956 -1.3885720847712473 -1.4559082481240604 2.583642431403486
Ni 8.378556426761453 7.044884095722493 11.23240084979169 -0.7588060764458803 0.3405942928858586 -0.3919556780769701
Ni 3.131024296232342 3.5641563946340264 3.4523892315492346 -2.994539169359333 1.2205306956868722 -1.639313007038383
Ni 9.143665201563177 6.337403541473576 13.33018675448289 0.77845624657664 -0.37450405825942595 0.8852812120526947
Ni 0.12069500513378696 1.342175927715311 3.133748250552294 -0.20860414099808589 -1.4123334488569033 0.08405193344559718
Ni 7.637706264016659 4.374642604007574 7.286361010879177 -1.3742168444908398 1.3757497361955984 0.30133971826061007
Ni 4.188348424513367 6.192505991953252 0.3431304049636577 0.4606668674004389 -0.16156632288299272 -0.7798289585544504
Ni 1.6451749631336323 1.57322145279528 6.5139512909310415 -1.1592993596802164 -0.4719671229046065 0.5167315716044907
Ni 1.0372799361153417 7.918007237537337 8.308126088135458 0.8809015949277603 -0.6996151679080209 -0.5004364339888929
Ni 9.065254564517838 0.37546182709608183 11.2354228972259 0.42063839072364334 -0.47853063505473714 -3.467341643681041
Ni 7.605215049023612 2.5467150692262592 13.546963991908878 -2.3874778017203333 0.8729406882094709 -1.7511367112806098
Ni 2.3698496029698957 1.0176749407010737 2.7345632576515393 1.8464942995470133 1.0080727281603348 -0.6265405594095339
Ni 1.468701970570024 5.145918822552586 11.248429662296024 -3.5775311547539546 2.274535410492631 4.806029442027335
Ni 8.419289589302345 7.035034874956697 8.929667986127532 -1.719175584992981 -0.5060715207874833 -0.9643338925114875
Ni 2.4774154286198664 -0.06376576153855182 9.373342675485544 -0.952715848656585 1.4503603217226375 -0.00023551304957378794
Ni 2.04804920874628 5.560838272688108 9.298777346168027 0.5398051655945025 0.8669813853022424 -3.8436123069225867
P 2.1414486030101543 5.414193280773853 13.780726930080588 -0.5382241942606278 0.306716152081175 0.0295273200351556
P 1.6382786396752294 1.2780532020085869 11.151844689892624 0.7067098699712732 0.06629280968996325 -0.7045840818775221
P 2.2173081610525887 1.9830387449249922 0.6367044649888284 0.5528491432626543 1.4836494227930705 1.150165258589432
P 7.1189962113709955 7.318942868606025 12.94361231511481 0.6249739862533623 0.5525249271540161 0.26343008769903015
P 6.857739556560651 3.4468534835590474 5.473311966897956 -0.09035679261770245 -1.0563354198214647 -0.19970195341244965
P 0.16402690419741991 5.619092582226978 7.568130022902991 -0.3544728506401637 1.0844494044488613 -0.09796571531321192
P 5.576144746705539 6.167013891147665 7.9199929675304395 0.6495313638777523 0.21018845476607026 0.3652938525150677
P 1.9774413224973721 8.446557166337062 3.4300556095091483 0.6240067372440866 -0.8612195431178007 0.021521933232175838
Ni 5.80400375918481 4.326704745821113 0.4064522974449275 -1.2160227805141897 -0.8833991645386335 0.995696465983169
Ni 8.141352802549928 3.4880632212982854 3.187552655984263 -0.5873726309608207 0.7930688542834923 -1.4418121750423105
Ni 5.517993227895726 7.844642690827413 6.666460961168459 -0.13149161498479936 1.2987439109635053 1.1015503257952062
Ni 4.191983478477214 2.198889931328317 9.82533313482409 -0.318275060563368 1.7112853836116269 -2.3678129763015545
Ni 8.113262899682775 2.859170851717621 10.891520627333158 -1.500331511434442 -1.6601906218183407 -0.5630150280520626
Ni 6.256516582319189 4.827286251706203 3.8357360420249917 1.245596123295932 -1.4380354816086978 1.2327925437733607
Ni 7.23374804344307 1.6204117420431605 3.866317218379965 -1.1853281796438102 -0.14471736964645399 -0.08541024724570452
Ni 8.793102092427684 5.060088563791838 4.728064229871963 1.4787303882248986 -0.3358266962938861 0.9685422741658803
Ni 4.750604367831332 8.496046230071077 12.12649330033371 0.6209311836425564 -1.895370713532742 0.60517057837419
Ni 4.465584365385866 0.1508809044124856 10.265069070336958 -0.38344789771627513 -1.7382505993465611 -0.6743926458958064
Ni 8.775823905334748 4.910836425204284 9.972222021104557 0.3483819072510774 0.45291576270011025 -0.6094990305462148
Ni 2.292793934625733 8.571335766797844 11.758983737821776 0.00138351061108794 1.3370543765079297 -2.3062448257807704
Ni 4.429299238029525 4.26875880846941 5.49311600254212 0.10164213572353463 -0.33405057823006984 0.04279061280296501
Ni 5.775726964083011 6.362306931740032 2.2855817632907796 -0.05805422383025485 0.18912983432355815 -1.8747648643569326
Ni 3.2171068595098617 2.0327427347288487 4.99820761043968 -0.12316509739697497 -1.3260695953616517 1.5595054506914365
Ni 5.782473773753698 8.194327406460074 0.5771344341180584 -0.0801392286547523 -0.7924895847412545 -0.8136063121152116
Ni 0.41170210031610754 1.1428927379132714 8.456519456904818 -0.8284981416253796 -0.8059310549581411 0.7543274718492363
Ni 5.08415093900239 2.4829848172122895 7.193578360989631 1.475240629904085 -0.8590621304551658 -1.5809559072557289
Ni 0.7876414370717075 0.9339201202060583 13.355379827713044 -1.083888646849385 -1.6172256882210407 -0.6083456336680619
Ni 5.035960776299158 6.886642440648511 4.718983136190559 -0.18236809011969238 -0.04096795777192944 -1.178769552589686
Ni 3.6944483160168375 0.739779270240278 7.083165232144842 -0.003540666163406806 -1.7636790667219946 0.20067871550342212
Ni 7.84271770081057 5.088309291223243 1.3810541848273516 0.057806883706139164 0.007266194644110067 0.029681072004200497
Ni 7.762232559960669 9.64728370626125 12.869661861249275 -1.864194287929938 -1.5881215717662327 1.9863569122043274
Ni -0.15283299380335338 2.55244331621813 5.296183917051916 -0.5504418193727423 1.0625410344115442 -0.16201652304653388
P 0.8870307274559565 3.3471371317641694 3.1108530173470994 1.3319785046469188 0.7620891180725263 0.03521871399297806
P 6.242611800061596 2.826838495124024 9.437555109464897 0.6663810884452395 0.12045541177529578 -0.1680529590486009
P 2.0339855680892382 4.14805445872389 5.746929674107726 0.46920601521970157 -1.1421341607548394 0.10716203710049932
P 5.443002718744391 1.1133731094510824 13.205591308412059 2.0698205772466225 -0.8118826445558857 0.001415392290287885
P 2.8715618068745896 8.054681528733276 6.833166965549517 -0.48624857252428516 0.1366785585023775 0.9115869398267591
P 0.08080566103231619 0.4408507476925261 5.25764300042341 0.8081031229087954 -0.5480542929771722 -0.06374613200870957
P 7.609420124303127 6.603668908172409 4.025036383113465 -1.6600206718993797 0.31361545030416954 -0.18517342077897142
P 6.163799344711769 3.0349897214599717 2.051258148415136 1.3826991709302379 -0.5020279468457289 0.04216609184508867
Ni 3.5073037768549957 0.274488625023216 0.04281233865131967 -1.63297678040771 -2.357083248588876 1.6066108888196717
Ni 4.750697813948654 4.237080574697069 8.32276068456934 -0.6954664358469701 1.7811414851728162 1.6447102667945546
Ni 7.749645367957323 6.684275528974829 6.191110841421627 -1.508577553493318 -0.027126423903146832 0.9978448797847397
Ni 1.1222504905967232 3.129435712237859 12.32602318788548 1.1742374690472874 -0.9709961350230116 1.1319487355814053
Ni 6.5989498792476216 5.34746340839383 12.33602098797782 1.7446241069730728 1.2549086589461098 -0.4561345267477241
Ni 3.8053408234434905 7.624623807591504 2.4572665768027813 -1.9837354154210805 -0.6352236890058286 0.21280455223267866
Ni 3.71606240295354 1.812742540716403 12.051079480270904 -0.91669932135266 0.08967750716249072 -0.9160943407788094
Ni 5.782455084530234 0.4498617567859382 8.355475235782786 1.1203180933210124 -0.3329020664479235 0.29262727808827665
Ni 1.0469983323168854 5.426060937673816 2.1005762057544506 -0.03275713982636294 -0.693227262103806 -0.16741892500902777
Ni 3.9064308331630095 7.44418869965342 9.097577576499702 0.4648150852408575 -0.9442168100466383 -0.5847945858209994
Ni 5.2083221397005754 -0.01023328430799087 2.271111632023385 0.7109277647073627 2.5833482972018347 1.1587923381368108
Ni 2.2853930021337883 5.844606097161452 4.456060337108353 -0.004741371339727319 0.8579856095615352 -0.5332426818856365
Ni 7.525187794148594 0.8402936518770902 1.542221637834702 0.06643062081940818 -0.1477258174554746 0.669565142600176
Ni 6.15144576800173 7.859425866587838 10.085068486844424 0.9204317918118986 0.10526353452620581 -0.21889832383524238
Ni 3.197791547059293 4.07532534561176 10.887827636776573 1.2962733379358256 -1.8770266638079156 -0.40587074549616553
Ni 7.5901235010760235 2.087595605597177 7.746749472781499 -0.2768869845348844 -0.6771018172968533 0.15494496091173315
Ni 5.039334181134502 2.4832931893994536 3.8271885256734994 1.8143051164089787 -0.8702505429718174 -0.4124689675389735
Ni 5.454720861856638 3.6468655530762026 11.425353065145128 0.07020551448080813 -0.88204856404801 0.07900588638125748
Ni 8.035730656140267 9.032370875832036 6.702513407692667 0.5832310979886214 -0.021391064081266384 2.920506567822951
Ni 7.544157355965068 8.857383676533857 4.506719346231246 0.1014153644247092 -2.406626863844958 -1.5752406020385064
Ni 0.37599727334834 3.447367437204321 7.435219741312802 2.1123630785945235 0.16957582345103053 0.6297014736360188
Ni 0.5990783858489095 7.267145685774143 5.987641265563538 1.4694893292426048 0.3038455154015993 -0.37285392425051267
Ni 0.12579809760077063 7.474652133900566 3.317645537137177 1.820686337344974 0.0014871260684877615 0.666710189649884
Ni 0.8859075051257396 3.033588029700134 9.954469127735623 1.381075519283886 -0.47428471529418964 -1.0895640999676075
P 4.9318337677666575 -0.06957624111366709 4.308159429377283 -0.015018584896019297 -0.053533453141765865 1.2736625425148451
P 4.379847552742439 5.7716994364264105 11.209068288757425 1.4554675610422159 0.9083306376729906 0.44654482617676
P 0.09158373620429745 8.626282083783494 0.9674541938684235 -0.5746482414156168 -0.8322005301776313 0.11035740410934544
P 1.0458022220151568 7.248269570074991 10.573548720536246 0.5900550628889902 0.24703904793551648 -0.6632469136916319
P 8.650624797346014 4.167771589478945 12.365863940005942 -0.7810450903497388 2.2849995432487487 1.2314522276953823
P 2.6906127452912316 3.4909600509352843 8.701922043450221 -0.21139970146535203 -0.3779045993005427 -0.4777315361922096
P 7.983391485827914 9.145309853228055 9.143969835905649 -0.4056514303965078 0.7803727468730626 -0.19781296391985287
P 4.26142328825959 5.281836200198214 3.296159471381207 -1.2713284950650299 1.467918385211059 0.13462141886303264
