# total energy = -340871.78384412744 ev
CRYSTAL
PRIMVEC
9.21658465850373 0.00000000000000 0.00000000000000
0.00000000000000 9.21658465850373 0.00000000000000
0.00000000000000 0.00000000000000 13.48940327437708
PRIMCOORD
 96 1
Ni 7.480253887512398 1.8811418067057382 5.837013330450129 -0.050207216982010305 -0.9439473584353355 -1.000289227560174
Ni 3.108634208826668 0.367928826805134 5.016817475086724 1.5050559134933046 -0.09701440714353615 -0.562629876798502
Ni 4.673204763735632 6.572494025745546 9.446683204196937 -0.6932264907728577 0.28409918601260753 0.12793989307779902
Ni 2.663998512412561 2.9110951486263583 12.38708985719296 0.36692238925742615 0.7415015237291617 -0.8416984423657374
Ni 6.466650766876496 7.335894521118639 7.624858415059582 -1.642079771150243 -1.2087452730161699 -2.053464504486102
Ni 6.970871683474199 2.115279924810001 3.117427752303415 0.5160324886549371 0.2836510427315954 1.171459392081518
Ni 3.455841388216678 6.839922447841016 3.3643382135059654 0.227467296451176 0.17459153149806705 0.47309995095746904
Ni 1.920118743466206 1.9741094967276913 3.4708634996439387 0.05222270475014231 0.9479482520646125 -0.6533466238587844
Ni 6.375507960628147 2.883491477404414 9.860996336898122 -3.254634022037543 1.292681249709193 -1.404429106408162
Ni 3.931850339001235 1.9170035378324775 8.538994310132392 1.090757606055076 -2.285616093786825 1.4042761257700653
Ni 2.185252235967597 4.659674817373758 6.043023353662155 -0.30092242821753334 0.48941720006025397 -1.821663613656579
Ni 0.6637950210392707 6.506383463583608 10.228475394369156 0.23306021715792122 -0.17502373393947923 -0.19111935394976118
Ni 1.9570588150046206 9.086041009267618 0.22769849036377174 0.2381862255305769 -0.10989280576810107 -0.28782188627983335
Ni 5.054126210013746 0.5067490257850747 12.849884068812901 -0.22964759193194642 0.29354156237242995 2.1867255526664984
Ni 5.569222696575354 5.014080149426317 11.539887565297155 -1.071140346044781 -0.5131983616402516 -0.14485003856957632
Ni 1.7791971631712056 2.413602338870732 10.008058005930373 -0.11127683059982127 0.7096275578387004 -0.2869564529557445
Ni 8.75223474405347 2.3859710178946423 7.694976348255678 1.1222754741576995 -0.6815966198434134 0.27946065879933163
Ni 8.317930839105072 6.426116227299164 0.8422446909775138 -1.7477001747952354 -0.2251695015559348 -0.9346268523653581
Ni 2.1781370325674834 3.7907905099355075 1.3196094013736728 0.7151921964106714 2.164995102967942 -0.6761754488278419
Ni 4.171794905476057 4.966752986913902 2.0734292569353423 0.9172847615424847 0.17522685108922081 -0.11868546435906657
Ni 6.818696653241972 3.7977490313954627 4.922809232650428 -0.378744835813651 0.6876327987351641 -1.4724998339341544
Ni 0.46226702297423367 1.674893073949589 11.967852303278457 0.6733793741399435 0.8069684950837198 2.115065050906719
Ni 7.392880664412555 0.6110438984219763 12.396788469288737 0.9899143120837531 -1.702965550892022 -0.15451661512506293
Ni 2.005197036971971 9.203838178512248 7.60706579826694 0.844456721837165 0.9143629599099995 -1.1283741308562696
P 6.102273090162119 7.857958745724917 11.684898544230277 0.5734447080258189 -0.07478130677694862 1.0538933860388753
P 8.021221327369497 1.700681077982644 9.919095843625634 2.3544622660262613 -1.825186796318489 -0.5829935280565186
P 6.271941198183745 5.306245884897313 9.097563583478529 2.16870109106462 -0.4490069145640074 0.6489610931965791
P 8.959257669925695 8.753847646378626 0.25890492455087716 -1.2688250119168858 0.06237290581026677 0.9308979814505453
P 7.086410789463612 4.397186484685621 13.182411072068582 -0.5565517889252221 1.1951022283114385 0.009583529923377044
P 4.259868589014254 7.8987236999201285 1.3477697543124136 0.29505491369316283 0.2680128219737062 0.6173185265906336
P 0.9715939275041424 4.401232565375582 11.126424201706707 -0.37636348006566794 -0.041515345634967206 -0.3981587215638885
P 6.000392962720593 2.5693349708030153 7.454338694610274 -1.307975199753786 -1.219992563795215 0.1919981570102887
Ni 1.008681464398 6.05369247212844 12.87602691135749 0.30075402096046916 -1.354526308040448 -1.106944500227584
Ni 8.768907545803218 9.34561690118576 6.50266088501715 0.68346966849641 -1.980471657068144 0.5295264093763139
Ni 3.675997947308023 1.8175289390016116 0.8885054946383834 -2.0757847652498573 -1.2169748600148138 0.5439086462399149
Ni 2.5512981145154217 7.746622402365623 9.225956138511721 -1.099688589996119 -1.1391087436649545 2.0805621320338425
Ni 8.446833992931486 3.9701268153233498 9.303695265608793 0.1637237355456277 0.18417660408334088 1.5921160376376065
Ni 3.9284217694871906 3.7910117079686714 7.279098239469855 0.584464199064774 -1.1402713965144877 -0.1933407870811122
Ni 0.95683817537515 6.920530697759922 6.736405454954076 0.17898914634513044 -0.23823456227000908 0.10107726435900011
Ni 3.1975558181586603 0.45938960522615657 11.211245352498919 -0.43448403835748395 1.2225610958533397 -0.4812948280634356
Ni 0.7575737705161595 8.975939688260159 4.1750243967602545 -0.1652471141686896 -1.4526812565463303 0.707029458094221
Ni 8.451903114524832 6.19486290021075 8.345867229035235 -0.34095861820381274 0.2980003694747319 -0.08718919352299823
Ni 9.054870519760902 3.4920902159014546 2.1809665240750418 -0.5928562797832112 -1.1261889502794926 2.3593545611215556
Ni -0.1050266694632862 3.740910353456989 13.526769405123133 1.1415070686938018 0.6156282833724044 -2.474879882585086
Ni 5.1041446152629915 3.425859838138219 13.971110170826355 -0.45258614727483343 0.33980522132565993 -2.542145083490648
Ni 5.563803344762832 0.5013434988496256 10.668903719860786 0.11637635660991572 0.7629090428706603 -2.8007073015744153
Ni 0.5881047407243813 9.467736648661806 10.346439383797131 -0.0865998966784315 -1.834478763143376 -1.5499157501204728
Ni 6.561166843130599 4.421721033197413 1.848628460806021 1.7017342495880823 0.4347858858686189 1.1907956305162846
Ni 7.879811268084594 5.807259430014135 3.4926358377165925 1.065295200117914 -0.02434474739295162 -0.5825996350522095
Ni 1.2826720948106727 4.118034566832452 8.118071042873481 -0.13387374206373073 0.4722394027293867 1.6593262169355165
Ni 5.584402411601244 7.116217224432482 4.67070614761935 -0.8156217998833437 0.21018048434627026 0.6871499455614747
Ni 7.100060551426783 4.309481464536032 7.1287047750630705 -0.650596314807157 0.5993141195934131 2.2207404761593628
Ni 4.2928363125404285 2.5449386710619515 3.283064526170624 1.0210663122065253 0.31599654894183643 -1.671524044553289
Ni 0.20588652097684254 0.9018197729179227 1.9329777224608158 -0.46548177229057897 -0.19421007705994295 -0.564619139314389
Ni 2.481086172155231 6.5954801880251885 0.9854860856453233 0.8254043331914042 0.03829581025640501 1.3874747379420105
Ni 6.826023838090534 7.927755941772924 9.648930095869757 1.2862313803187913 -0.7086916762879925 2.195389141878768
P 2.9044592076314335 5.527821798034795 8.059014854652537 0.6956916644838986 0.3236754056433329 1.163357331799674
P 9.00770925577336 1.5994645446406106 3.9348862820064134 -1.3345812323770887 1.074490750574253 0.9695244355734915
P 3.325896760317449 2.838717308858102 5.067159382459472 -2.6421337427711595 1.405903376960843 1.0172513093358093
P 5.769084336123887 5.186070836796167 3.726244923858205 -1.3113351173649546 0.12335098815553597 -0.059654992658471455
P 0.5061204547074999 5.4807434833096895 2.1260513473666247 1.2847157150052133 0.04927596341699256 0.8064802425933917
P 5.534964651189054 1.3295476446720442 1.7284921223606797 -0.14544550606173015 -0.6193139597541076 0.30816471160224346
P 4.329619702138686 8.78146975077 8.800230108957736 1.5057853354601616 0.8218042745449717 -0.4938207284445882
P 1.9527270201884892 2.1275379824811815 7.775778146453602 -0.27138559510068105 0.2757312736638864 0.6127836148347575
Ni 6.849516912529511 0.46570020078063573 7.953608461898986 0.001498696032713548 1.3944696812026047 0.7990214723225013
Ni 7.662788347796406 2.820321005766616 11.797413688774641 -0.5112623209598034 0.9241254386134019 0.17027439217995194
Ni 6.155600249324111 7.035986854486898 2.396419859986234 -1.2740456368858766 -1.0991800257908166 0.41911089833552334
Ni 7.523295338132257 6.216061045055649 5.773680646921344 1.5411380039278426 -0.1327961927288358 0.236468985729154
Ni 3.608855127657985 7.251175674416766 7.08097945609096 -0.19560644318683731 -0.5313668050191623 -1.0571674288044568
Ni 5.17046715887338 5.232199843295611 6.005226139745229 -0.3417556601838114 0.5675252572175903 -0.29708762785247544
Ni 2.5616114728117 8.968022641989823 2.7005247592972643 1.5240226844037947 0.0953979545860357 -1.2356097015071819
Ni 7.204493672834412 2.269141590045105 0.78868619553917 1.0577240726388752 -0.3825318136599089 -1.3265521914250251
Ni 8.781091870796677 7.584428944548002 12.079450397643662 -1.4358526150247657 0.6153467475762434 -1.27705922690122
Ni 5.706098196180393 6.202153218720452 0.24556944812649284 0.7264238034604328 -0.539828048412638 -0.7324916069210675
Ni 5.250218266413774 0.0010239625618557572 3.7273785637781716 -0.7108791708576144 0.7412585544804202 -0.9403411291413161
Ni 1.0759440996493348 6.145895185619034 4.345934900401486 -1.4838031747621154 0.5080813521286605 -0.608869624492332
Ni 0.07164788625881445 3.6783942593339685 4.644374365088099 0.2055589264138589 0.1421174701297617 0.09914302345076474
Ni 7.8202721308245735 5.3995914548925885 11.103626979413724 0.7202832377803338 0.2742338631827535 0.3901109115587475
Ni 4.9946055059231576 8.898935122964884 6.4258931859490565 0.615911618940778 0.8318796565031027 0.05067078688199016
Ni 6.727231266528592 8.745036591390921 1.1939809000965598 0.6999452975539301 1.5252958946892634 -1.39346386564591
Ni 4.125324885342153 7.382770070980011 12.543687926429998 0.09022798034932203 1.6875474165647388 0.7622829792508872
Ni 0.63174711266767 7.665977286107856 2.0667112883364522 -0.3692170988288738 0.24186573126469316 0.5686773685441625
Ni 1.3665614488881803 1.4361005805641633 5.847966319725641 -0.9931600727145604 2.2060252814363754 -0.16449455227338122
Ni 3.834827351704605 4.03317747135985 9.897404611498471 -0.014003256257627496 0.04851517399156806 -0.10076667509711679
Ni 2.36749176554072 4.544919121085135 3.4260248150046206 0.09539692614477119 -1.184845840690753 1.454109761462741
Ni 5.089914208462764 1.8560542631110362 5.529940690860813 0.6199947878712161 0.3068418790257619 0.2124497399964212
Ni 2.896744926224833 6.045185564436335 11.212499729678653 -0.5666477397086435 -2.1521886952318936 -1.0982695981614052
Ni 7.561092552049184 8.89901807222732 3.4327289587264374 1.218884675443017 -0.3264431981964572 1.060927152957205
P 2.3282198980693662 7.642097115110842 5.1438736253362185 0.6904463569245594 -0.18881076042124256 0.3810786261531502
P 0.2638606821522258 8.301829465607664 8.3897206607685 -1.0147025747720266 -1.330103142001077 0.938761700469338
P 1.4763401894306099 2.0518606053848933 0.6137637125714238 -1.0661930293418347 -1.3330072030217495 -1.0993191224718424
P 3.480311420635463 5.176107708719065 13.148660860500089 0.8805421547058127 -0.9814029321786324 0.3807731790975894
P 2.1035932953911614 7.9788987703574215 11.679125275564692 -2.0013222752649087 -0.6206992701374086 -0.5573169492260208
P 7.026714970263434 8.360999939479077 5.62591759579227 -0.04071470411054278 0.9769652081222531 0.26627244224383173
P 9.101488005250248 4.621425990805789 6.570958542731998 0.9419470401758552 1.2981250464325838 -0.455944265113789
P 4.924255314792239 2.46854240035788 11.54597143286764 -1.0419038177771671 -0.059123545635033664 0.1348636167808258
