# total energy = -340890.80101131555 ev
CRYSTAL
PRIMVEC
9.07564516615691 0.00000000000000 0.00000000000000

0.00000000000000 9.07564516615691 0.00000000000000

0.00000000000000 0.00000000000000 13.28312408094122

PRIMCOORD
 96 1
Ni 6.566946310755064 1.8676044298131906 11.548494473026688 -0.18771264226105736 -0.0320922525488544 0.5504176510030263
Ni 4.500830292497287 0.49266051135227223 5.8487986705963975 0.20933484851652334 -1.0814746380912539 0.43155040965045677
Ni 2.4700639124689103 1.7888096777958222 4.7389135093392625 0.08252315550589659 -0.7678900410250196 0.35272861425554736
Ni 3.4557334399508637 4.172164875593696 4.754269501093857 0.009680717622873649 1.053339313307618 -0.0026004137373245536
Ni 4.972999812015327 4.880981844875946 2.324082158702569 -0.6081108919494365 -0.7197700455893411 0.7379480020499485
Ni 7.207024342951442 6.0082858920518705 2.5967980377995867 0.6673773909202377 1.2539563223351695 0.46503054368577323
Ni 5.466687686409336 4.267967386800255 11.888170462741552 -0.691325674205719 -1.673295791741731 -0.25361927225619546
Ni 5.6478375655001765 7.713781146498298 12.572742753316222 -0.49382124266522054 0.7353738135648691 -0.35223033446289015
Ni 1.7633524928835071 6.551535865129 0.1435358673728048 1.844889416953739 0.9578572836482083 2.179391738009247
Ni 2.75004756827815 1.7513454142243299 0.6118155653388229 0.15367123640563213 -0.24853851529917845 0.3337507876014639
Ni 0.5145491525542406 0.026570766583880412 4.73890080343592 1.6824422341276897 -1.3394593864049964 1.466196774534262
Ni 8.616344990471493 2.5382038569686105 1.2621427237104148 -0.5003071074998803 0.2154543311506999 -0.16324396769573177
Ni 6.835748771622424 0.7643453971494545 4.796230746884263 -0.12865363131537197 -1.0539844030907846 1.0155880627007736
Ni 1.022262529109923 7.430802527758198 2.5776965272523675 -0.043893358948840534 0.32979514538782556 -0.3281876916913896
Ni 7.626074110850308 3.963452261893693 3.8044197302649962 0.37207256599979793 -0.6216112404287165 -0.07517108601619958
Ni 7.890447656838092 3.9794889270416647 12.4279172367541 -0.6787835758746503 -1.2378288206456876 0.9371511614491087
Ni 7.984226299155009 8.584071995980159 7.025948884151611 -2.589844960669772 2.3366445211185503 -0.17341139514703682
Ni 6.902055435782629 0.7628415627323526 0.4416018387682462 -0.9554134500934061 -0.03535395401926169 0.6528894817167079
Ni 2.015954926988485 6.713254787750227 9.0582009473066 -0.6453967728840885 -0.6573338906413067 0.8447122894913969
Ni 9.15061007475604 4.942070013020256 1.3285519426618881 -0.5582867693384579 0.6538235634952031 0.1656168388032825
Ni 6.39435476513029 2.032599660367874 6.94319533567836 -0.032379187661653916 -0.8355167390350579 1.0346383944640052
Ni 3.4416117359495937 4.292825579126397 0.37759766580670656 -0.2447433099228043 0.22461157216993577 -0.0723233321547593
Ni 5.839106789039227 5.5378951990018574 4.769452148024271 0.9092480072809372 -0.5255838797887981 -1.0900580088848904
Ni 5.109052809883602 2.5073194361997664 9.910831498706154 -0.13988112460007524 -0.5137794309547024 -1.171671508092324
P 0.15883014473973286 5.860162286007702 12.434106826811211 -1.2583145993038654 -2.6251009556585885 -1.4922461633231463
P 4.319680413406447 5.922502893195827 12.480359037673468 -1.2449600323738301 1.4282840586488887 0.14664441146583776
P 2.341897650318567 8.639814609075145 1.3087679435922426 0.3324582940422855 0.13172532826216024 -0.11531886187967881
P 6.3007576357182735 7.81467509468732 5.666049662813382 0.2664547334579669 -0.5067361509546757 1.8441970188724044
P 4.650315245328211 1.1258700952272092 12.59512510961952 1.125027840091856 0.36024600567851506 0.7461400509424376
P 3.9384034810174042 5.968725154428776 7.947665062285397 0.46327370889566666 1.1039249966749698 1.966382268854613
P 4.609011983818069 1.2572582114395385 3.8198809995044325 0.16181134901426328 -0.6371347899856123 -1.6767837502903318
P 0.18545718032413247 5.756972199571687 3.624220978795835 0.0842913031499129 -2.1033642175300225 -0.6581998381860277
Ni 1.146471809933432 1.1635703255750722 2.568132612293153 1.8129151780399877 -0.4223682289305565 -0.7961567491801966
Ni 1.8144392999677927 6.56388781830749 4.974529965803638 0.06151981378135211 -0.10746234194973751 -1.0255611147530854
Ni 6.1692878386987395 5.962226992433332 9.06463013439818 -0.34579949123588183 -1.0480045313582662 -0.18545727056797737
Ni 8.607115059257294 2.3443299232442354 10.13450531359259 0.3500528671955971 0.46604355833131994 -0.280421222940388
Ni 2.017044004417889 5.350356065658515 7.089615443110035 0.8370498878501326 -0.3609000943227462 -0.3111531048066061
Ni 0.7477097394153106 9.22076481250014 9.420776605103729 -0.991931085403466 0.2188340462562102 -0.6491708952145401
Ni 1.657711982231334 0.9548395605845796 12.025026655214011 -1.0201805671674624 0.22368983168661477 -2.299726307935962
Ni 4.3376864935725905 7.025783707408151 1.3757462055005791 -1.2229884131987454 -0.5287432513533862 0.1734299070897981
Ni 5.594799494688209 7.937169078559518 7.971773606314301 -0.42327531412585817 0.33010136377433474 -1.0712545030251421
Ni 5.419158532261103 2.8450423470579005 4.986949986321465 -0.5289353127595342 0.5360672958186251 -0.8084283674586982
Ni 0.7180469004964477 7.546226583984516 7.108411104412497 2.0704304429164795 -1.3787926367869803 -0.30354675321425784
Ni 5.12233955452233 4.36591175028464 7.104758157201371 0.37083098028321293 0.12812115585066966 0.08284377207010894
Ni 8.302028168700296 7.26442779912627 9.26022390289649 -0.1500680924354061 0.3292685834603942 0.22806919170123302
Ni 4.744583972488359 0.1006461830738322 10.61297696116878 -0.6842325148043635 1.968290027400288 -0.1507059831297211
Ni 8.28702612711026 7.23625699628569 4.744001316063628 -1.1735910937125402 -0.3849478793005693 0.76532382295974
Ni 7.266932677213898 5.996242510811713 6.801398361934503 0.1163475602545093 0.9699450680506778 0.6120901883121588
Ni 2.3556835554457707 5.260897430478233 2.369138199521531 -0.13027959695456917 0.6847693611444401 0.7400395944716545
Ni 2.381567295684602 5.269292402329889 11.464066468005726 0.3705093352777361 0.7673300547564914 -0.46840460236432885
Ni 0.9298633848702514 3.419821111716272 3.5859517054911088 0.018244290922168577 0.299644075725742 0.8760987742224783
Ni 3.4978988877592827 2.8125606127259304 2.720848494831308 0.17549861669336872 0.196971441855164 -0.32590429497385165
Ni 1.2548531654496051 3.042219815651467 8.224458628791007 -0.5432877248264644 0.506713011026224 0.14912475468553027
Ni 3.583091969674399 2.546244878655709 6.967755846840466 0.673518213710653 -0.4264015184596656 0.7314845058127918
Ni 4.170558486385326 6.520125056935943 5.853514375865715 -0.6470862447713694 1.8849621166049084 1.2317468761176655
Ni 0.8278086616543903 7.597676416878602 11.351558416596637 0.17685538783157928 -0.030691258436269728 -0.3115500831347086
P 0.09582247762609766 5.622698028171437 8.068501833335851 -0.31447214187751 -0.3378002750804892 0.5094743758214452
P 8.48960360462462 1.6279166388918935 7.994754047639246 -0.12264136368302103 -1.2246884266089875 0.47034732791299644
P 1.998411704729838 3.390742744351189 10.33290254890709 -1.2588617300565867 0.2405259294073471 -1.0486159396900199
P 3.8121521800137637 6.179225670242049 3.726726761580374 0.39676852608458124 0.3359459954805698 -0.6826911384591726
P 6.593619632130214 4.122766138524986 10.07461240792705 1.2118241690518097 -0.6466607271981766 0.15759962492576085
P 6.338076688965846 7.784934205219349 10.356227864751347 1.081869302426511 -0.469480866147643 -0.4658707801988815
P 2.455806073788964 8.483232501662608 5.7595224558855405 -0.4180287210149381 0.2692675203164137 -0.4692615510479854
P 6.90072131593161 4.072387231769813 1.657441528003032 0.8338087552050156 -1.6206030893337058 -0.2849113975012577
Ni 5.285764698449622 2.7992284898609783 0.8792693853227711 0.013179474804751495 -0.4649135584919348 -0.9185682562405987
Ni 1.4148023372480503 0.8877278866911411 6.9543130011035235 -0.6734392808436015 1.0641590296309416 0.5586256407351153
Ni 6.725180185602198 0.7125479670424829 9.237469445138144 1.1915070547610125 -0.3087630073078747 -0.1695845652017789
Ni 2.805572365887256 1.4818804312540825 9.300577851914001 0.7172290243350422 -0.16316837726278996 0.25236560235475247
Ni 6.6197121122096805 1.8331986586892741 2.7063565045040407 -0.35225398861197393 0.4500991191869215 -0.34781729299685904
Ni 4.182030101975045 7.005073084958989 10.191317945261968 0.013673897942666772 -1.7684494915274445 0.1904315838541172
Ni 8.215682479839062 7.270326968535541 0.3608839575234555 0.060815588625475904 -0.313258324075067 1.3295159020390392
Ni 7.664091988781747 3.7656394981329737 8.053651355021406 0.8307056907996596 0.9292285641679222 0.8259252386918808
Ni 3.2403774539314973 8.419902649142774 12.530781507525818 0.43848673175897385 -0.8962996746503853 0.354035505992429
Ni 9.027290207166546 4.816817032993569 10.357197143663518 0.811721436387673 0.18195517095198988 -1.1567845636781626
Ni 8.638008555671385 2.4240413154313525 5.942325009975502 0.7012321346861535 -0.6508691088525693 -0.7473081031086097
Ni 3.417053039916537 2.7426055391772235 11.70150259134173 0.8828980565324988 -0.07080560995865226 0.5177731254951277
Ni 1.0787039668887775 3.482914997459735 12.465999551766778 0.5140200862105987 -0.6741872147532195 0.2883065392257358
Ni 3.1197076747535513 8.48237031536433 7.76212620115406 0.9843859260663563 -0.22592874831946252 1.077922144853305
Ni 5.7655123817472615 7.795534558865547 3.6109505703185496 -1.539927014338877 0.25728669380545366 -0.3771859759669633
Ni 3.1282750838648616 8.52922787176443 3.632868253585302 0.3453256369232569 -0.09871364922282999 -0.32028026391885484
Ni 3.8951671070700717 4.402958534174862 9.613541494979161 -0.4223085793372146 1.2548402676020194 -0.570239827935276
Ni 7.170077391158917 5.943531163228567 11.441365556554327 0.10301870435608709 1.8227226510487125 -1.261974821764272
Ni 0.18070244978026015 0.3274583560860024 0.5089612777768744 1.2555938579385926 -0.8436882191022568 0.5498530367488078
Ni 4.600399196480534 0.33055133598550923 1.522378683030989 0.05624982363166441 0.4719990045838065 0.43442181766098087
Ni 6.312283705179465 5.668983818921101 0.3391886275652063 -0.22018747496031113 -0.20272788472296702 0.7635695592727947
Ni 7.78358193407784 8.622153403428314 11.875232222880232 0.10945751800289535 0.6206409060956471 -2.115488768707699
Ni 9.184189962162659 4.726795707808096 5.7137757584634326 0.038457789755566026 0.9695866562699947 -0.1557952247271704
Ni 8.014865677502236 -0.42410853255844694 2.7205163262153396 -0.016165554016268936 0.4733840578567912 -0.5841515529203617
P 8.597458572716581 1.4563869437607873 3.7870716343791173 -2.0322289921460936 3.2463360436948094 -0.7606061057690965
P 1.611916276324902 3.39803048748295 1.5287679372834917 0.6661509747123043 -0.9044557280986165 -0.9384619098407322
P 4.8166899739601385 1.0622225951237994 8.147337425756824 -0.5426338932925494 -0.32386952393200996 0.4414468428285623
P 8.610745317355308 1.59852969958848 12.202329368285483 -0.0378846908609154 0.8086471683377234 0.6510372589993174
P 6.397631073063746 7.858800881868665 1.4916812205541925 -0.20015343912757141 0.14344801601572715 -0.6442166365330584
P 1.951490618813022 3.4588282349794195 6.071755509508477 -2.2438708915292387 -0.6562247167375279 -0.829784464536971
P 6.993937268243333 4.024594883909474 5.914509972428527 0.23109075213637617 -0.07100538467428416 0.1581884075496953
P 2.5412986519971668 8.447283870847036 10.297078254431375 0.3707399632313034 1.0048629629737855 0.4700403381955389
