# total energy = -340890.870894095 ev
CRYSTAL
PRIMVEC
9.09894650949462 0.00000000000000 0.00000000000000
0.00000000000000 9.09894650949462 0.00000000000000
0.00000000000000 0.00000000000000 13.31722795225211
PRIMCOORD
 96 1
Ni 6.424365773567825 2.0867432925210907 11.228953468410799 0.46268904003679023 -0.09544706265641627 1.4641524904107235
Ni 4.805963455554539 0.353260228795916 5.788106470993319 -1.8610374874685112 -0.08699610367558566 0.7114463562149941
Ni 2.534957397359731 1.4535385062883295 4.818839374753832 1.2523352417919786 0.6895963502194381 0.9809259925422139
Ni 3.7730601472480507 4.278388339298874 4.9306372205667 -1.224629548346594 0.6680520483897592 -0.32711785566597856
Ni 5.058777684197284 4.686139429029568 2.619419278187485 0.12324248760212969 0.05442022662209338 0.1243246649227149
Ni 7.205446638400618 6.047987851386535 2.6820500566656786 0.7720277173424769 0.6738380589439169 -1.155429592312165
Ni 5.027004163001658 4.67410152280339 11.624115255757111 0.31602971617261705 -0.8697142108523731 -0.0026112123706019544
Ni 5.529793748977573 7.997637316916075 12.590479788061486 0.17238449654441926 0.3765123469387064 -0.2521282895329658
Ni 1.6890920334109993 6.598801677016089 0.729012143457659 1.4524236320095696 -0.9581578456077626 -1.448989666627356
Ni 3.0996107206234647 1.6858892042412228 0.2738910283270371 -1.137720605068176 0.07540608484514111 0.4375048274616788
Ni 0.39339568182968054 0.0666670711478326 5.074396935767849 0.0031308323194978336 -0.39575114056366034 -0.3977463166168182
Ni 8.726326447772804 2.2148382614191497 1.3925691954419577 -0.4110008676338792 0.5001839516584548 0.08107999530146681
Ni 6.908566211833928 0.584534521377262 4.845473810963407 1.040528534696195 0.5242006262880262 -0.9441239932225161
Ni 0.8448189851006511 7.606346221413011 2.4559630734868603 -0.8463989331652004 0.7396616423069455 2.1187350435591377
Ni 7.706543820326594 3.9917260296573525 3.837811890156571 1.007221178793317 -0.7725439948572631 -1.2673756810648689
Ni 7.937329499480619 3.6542915985176654 12.604529471359932 -0.8708190138807776 0.5478707162114564 0.057780658453894046
Ni 7.789917467152344 8.634636363841441 6.954816156919084 1.3567922212564891 1.3229058529216895 0.6485247769901089
Ni 6.909430611751906 0.6944598039993916 0.25589604182400466 0.48538571030335764 0.6446400972237221 -1.3522549955077678
Ni 1.9485393940559241 6.121725713863439 9.526345859861204 -0.5100734428580248 1.805124478350975 -0.43794680009510384
Ni 0.16496844960976387 4.581365060023946 1.5300961322871487 0.47955084878913545 0.8725956461652263 0.32009822981503583
Ni 6.3358967166992475 1.9108970523645425 6.960861496977038 1.387117868823224 0.8278587082691677 -0.5125743549030075
Ni 3.3914685287193684 4.207434754452514 0.6697325069772745 0.4882164948839334 1.1853508053516295 -0.5878670540987359
Ni 6.042437494018455 5.6223755296664315 4.860854670135539 -1.2880388658411754 0.08342252739171441 -0.6470319944946663
Ni 5.3994968350252925 3.100183954253282 9.142276598199196 -0.10209490699023707 0.4022174650142944 0.4127168218837215
P 0.1548021966796743 5.58082064097788 12.87047529959876 -0.07080972372371032 -0.6028365309243747 -1.39076086489245
P 4.017021100941385 6.364913257103844 12.8838853269579 -1.055594170780066 -1.1437411002306432 0.7489155568050457
P 2.4047787697120167 8.920061216758276 1.4852701723300323 1.2157579568885772 -1.3337512802766254 -1.0865086009707352
P 6.245325803188004 7.772274609879058 5.790797029474861 0.08063596578551274 -1.0052905374295074 -0.0891576301032787
P 4.836390332667418 1.3519123727734539 12.472396390002933 0.6394451832863439 -1.680455285604648 0.3435358920126858
P 4.1734319913631515 6.247618737707277 8.324333171390505 -0.6335612137017411 -0.45349863178677385 -0.3370829372984904
P 4.638415454610594 1.1173506308198342 3.75651007345002 0.861667943509129 -1.4962552844825392 0.958152446291124
P 0.27116043448087235 5.740780120536615 3.5120595964347143 -0.3595278965655679 -0.08805128441297738 0.8131008332337029
Ni 1.517595089683864 1.20470051726829 2.797283664678853 -1.0664231430747697 0.42072477978986256 -0.69435469084003
Ni 1.8626817348342959 6.686069672946 5.014429418931683 -0.14461606818189932 -0.0311892811186108 -1.3977352393277542
Ni 6.112253710551684 5.850749987996619 9.377779171221437 -0.5863341623939772 -0.534083432619377 -0.9131283161719499
Ni 8.877005001896391 2.198805917677256 10.1333848056294 -1.2985179109956282 -0.3296406220878323 0.09745278023253538
Ni 2.3620774137638287 5.268135344331922 7.02375887458783 -0.07016257705801464 -0.5164276672108267 0.32499643844760157
Ni 0.8164229928476988 -0.14830645876972087 8.881831993017318 -0.581079084642625 0.05170308480124644 0.39569560473537657
Ni 1.4894702460367621 1.1160858772556326 11.73310334688922 1.2583845333098522 -0.6688521756935513 -1.8184836732667002
Ni 3.9338112351527252 6.9497844395017925 1.9045769241221364 0.3910303380492233 0.6378361869280113 -1.8742856107276689
Ni 5.711827272757554 7.96426238113556 7.8890595882713415 -1.1624124513879013 0.10102687073703892 1.177293739375108
Ni 5.656805943241531 3.062259545220244 4.392781204654982 -0.640499078472155 -0.6826068062754824 1.7926320023109192
Ni 0.6585781084567367 7.193081170100259 6.912480578620398 -0.4584292363191717 0.10203371473499846 0.8830970599171822
Ni 5.128639395463039 4.5318758899829925 7.010068599676334 0.2101213489735607 0.5087624373560852 0.7462657778870245
Ni 8.112320438665693 7.20393621328078 8.996040149759374 -0.1742958546345192 0.9186621015059857 0.26161026088147205
Ni 4.203194645381162 0.27607295569894746 10.492110771590898 1.1233658790084007 0.37308223821123493 -0.33731819323774814
Ni 8.099490924093576 7.118642688742464 4.736205472278942 0.5623406276928573 0.41741345602844243 0.14863007443729886
Ni 7.143055162215507 5.951111367947293 6.9291271012513835 1.0951685906385784 0.8601229676195121 1.0931230209634593
Ni 2.2789039437611893 5.324002875872913 2.831002540637258 0.8288411267870952 -0.17972679584210335 -0.49994458195413893
Ni 2.6256102013895193 5.064409932083908 11.733863108922392 -1.164307097307453 -0.19005954522667914 -0.2825608949912102
Ni 1.0706730352489404 3.467444732036515 3.7209004364078657 -0.4095456232445915 -0.5617135356318197 0.5199485358798915
Ni 3.8946857651810207 2.517360034818969 2.4980720880175693 -0.870753450750165 1.4436394580590364 -0.40973511354757824
Ni 1.0728294855706366 3.4127691624876846 8.404635923770801 -0.7157583533267867 1.3318021269700546 -0.8011786278748202
Ni 3.84950949578346 2.597558149314458 6.846773446328849 -0.8579488427863289 0.22192039849101777 -0.7246808526273971
Ni 4.017921896645384 7.018790849796073 6.065784480855757 0.6352851383713833 0.050052179461384766 0.3998458794583242
Ni 1.1909065143666382 7.263761786551467 11.843956722054864 -0.8791756133755891 -0.7153840007065034 -0.8301441618692348
P 0.1151981221218045 5.524052313732889 8.248477984061875 0.6717210126009141 -0.1777773854252164 -0.5448067325741521
P 8.4526756316335 1.5044926067165956 8.064473628468901 0.07141778962135442 0.12843791576014008 -0.6417319224379915
P 1.635581129014815 3.136716224471048 10.484946261112823 1.3373397689588324 1.093898465676903 0.5866974592706671
P 3.906869254551279 6.337634615481711 3.934867622841961 -0.12300208945654946 -1.187955075743696 0.6009405994532425
P 6.905763736310373 4.051478811356 10.600047024507024 0.010743868780065368 1.0133671437900547 -0.7532092990843932
P 6.353876234993221 7.968402401795356 10.362028592776136 -0.13538812182572812 -0.4393393095672563 -0.08762448128820394
P 2.2837172864623594 8.700776605986631 6.151307298845999 0.16266726925665534 -0.6664705628352522 -1.1665732676338103
P 7.179241672466081 4.089730782463219 1.5577423713480851 -1.9295077644257672 -1.1103486408131265 -0.07654071267021656
Ni 5.573677967971417 3.091731032950093 0.2365434925024191 0.21028255714177335 0.10072862277032975 0.7536289031203149
Ni 1.4303270937539534 1.378736067070334 7.082248722511576 0.1173304929930689 0.0008890874731726623 -0.3341534223565213
Ni 6.6388370416383 0.9134068438556993 9.312697136554783 0.8283844988656508 -1.6738804606006077 -0.6542722209968473
Ni 2.7890090827271625 1.911370197582805 8.956595306765342 0.662677157231091 -1.197322118780893 0.8528853122204925
Ni 6.466166333812012 1.8336287986436792 2.6233609418134716 0.8679028686752472 0.6362048219721753 -0.8270511247662079
Ni 4.194596140933892 6.75866106816327 10.77302436683053 -0.07354692014921527 1.2336857450115917 -1.4210042371580238
Ni 8.001531666020234 7.248102499616281 0.146801493017786 0.4305314814676392 0.7445184561786146 0.9985691595452738
Ni 7.635007902903911 3.903338863307321 8.360435971333231 0.25592452335060445 -0.3834031605212687 -0.16896467222959288
Ni 3.059484366536205 8.440310163333141 12.571569447540048 0.6042341826028498 0.3151090041305606 1.1159297344453296
Ni -0.2149653408656989 5.2230591633459165 10.470217796405102 0.6500769519685772 -1.0858627398566203 0.4707409638069893
Ni 8.671459800347368 2.366444908086251 5.919614454725421 -0.345743698297282 0.455020467747939 -0.34527395774971503
Ni 3.6064129420081055 2.6751448661629977 11.174885708488505 0.5006169254308152 0.03672769443833675 0.6112823476988827
Ni 1.1411352769840284 3.2843011367829185 12.743109156315757 0.6052793360379124 0.5881979550755935 0.33659854146290413
Ni 3.131584418642201 8.35410674414432 8.105171396396678 0.4966476563704221 0.05190543062003964 0.919618551881984
Ni 5.647925371452605 7.725123869089901 3.6825729440446544 -0.6061992767490205 1.2659875424680906 -0.6862899115540244
Ni 2.9842451778859673 8.505467719255785 3.6128304289781155 0.8319498476194059 -0.3059628188549182 0.3726009276994422
Ni 3.3686028761521842 4.342526813212954 9.28478429836125 0.5052084014562396 -0.14460475532798966 -0.0716065085933928
Ni 6.981903720664611 6.157602859932841 11.58492336347592 0.34413778726274286 0.267356676446946 0.19553316674674068
Ni 0.5082598726147498 0.21374062266611954 0.4570355334752839 0.2821112090483013 -1.1472887083725853 -0.195055970000006
Ni 4.902758048475234 0.4193522465246296 1.4951780151793785 -1.3703506766672142 -0.9976101380661142 0.2205769970892459
Ni 5.904179001874258 5.705576296508586 0.5052099057462579 0.022095032126826463 0.09005828754067716 0.0025484774534665785
Ni 8.401694234365719 8.483175300318418 11.237783086099299 -0.9017745817220275 0.8863968137143767 -0.39724649416226426
Ni 0.06032692522311549 4.863841854273145 5.6211353432577935 0.910961133317302 0.33305016199001347 0.8644437064820533
Ni 8.002942002728517 9.020449893548465 2.208276101199709 -0.3828154063385988 -0.7574644748163213 1.105740452617154
P 8.551936039057063 1.5690860279559278 3.6450052137146143 -0.17010187115782963 0.32188411807086503 0.3547003932699375
P 1.872481300220232 3.0986917270264547 1.6501512720533476 -0.3834288715528816 0.11934469520962028 0.14979478416936137
P 4.774344616449499 1.2348453270395126 8.231751390701644 -1.0512004125877445 -1.7455198793144648 0.34077632698967764
P 8.592317163646465 1.4447671218574638 12.2021231028063 -1.771287218086556 0.0354511417187583 1.2961301274897419
P 6.215017212379691 7.725724399559234 1.4396853602343946 0.7769164128933459 0.3274294733691264 0.368011765666863
P 1.8914980984157814 3.337648260142012 5.864308328183791 -0.28882718761589615 0.06829544194228884 0.4940179320570589
P 7.097332956027643 4.00459194001549 5.932438509929635 -0.9213396483381486 -0.8462989172522263 0.8563740421000413
P 2.2743362726156553 8.413422776410725 10.38637282415039 0.0478014357539951 -0.2873017521103052 -0.7380631874715741
