# total energy = -340893.3070177258 ev
CRYSTAL
PRIMVEC
9.06120213126593 0.00000000000000 0.00000000000000

0.00000000000000 9.06120213126593 0.00000000000000

0.00000000000000 0.00000000000000 13.26198523945860

PRIMCOORD
 96 1
Ni 6.229231968414724 2.139222907586395 11.28567076496204 0.6107352169461611 -0.7075462498296395 0.9090397479248732
Ni 4.680908157977351 0.12335739018535478 6.004018513990541 -0.33668493052912335 1.8544019844298643 -1.2874516258791375
Ni 2.7576136912463376 1.7159651064619401 4.829179322738109 0.022177050317671487 -0.3820404758457872 1.089217515261466
Ni 3.496382541912732 4.27753969498456 4.841990049959316 -0.42454775308037856 0.22149179559403143 -0.5962167116150119
Ni 5.070313308869506 4.710402370104261 2.7223538363617155 0.3848627757859307 -0.5638470370350548 0.036652361115711074
Ni 7.287870306728447 6.441146296836243 2.508809397721568 0.0892969838946204 -1.1925740625729462 0.7688922570372886
Ni 5.319233585778369 4.534261666714089 11.414908875169013 -1.1001570449921054 -0.7378094195895553 0.11309382920390199
Ni 5.347921350937753 7.980916332696719 12.63585961668032 0.6006390090524236 -0.31201519569658526 -0.23401975285771306
Ni 1.6804270726795312 6.402708678451496 0.5173058277012987 0.8921288311021474 0.20829329462588644 -0.3396974921032021
Ni 2.5790174021460612 1.4739494653873952 0.4722471891011494 0.8132702689320317 0.0779044257869626 -0.7267832436823806
Ni 0.30649787202960826 9.058175440878586 4.870715872166606 0.3764861216864613 0.08507703227600187 -0.31377717269301447
Ni 8.73824252481808 1.9837326832860025 1.480727244395361 0.3319975523557831 1.8686942326828206 -0.08466745554240904
Ni 6.799353729647615 0.7679359534053534 4.803556962175509 0.17893695295095635 0.26041624057337087 -0.5599333038029453
Ni 0.6160702098578834 7.3637850560984175 2.6981504600138844 0.9508741674621559 0.6492611409355011 -0.35442091435630574
Ni 7.4331666789112445 3.670919412569735 3.7568422594187134 1.2649251626418474 1.0230871992912962 0.06080761820567593
Ni 7.680093491406 3.833975740441854 12.599840433077958 -0.7385208438342828 0.42271609918827846 0.08788981913444864
Ni 7.89754421417761 8.670845305217478 6.959505036196267 0.5537888814681043 0.15865480566315257 0.07541996880221205
Ni 6.738589309824863 0.9666127719970109 0.5380795391366764 0.4366072553480739 -0.8112056730935191 -2.446909108403773
Ni 2.3335403819524747 6.468021821619168 9.108437021599554 -1.1544235196451538 0.10663881760717762 0.32586881375022586
Ni -0.040864208248829345 4.864769005371247 1.3036586739324416 -0.41892577890791083 -0.9356871753090724 0.6976606152848114
Ni 6.514868235350696 2.0152747270383142 6.9614151375530575 -0.8763815955702198 -0.4639465665929751 0.48268965152843324
Ni 3.356350728023555 4.297356543501166 0.6417849946796832 0.4160438293744254 0.6943965998215589 -1.137300743921938
Ni 6.1640456820734055 5.715171863227668 4.86220196687799 -0.5042300967033703 0.1800885500568963 -0.49766761299450424
Ni 5.429925227972634 2.947563666305145 9.039660687072466 -0.5570824646177115 -0.09556404785025477 -0.31803054865272967
P 0.2228856316606179 5.508105277813182 12.432633168623555 -0.6371666716648123 0.6335316460153864 -0.423926831666928
P 3.9979653721078514 5.956344812527158 12.616059984447288 0.5000996194747646 0.7809023941242874 0.882898570753131
P 2.152252915893153 8.376120652793551 1.3734108999022547 0.5930406278798754 0.6657336846692277 1.3092522666939967
P 6.476367188552773 7.864706418556128 5.56391956304763 -0.4384502220940836 -1.385132720072395 0.22361115592987937
P 4.546630207283439 1.2304296648003872 12.495999059506717 0.21252018822304045 -0.49762801800582046 1.777771283149003
P 4.229406590585744 6.253905621140247 8.041696156562672 -0.5899218797452356 0.41389721534506785 0.8265929541828667
P 4.4913387533976 1.1830667625615672 3.7115915233386594 1.7771439339776491 -0.03360766075211631 -0.3391966412073836
P 0.2312753984834462 5.439720387207408 3.51465173714784 0.34945482860028204 -0.8970699771575067 0.016046254829585268
Ni 1.6853291828978592 1.1884309940758928 2.7728954082208492 -1.305009689367559 -0.8510935104273923 -0.4753239551919814
Ni 1.9149672222011724 6.373604098005526 4.834231848907684 -0.21644574852969173 0.31513008717648305 -0.8603679937507828
Ni 5.982812583225378 5.598391093368491 9.005338666582661 0.603950847034476 -0.13501454053639328 1.2513222271464322
Ni 8.702414532575437 2.4042449402401185 9.959366335285337 0.01022244905895659 -1.16916005452438 0.7463138575161404
Ni 2.664346740271749 5.225504513507783 6.8596025670832645 -1.9040188761260433 -0.09865605651201718 1.377090309383893
Ni 0.7291467603875723 8.879026418463488 8.950739488520632 0.5261050423995907 -0.00020440270132222863 0.09201618259799636
Ni 1.4793318193054856 0.9041593441433962 11.44348790590581 0.09469990007774659 0.98227376481936 -1.0043060620290511
Ni 3.9555227024911237 6.727987703622563 1.7418420867974334 0.07558760472832789 0.9316883385623244 -1.528601819134045
Ni 5.6680083074302585 7.970731541781006 7.803616701585802 0.3692980885784543 -0.603543070073096 0.8722706587256397
Ni 5.412264945504018 2.92005385739046 4.918657785205705 -0.47788220283746086 -0.4876850478604956 -0.180585801408289
Ni 0.8312565382791047 7.267500724897021 6.825890365480141 0.5518078464823336 0.39976771792222116 0.8463343984758522
Ni 4.920531641754966 4.59769007989024 6.880450580374077 2.190631572589124 -0.5475912372978247 -0.4376225839864657
Ni 7.977409647568266 7.329497468175767 9.151803933808278 -0.08979500657696149 -0.26824216437569287 -0.21993396418860833
Ni 4.633962071025116 0.2398926014735204 10.588394969955107 -0.18646437167625304 -0.29349631095679135 -0.9518956667481349
Ni 8.45705530800632 6.786133436101329 4.884349356518725 -0.6965766381920132 0.5812739742622506 0.2483487678858755
Ni 7.260405803823174 6.203942153961204 7.071794168282383 0.30027322466930867 -0.14625720332974812 -0.6187452317348312
Ni 2.38948424237384 5.044407332687989 2.6161520197001327 -1.3781156653246138 0.9626035400839421 0.808476447087814
Ni 2.318399113607139 5.212528872412319 11.514413557519381 -0.22377339253935655 0.24529789687469367 -0.3035927759608449
Ni 1.1539531209137137 3.4323198446048195 3.9734892535833626 -0.9754503141396232 0.10924128822703122 0.192144709890482
Ni 3.3895781553259763 2.8706159399205915 2.6890394215212243 1.3863277688217608 -0.5719580961779633 0.13911185053421848
Ni 1.1906147437295291 3.4253155355497964 8.295198683263418 0.2359866467760968 0.21832419649932722 -0.33349033485122564
Ni 3.5704850509062407 2.7483259593169724 7.2946091225683185 0.4400412207302873 -0.6587287141063042 -0.2836407583189502
Ni 4.084934787774237 6.881801605574729 5.9130413287316115 0.4441639846494092 0.6563347599528309 -0.1663128364290426
Ni 0.6795448351636342 7.28187179108236 11.04761758747063 -0.12646228009100802 -0.3653439890267127 0.5586863187697217
P 0.3547215884472476 5.709481428445579 8.412089999785557 -0.24485720979284925 0.655143310747891 -1.1552467868773975
P 8.532045814784295 1.3925436276767467 7.966195504118723 0.2101473171154897 0.9236654682578479 0.182027418950822
P 1.8738927940686736 2.960059063700847 10.32942853851933 -0.20733273048483003 1.1775670476411526 0.6339278530125405
P 4.010696360752493 6.253162602585897 3.8708421464202094 -0.3469217777657832 -1.080329982963849 -0.6823643512473733
P 7.004435911849876 3.8465073826450853 10.185416138643255 0.2806258827520264 1.3154673943657733 0.45859481536275865
P 6.517115413417509 7.851640165441841 10.615476184020759 -1.5676072538629646 0.9492955101211263 -0.5375382239371969
P 2.3854791911418602 8.590680852164706 5.577632785976314 -0.571555461422906 -0.39519552517050643 1.780559387417101
P 6.881774421969082 4.139745997960313 1.6018356442735273 0.25682800900148023 -1.0841352156425523 0.1955254534372568
Ni 5.198547437907918 2.834652029649714 0.7827809204491373 -0.07805843486632363 0.3262058853746705 -1.0428350713421846
Ni 1.5485684628881955 1.087697612750283 6.935474728804388 -0.606340430312575 0.34627951619609393 0.026682137276876627
Ni 6.734647687006059 0.8002074239091906 9.179216787862822 0.3424336600874425 -0.7174493678759644 0.2349908585217308
Ni 2.7417565879523 1.4562619993131314 9.144655551643325 0.6050872746317644 -1.0565274812276126 0.45335079335499984
Ni 6.397117916890113 1.8744183437778474 2.572003125768967 -0.5590514154186244 0.5116024779080415 1.645504480561076
Ni 4.261619163277346 6.768590949257183 10.575915882722793 0.2920994306092647 0.3750740718302831 -0.07784554752456915
Ni 8.289042502704579 7.292065643199955 0.42610211239531137 -0.2559047258562625 -0.5476470302364246 -0.6269179973536106
Ni 7.78577428895935 3.9140495814758034 8.080514345426476 -0.13019655032245964 -0.2710266690993655 0.8588641555117466
Ni 2.952275491283945 8.307907925023542 12.610675818288822 0.23424960948033205 -0.4111919005987628 -0.807948599608802
Ni 0.15368523288543723 4.737060426042009 10.29950935602414 -0.45721233319293514 0.18610390301304075 0.4545957215056945
Ni 8.567629154576116 2.306202735873554 5.849052933279134 1.313891565238221 0.8543855509151027 -0.21133053879031344
Ni 3.5177397947493305 2.985421367769425 11.757213898676934 -0.038833427927429894 -0.3523866575350963 -0.28150494292287
Ni 0.981953386783757 3.3133915698995366 12.411864893909307 0.29983459446999333 -0.45916508604393175 0.39052177384392095
Ni 3.2301010021973684 8.418119323518045 7.819650498316544 -0.6275839130723837 -0.17259789810680598 0.24205445023673153
Ni 5.460434294710363 7.909224103403903 3.456484257784557 1.602581970165937 0.2900916561506165 0.44057960973226057
Ni 3.208906850994651 8.4046724999247 3.629579491222084 -1.2770355727521363 -0.008623222892636763 -0.6348904740361259
Ni 3.6558415726375757 4.432685593613425 9.50241083048077 -0.47666041461521774 -0.25146005982134756 -0.2675693066783844
Ni 6.984691552948329 6.0518680027704415 11.534544829741304 2.2361007606655168 0.20446389357746722 -0.681472178450407
Ni 0.4870921561449334 0.16703872609939346 0.19439811906283205 -0.289208739325031 -0.7312855024281082 0.21789713626423765
Ni 4.590785444055923 0.3397660747404994 1.571956331066619 -0.6854458183861742 -0.08958237634552313 -0.17665432756436672
Ni 6.105410644692995 5.666884718396852 0.39049793183916137 -1.1541036744118898 0.7210419703232291 0.15001641326186424
Ni 8.173802137165394 9.180809747153733 10.9822627627743 0.27993656999448563 0.15582273553099615 0.8373216534542806
Ni 9.192861145657199 4.88096137313493 6.373192719440069 0.8316032629132646 -0.6178867403892777 -1.083895331717604
Ni 7.911299118634952 8.965551835237639 2.627901680180921 0.1364525585345005 -0.36730368385624484 -0.18729226689418713
P 8.60518783637828 1.7415358181738114 3.680864081635567 -0.02454040834352548 -0.5773494423968638 0.062370077596789364
P 1.6638994404462024 3.1835717305317206 1.399417455424665 -0.7801986831890434 0.1671625860238476 0.6247646984560337
P 4.821139318307938 0.9695395402049961 8.18743199703676 -0.8240069386232454 0.34289774420805463 -0.48010980661639896
P 8.379890112776591 1.76639069493698 12.427023378538218 -0.12405572753204441 -0.5565746717433575 -0.523502571779737
P 6.376748335058686 7.999029675259451 1.2852888993564402 -0.32818074971285416 -0.5940582705111125 0.806452731789566
P 1.821238149930586 3.3097852115503783 6.143840107996048 -0.2541772016421945 -0.4764575545757923 -0.6845955545707371
P 7.057453004063256 4.011674970555782 6.012719080037932 -0.7674272424559879 0.5978437056954736 -0.0833713624388048
P 2.4765895760684598 8.369505975419466 10.278237278485236 0.5269874450045441 0.22364638004318904 -0.2608170755562153
