# total energy = -340871.4912013405 ev
CRYSTAL
PRIMVEC
9.25561115667344 0.00000000000000 0.00000000000000
0.00000000000000 9.25561115667344 0.00000000000000
0.00000000000000 0.00000000000000 13.54652249930493
PRIMCOORD
 96 1
Ni 3.782157347463019 1.919336054130117 7.609433947453758 -1.7801714079500632 2.2867034133137327 0.47931893528398745
Ni 6.883703339665112 1.0698838429139346 9.575156347258197 -1.183862136621245 0.30274354058667213 0.4215177080048031
Ni 5.628818343980996 2.158824988887395 2.6973969609805675 -0.25728155159913113 -0.2670489153985401 -0.21654010801571097
Ni 6.666927674314379 1.6948967428671513 7.102522643925774 0.3654388627333642 0.8079933368038085 -0.3121283242356818
Ni 5.962344286550213 5.640869149509651 5.231774845328094 0.33850398601573317 0.7507911765612038 -0.42158198558383525
Ni 4.754246404496938 6.636402669219519 7.243650349409523 2.300697927820612 0.7217508234647957 0.6661491749400915
Ni 8.424697782739258 4.562081408808798 12.836494910096949 0.5425361913724204 1.228907864006974 0.3075988117964445
Ni 3.0067037462327084 7.221977410679953 8.849969969396652 -0.07467640576796816 0.03461604741197265 1.3452315130020833
Ni 8.895308579905192 9.173226811555697 3.232349063609641 -1.3635076856034518 -0.3598755097129738 -1.0665128745750987
Ni 3.5503228030069685 8.347783655286776 3.8736953403035788 -0.25859692797644496 -0.09421910378658613 0.6795183971581459
Ni 6.7836316734778395 0.4963349168324433 4.496741422918209 0.8218289571353201 0.4225124678179046 0.6955530820235053
Ni 8.771959052040062 6.953786826195822 13.023314790429636 0.1973223974366795 0.21704558689721976 -0.5949900382967623
Ni 7.248429946932564 7.22005224359089 3.535818335000857 0.49720867108021466 0.048308971518032935 -0.8331749782757586
Ni 8.363240525665313 8.615937217326886 10.557617241984444 1.2017310464818658 -0.18487954368763643 -0.8901056300245316
Ni 1.3317158226375536 8.617510671197756 11.675422010877348 0.27936809908552535 0.41043908159313824 0.09323077173138783
Ni 5.432765991670708 9.020916476855572 2.7018535376795287 0.9212406608664392 -0.15289707724376894 -1.2724574664631505
Ni 1.9893269845507755 5.008451760752345 4.685051456622719 1.470831445092796 2.346636085113623 0.7891880311718473
Ni 8.429899436124131 6.228804071776389 8.62280858293708 -0.061942760251383636 -1.618732354673554 -1.383498784013398
Ni 6.174408845899344 5.926747206624552 12.493131178590398 1.0144552346479112 -2.3380488576652447 -0.21279529626129803
Ni 8.142744104690525 2.4765238366378712 3.0826469600907545 -0.8357833624328832 -2.0024412193606995 0.9997446679106138
Ni 6.531906820971803 3.791903505851402 0.515029399940569 -1.9755346247778431 0.22214408446604966 0.5764086757501492
Ni 4.516275389944498 7.652890892244962 12.5727979247558 -1.6098664196424919 -1.2254898394643603 1.7814379333673123
Ni 7.63168628743225 4.182462523434122 6.510567084238416 -0.7583185952865005 0.2568424071791835 1.0333160761081557
Ni 7.668190417236412 1.1158934852203475 12.09820906597987 0.36977117156013095 -0.4196683135008902 -0.38825534640724746
P 5.038902720959164 8.81415538261237 10.855139783304876 0.38505920806745303 1.4793538807415103 -0.889376979388623
P 7.588462584038376 5.599524335149815 1.3184840011446453 -0.9737199617120779 0.6484072775756381 -0.19501071858436736
P 4.425320500597261 5.571951869965585 3.2468165091717314 -0.29560127311493606 -0.2571511966688539 0.6259486914618059
P 1.711103317737103 0.6573260890942644 0.06777143490163255 0.17720274386866902 0.1434698703925981 0.14149526316473052
P 2.8254326046975864 6.411074819300063 6.764591030518122 -2.4144044509078486 -1.1399284113527721 -0.9120965324733259
P 0.32229518417561503 2.735736478447044 11.914924829051133 -0.21226719167196992 0.7989703073695916 0.2158312548741444
P 2.2791294207318433 3.0596273299599397 8.969802365079838 -0.33844536486365584 0.04934744008487631 0.10323776234542865
P 1.8266040874698979 4.936915143293833 1.2892270147574856 0.45471450647174594 0.8693334304741867 -1.0984811999515791
Ni 3.648395257217137 1.2660472625562824 1.1937979630503768 -2.5549116391276963 -0.5707620189873333 1.8327905768076758
Ni 6.782363654770139 8.030269919756401 12.110644904926337 -0.15690028486589105 1.7183597739599052 -0.3775906676045497
Ni 0.36166392558585975 5.42509309014747 6.158926059809992 -0.3689239930684872 1.1702746277447975 1.3292580203919624
Ni 0.925104798888668 7.327435842472202 7.651210998847534 0.08225318967396157 1.8289447206990244 -0.7360281593194163
Ni 9.098015716528154 4.081918821085588 2.021154254114055 0.17936504162731046 2.227700452416963 -0.08758822873362979
Ni 8.90540645151177 4.237218718140365 9.993811697608034 0.08830942317037048 0.7114993209401166 1.2188355673726365
Ni 5.271024189356372 1.8240310276104768 11.556849303851955 0.13158340336765725 -1.3120056610694177 0.22043250109158166
Ni 8.78663845109417 8.377892157886405 5.543386277720508 -1.3039552799611154 -2.079073206193142 0.7898243792042656
Ni 2.3990543725250824 6.455233339405453 2.722485220171025 0.935284283443699 -0.5055935527098002 0.8843754124089738
Ni 8.516291309245847 5.2509765359193 4.211546429895486 -0.7240015671721853 -0.017769665278595203 -1.3020634622550413
Ni 5.563001694123643 0.46683821012025123 0.23405033773067427 1.7159748186674963 -0.48992036494891755 -0.523632412489382
Ni 3.1578386183351856 0.4151650594398103 9.701504693088983 0.0432688379909642 0.23168082031189133 0.014667629314503772
Ni 3.509931316580659 0.5133328464433319 12.411811380299483 -0.9818716442849348 0.5401003282374182 -0.8592742464659717
Ni 1.988133010731116 2.585527167445078 5.788537795290714 0.4574409042639735 -0.502412069658025 0.6294729025649805
Ni 6.280459636795919 4.745786776038265 8.720925464080075 -0.3418461630150887 -0.3163359345591262 0.17797973124400962
Ni 1.486987952859316 0.1595139767454052 4.578386093155404 1.2887767724484642 0.22252229374107482 0.13168779015600546
Ni 8.383047533216253 9.187008416342309 8.07999939212577 2.299334214703866 0.8598887401215191 0.4089552979587602
Ni 4.882464383750758 6.635504874952024 10.337337402307176 -0.2968706267456629 0.7102631345401704 0.44734186815675864
Ni 1.351217395025325 2.9892939419320927 0.7341171169203787 2.213318986884311 -0.9870681008842097 -2.365450646716965
Ni 6.6776549274693044 7.285581969507084 9.242371779130487 -0.527829224179549 1.6734212615760018 0.4795127964623483
Ni 0.24595212792214804 6.540218359654393 1.7285094197933166 -0.8939928808940798 0.6315369841828608 1.3581762460882094
Ni 2.982333722456248 8.871484637178034 7.008997471402416 2.4759312066677364 -0.8181219405973782 -0.07193072470203095
Ni 3.891234723158266 4.873782620627963 13.01398143229208 -0.05095797910510579 -0.27671394929212983 -1.5973204646566814
Ni 0.24319210472042357 1.8207267744816515 9.857099844134824 0.6107879245609674 -0.40519171715126995 0.2675523373975199
P 5.26506357586908 4.483871495815601 10.861669616868982 0.3822651902620836 0.46006934302575603 0.5873762305052465
P 3.3780110929247944 1.3060685245423875 3.370483504494337 -0.017003990757164265 0.04050361654100121 1.3754499455669924
P 5.640045400130196 7.980548777436939 4.675906912949668 -1.1723999016179163 -0.5536711249433174 0.9522507360947083
P 7.59659826611187 6.510785516658137 6.445516798972286 0.9274092515709964 -1.3512139558377634 0.37205842493241087
P 0.35242034687505425 3.4463730358085534 4.678345766449516 -1.267779601371507 -0.8336254355496159 0.467789080267517
P 7.749491704305318 2.9588429817252733 8.774976381227729 -1.1104430002991457 -0.6710173016656702 -0.2618637716531748
P 1.0722070012762177 0.08256467797110338 6.768397863324524 -2.396582849345395 2.109685274652044 -1.1940267358590726
P 5.352751234531513 3.671802697449066 6.6655124913916985 0.7933691591327304 -0.4124309152121865 -0.6732829577713954
Ni 5.172118730155743 6.116968524001617 1.1907898894737152 0.6909672624250358 0.11953084307849737 0.3929242126378265
Ni 1.3725238115590934 4.83315048831552 12.290082509921348 0.9590451333087225 1.328675408415615 0.19756690934731783
Ni 8.813674090840102 1.3865368066208332 5.735448536126491 0.1188438443138018 2.029136726374015 -0.07710301293158979
Ni 1.8476976249505486 8.56010737174405 1.9293496996765478 0.4919368811583141 2.2736586643146324 1.2149256907952688
Ni 6.679996597053598 8.303171610242135 7.073316563399143 -2.038957569119179 0.09940064798752558 -1.5531581683171702
Ni 8.395024293856869 2.485205599760667 0.34787861855484564 0.14102423706558292 -1.4049556683355933 -0.03312172225463328
Ni 9.049136834810158 -0.02808522603391246 0.6332800117029829 0.9109693608474183 -0.6815210294104714 -0.7890602473447315
Ni 6.894088135212849 3.4021589820371325 11.740432497016155 -0.07416449912855615 -0.190193242591066 -1.14713367085196
Ni 2.1627216011205475 3.2143441235213954 3.4993243863688006 2.003511312496427 0.2400893560905607 -1.2736574003085226
Ni 6.686188600816017 2.9069837932636298 4.872372065510783 -0.4485382024577049 -0.3777467335664398 -0.20036504091774524
Ni 4.52717849970852 2.8564944352307426 9.696397446936361 -0.16368876854263423 0.0005088213156184785 -0.6310965542113325
Ni 2.625455873321132 3.0371454508285227 11.482967314564748 -0.16270197914933268 -1.3119966622083534 -0.4256813524641895
Ni 3.328040049108194 5.017818439089519 10.155746016631277 -2.340646700299408 -0.6834943510867583 0.1344077601903298
Ni 0.1985004614211388 3.0646438711247113 7.525174567107619 1.3270373585915596 0.10068388557532339 0.4853309458060222
Ni 0.8850409610919393 6.505796742326381 10.218276924581815 0.17526181809221428 0.4980946732295937 0.36175704300640277
Ni 7.0519981145710675 7.901635438007353 1.0160402514527949 -0.050705239664351386 -0.7863176516025877 0.41987940107043165
Ni 1.9474360891416378 7.190665678649658 0.20743767940767516 1.2707893347321082 -1.5590868750967795 -2.2532268788228422
Ni 1.4125450735451985 5.181485408492917 8.164204164366978 1.1936246153246475 -1.8687001462200912 1.3361963993830084
Ni 4.430818333534297 1.5451131899714206 5.433212112121155 0.21374480465876092 -0.7683962912374767 -1.1861393626911958
Ni 1.1180037645295129 1.6351240069961366 2.5130150085866267 -0.43526076862250845 -2.3119339057457475 -0.8780710674575006
Ni 3.9320704789128214 3.953682330609758 1.6183620954658786 -0.4122568515281675 -0.4776672586131773 0.952309871467418
Ni 6.299739074519568 4.418915617781723 2.9011370237917005 0.9360949522704523 1.0826249496456128 -0.04432041918393012
Ni 3.746125253820117 4.4238581140584525 7.802159833168808 -0.290424614010003 0.36008634017219915 -0.39697832810254213
Ni 4.517663731595265 3.8425964873264014 4.609543256481913 -1.6385383336558876 -0.3492985055280759 -0.49158361158395336
P 4.71034704149969 2.524597480198424 13.534194899956614 0.6283835261555436 2.077869158582712 -1.0107898699811817
P 7.435782024898045 0.9024581698813595 1.530188517225677 -1.7630005525977315 0.1049866267157353 1.507695665108997
P 2.6670043111230806 6.9089341352650475 11.335865112177197 0.8545575577165928 -1.071020018416833 1.167566484785015
P 4.117580690288285 8.047800047000084 1.2599940929589393 -0.6929632098091421 -0.15805316752341167 -0.24893549362728093
P 0.9763188712632553 8.862617761835136 9.299809324344912 0.5823296692202745 -0.017465760884931212 1.6438162942253753
P 8.080731510956273 6.385140597263739 11.017115752577642 -0.5023254234814897 -0.35905069981883325 -0.3217571055746975
P 0.6192327708805242 7.1951824168201535 4.115609245144196 0.5975508570454031 -0.7310116799414315 -1.5098466500137289
P 5.061356833257566 0.4046951122708274 7.6438148400933486 0.516168242901853 -2.22689775401001 0.49419379551329085
