# total energy = -340862.98195656727 ev
CRYSTAL
PRIMVEC
9.33048904904371 0.00000000000000 0.00000000000000
0.00000000000000 9.33048904904371 0.00000000000000
0.00000000000000 0.00000000000000 13.65611386356297
PRIMCOORD
 96 1
Ni 0.04123889550724304 1.489929813606633 9.007832342096162 0.5651737262662783 0.3467821668641254 -0.3034775905392193
Ni 8.831410522072519 5.1340456173327835 2.1819740526109586 1.0637759352599099 0.4961601752110422 1.089159665440337
Ni 3.0372421348764056 3.513498287502363 11.155228535333327 0.67545168328794 0.38316996146454013 -0.6332534526533353
Ni 2.716767827444559 4.692536205932441 6.5460443872394425 1.088363394791287 -1.045494877562535 1.2801229534282081
Ni 4.423332935835384 1.1189682299202743 4.013012550185541 1.0700854224177054 -0.418490234032389 0.4682356808866323
Ni 2.8318407489095185 4.463472699732429 4.171341618890552 0.9640518424946944 -1.53431095370368 0.7733865453632165
Ni 6.9483778742617 3.937438388019829 6.054151268013054 -0.35648705285671506 0.9129912763734535 -1.912279830583255
Ni 0.8527936365691442 0.7537999468856299 2.0493868701485227 -1.4264529189774207 -1.1964165762474879 -0.15269910230034994
Ni 6.148083167386445 1.8303713676074425 13.0702115768012 0.7164754339984692 2.257869519801176 -0.07603369112681098
Ni 8.436282971744284 6.5130639075911665 6.937169157764833 -1.7031712391449247 -0.4415612569192395 0.11064845298720298
Ni 1.7350604219523251 2.6727372496132817 3.05117162198052 0.6284156649450596 -0.8034921064993453 2.6963572800014144
Ni 7.914820599666633 1.9914156086262702 10.81482243719091 -1.0121746661438502 0.36918804536315125 0.06755547845247076
Ni 6.128339852554705 6.707501968923226 3.6893630773296677 -0.7519481729837824 0.6153606315333144 0.8817426027718168
Ni 8.163571437764082 2.32178956494114 4.07439690460262 0.42569549353157654 -0.39975974750242116 0.5836635575403496
Ni 6.094115618715942 8.018015808569775 11.62777115331702 1.7902619594168456 -1.1598776007811895 0.1416631562011625
Ni 6.467568442978895 9.198798528452375 0.4771024279828755 -0.27960798301047335 -1.5152392817842097 -1.2073093119005918
Ni 5.7627619610507255 0.8207602015595359 11.00873985723393 0.03828166918901794 1.3603282594342057 -0.701698789909927
Ni 4.079233830126615 8.060068322722259 4.268750991533221 1.5120192321850154 -1.8403483345502756 0.3748282743680641
Ni 4.924128274665253 8.04330143389776 1.6361796311863268 -0.20142356408924666 -0.8133168058992509 0.9836048249259576
Ni 8.187924014186976 1.8766505932999908 6.6501586493141005 1.0605818538026444 -0.3262218262142704 -0.8111642783326223
Ni 1.3699303939227894 5.822383786086085 11.63027079133376 -0.7611745766780568 -0.2580217721992653 0.8651667006910068
Ni 0.47151066589466095 1.2238522573416326 11.963697683666089 0.3995687145375377 -0.9174675669772522 0.5514455780469083
Ni 7.091134356740731 9.110905321592737 6.248832855109342 0.0801608259213071 -2.8365556787315924 0.8845757013452379
Ni 3.482614368743828 3.3832913127968163 13.449264560592514 0.6983051908473458 2.836597330602805 0.15969276000936367
P 3.409342038226977 -0.18028184334400843 6.443500446472054 -0.36365863090448985 0.09121965483863 -0.670846837526077
P 2.52345875528766 7.026791304245607 10.404770769625737 -0.11662009718960561 3.3287309011529578 -0.015382395993341248
P 7.151903831929353 7.386696258406628 13.449360664629738 2.1804512896220127 -1.3782758450515618 0.151881491495061
P 0.8768942897876628 1.8956754604748105 4.928382044623565 -0.0935480458614905 -1.2958264802063941 -1.0522373384926909
P 1.7751255419369627 1.5717022196488697 13.72562338274272 -0.004725944720759602 1.628153133766822 -1.2798375609773056
P 1.2466932945382776 2.7058138332987824 10.546111816915742 -1.4851861711525711 -0.9635499631576117 0.13364311411016339
P 3.9669134029316755 2.5803467470311015 2.57957138339097 -0.9866266424714168 1.9835027305849842 0.11479332839351199
P 1.1682238816200654 6.643102933493797 7.424692808968678 0.7533180567481156 -0.9713810291662562 -0.458923659457087
Ni 0.7461685398908848 2.9478187278124173 1.1331655020601497 -1.3931455630745428 2.2327472708122515 0.04710415257665436
Ni 7.829343989471183 0.588450618218709 2.4828589982804052 -1.4957253801209982 -0.5137874013745023 -0.07341296567451226
Ni 2.6279042497236254 8.064696245291515 2.1575020459282133 -1.036885538626969 -2.28688493319692 0.10333186472113172
Ni 0.35206267811372643 4.605100193036298 9.799996460812446 -1.6843152827806862 -0.3462075253075779 0.47454336827221494
Ni 0.5431772192458495 3.553787339224223 6.233769713585541 0.7618340646389267 -0.11148843238999509 0.06700089150058139
Ni 6.934466115086782 8.117600118210213 9.097170841709788 0.9848440966496975 -0.48282540577534916 0.6395685962380856
Ni 9.00724358823705 8.823936800342734 7.738237362182409 -1.2321718794702263 0.17170058310351718 0.32823628554113793
Ni 2.5230948662146746 5.50029530404843 9.051613795869779 -0.29482145752611805 -0.03713547139971669 -1.2891205289411283
Ni 1.9877767178964125 8.933943266253046 13.478092972613133 -2.296543025111974 -2.354569738138403 -0.6924014237684011
Ni 1.1635772980727086 1.1551798579268833 6.895258467045925 0.3409804725806837 -0.4579515253518049 -0.6371887831519994
Ni 3.0380725484019373 2.3603244847214273 5.627247804173016 -0.021827637398052727 0.3451772842708507 -0.41604562914663834
Ni 0.24134989418226033 6.92568612488987 9.288288181988626 -0.08799343459184845 0.9362273640832586 1.0588350463148666
Ni 2.379815876348793 0.01881586422007926 4.134470325308044 -2.8782522871394303 1.9212398679900202 1.1022702346803661
Ni 8.468613116305711 6.912744736576248 4.46313213688207 -0.7941615731270387 -1.2506077175779107 -1.0456596852751734
Ni 7.611579705511831 3.2517874001131917 1.7447734610543295 -1.2141088513209284 -1.0616588889169072 -0.6214086374996073
Ni 5.507741034311062 3.576068547077813 3.851542838865992 0.9820192256063928 -0.8112051588728868 -0.1402580483235197
Ni 6.197758691093527 5.504456702165139 1.8351635067839933 -0.9428032175285634 -1.1579541585062316 -0.5966861950522626
Ni -0.21377456684118015 3.345428188228195 12.768343197585786 0.28623474429837154 0.21592510013953134 -1.296334015970432
Ni 8.179479921595895 6.225815471669636 11.069795778436415 -0.7828098955596454 -0.8236703812194329 0.631861714512131
Ni 5.005536791634504 0.06702370199945222 8.725519734882566 -0.6083453765577459 0.6223635452137087 -0.43898989664763755
Ni 2.7528674895825573 4.300394412100501 1.797718388124853 0.4914234318570053 1.8133790050502836 0.15221264958223463
Ni 4.081062605980595 5.835996969611373 11.356793224202477 -0.20727668043591396 0.0959150034317703 -0.5720164602197245
Ni 5.499306272209032 3.319293488396576 11.254481612612455 -0.4974464981226336 0.15263276783878876 0.561144293391911
Ni 4.702967692691367 5.48950925870557 5.055657379669315 0.16183268917050195 0.8000008055166351 1.60463191071643
P 8.681506884980484 9.320673376435453 10.357384014882843 -0.06859420412963024 -2.44135655401666 0.43471440920073523
P 7.001925550924912 0.9731513470325431 8.239825792581605 0.2137095805454513 -3.294829877530139 0.46487242084135416
P 4.2640428267581285 2.108466593770024 9.841374380606549 -0.42487068363743596 -0.6843929516416278 -0.37293877065483516
P 8.410334881693684 4.284560572181094 7.556160332745003 1.2806801114832589 0.6042262121830497 1.0623829115671253
P 6.516721459299125 0.8683261016922057 4.480010991575179 0.25196348182032735 0.06738064343750332 -0.9022746612868977
P 3.9022624442978717 8.336801297483406 -0.2901940713149058 2.751072412156107 0.10160768294117341 -0.6514964580239231
P 7.501526587156264 3.9582267176252723 11.438552567560043 0.5233699028566148 2.787953601453173 0.28681581361282216
P 6.406061859155249 7.0358978615593015 5.82258439160068 -0.16843913874342603 -0.5179849843956176 0.24924299756537072
Ni 1.7009388234931213 3.2834177579958004 8.548167665100545 0.9189060991959918 -0.8931832405085908 -1.7037453664808397
Ni 2.1162202301713364 0.395779751512893 10.132781415498073 0.14225476703857437 1.1097907114271275 0.7256385885549762
Ni 1.9166597303503228 8.459730490729239 8.289001202075559 1.7534391341615416 0.1087923736150707 -0.7056703729631653
Ni 9.121766010848004 8.058332851758788 12.213482339950378 -0.2846285761535163 0.08572880692738784 0.1883371632189337
Ni 5.775050215130784 1.5798663975684222 6.458331258818487 -2.555428173752799 1.3595975519157681 -0.3469081509190284
Ni 8.633380222455855 -0.09234571623473592 4.498978942766788 0.8980811920308402 1.2166940955496015 0.2275979084917693
Ni 6.803363413432347 2.9739627581330867 8.214507510541942 -1.9395268392246658 0.19029608671751744 0.8341442841675635
Ni 3.2206888801064855 1.4722485368551455 7.833802097139711 1.285766524867231 0.17928636587057512 1.4352316936113152
Ni 0.7130555672980855 6.900475143474292 0.8207574024128207 -0.2730043616510266 -0.20357197789081713 -0.38578374493830336
Ni 4.130719468709575 8.586102634434859 10.934559670132424 -2.811912426261615 -0.7777977870570347 -0.027202271446404764
Ni 3.2119275508876743 6.287657953099113 13.618354482319948 0.31284411935578377 0.37673320470026084 0.6804612206873893
Ni 0.9350362992595471 5.671901658672895 5.4351880845000355 -0.3425663290105649 -0.31471433979530317 0.9496624065422419
Ni 3.062910310255478 6.961832439473122 6.511931186220385 0.7061506550336935 1.088537715585622 -0.49707111706108587
Ni 5.579380529244002 1.4810658490082618 1.739311392763923 0.005049389498449368 0.7484851541358464 0.9570563850134679
Ni 7.2402355717743845 4.811919813338924 9.26656120518466 -0.43280947886853843 2.5625442159722898 1.6888265403874785
Ni 7.636613407635441 7.310578128729247 2.0927587154528053 0.9309159791726742 1.2210096922058196 -1.7015365317549793
Ni 1.5459873918245426 5.983754594221694 3.3681852510233816 -1.013359687590887 2.52149526845078 -2.459381529839171
Ni 7.888191383915316 5.127962138471585 0.040091245353980245 0.9160172076839708 0.4670074649064861 0.22913439974095376
Ni 0.7778539476588939 8.01357449578154 5.6385955449567415 1.8942857079986795 0.6201259141324418 1.1886482451559786
Ni 5.105914192844269 6.049478559096355 7.681536913268891 0.5380622147614669 0.24077481219335956 -1.7178267842745707
Ni 6.136755953678632 5.791639824663314 12.47227931560895 -1.3032569683425101 -1.6908893364537785 -0.5575568331509689
Ni 4.600901472963385 4.388520881186412 9.276871395585923 0.35391672102637756 -1.1480261007592423 -0.4932532859768925
Ni 3.7873947935920325 1.3430399244780467 13.016775866006597 0.9767530921114469 -3.3648448732666956 -1.5429087226750202
Ni 3.054326260328635 0.8609167603368725 1.668749569316363 2.5153721862721774 0.7088600835450566 0.39689476724980033
P 5.470615018377462 6.458900418650592 9.726921936663475 0.9227763807846753 0.37501005136156706 0.9787883773739208
P 7.838142640646198 4.340851412625277 3.9400210673891225 -0.9573358639270996 2.1407344306483647 -0.6147186270739412
P 1.5998429746264358 4.890239938432321 13.609519442237634 -1.456619415258472 -0.8843913532485737 0.3911442379192683
P 4.824543965024815 3.704232144681209 6.584376835407324 -0.9425121686507058 0.36493184118995864 0.13722286104162174
P 5.752713024342888 4.0170181291351 0.36635978648644657 0.0500236402162945 -0.8335621864118482 -0.964103007447604
P 8.032496727576799 1.225139864830659 0.5370592175751632 1.4873204438867547 2.025319923731086 -1.0165172593832623
P 3.86042453139356 6.112086140628008 2.8295193232336504 0.47014369654262256 0.5894853064284492 0.3910491071023007
P 0.2910160874002916 8.092417128261788 2.7294339663311793 0.16782233109503356 -0.9186716145876823 0.7747841970416914
