# total energy = -381162.76226967684 ev
CRYSTAL
PRIMVEC
9.27830433271252 0.00000000000000 0.00000000000000

0.00000000000000 9.27830433271252 0.00000000000000

0.00000000000000 0.00000000000000 13.57973625630312

PRIMCOORD
 96 1
Ni 1.505200740330305 7.179227080662268 0.19915230570969106 -0.2450014486801974 1.5091097718477042 1.4737398769888426
Ni 9.281458863957006 8.801204558163697 4.191331054767452 -3.7733707969975208 4.096246075337061 2.1714812249129185
Ni 0.4102290880292923 5.318361103880293 7.206481171538357 -1.1534956085142456 -0.9863273660634432 -0.4465062596293407
Ni 7.173919890636693 8.230811526673783 10.742223021788211 1.2657674560374848 0.15521749784682945 1.7291383526326478
Ni 3.489161979471196 8.610442622978704 13.268271041842052 1.1093572234341347 -0.01594443914439835 -0.8658012489512121
Ni 0.2803708697094652 2.639677556426583 1.5902957798417663 0.8230211776712084 0.19072160429071025 -0.29570000347632946
Ni 8.393172572578559 0.45375268539112523 8.913304102167178 -0.36749960191713477 0.5980226544754991 0.763912287324194
Ni 9.483447547273023 2.4497970601444394 7.657219335881739 -1.3878403488115454 -1.1573039265167424 -2.088508126353797
Ni 3.9813389062135665 2.542357423247819 9.815813106115911 -1.7098129128311585 -1.9379983183952816 0.11585596533007143
Ni 6.0502244640678935 2.2272569329356813 6.0651578947430025 -0.27223380203358927 -0.7538752148031661 0.9242241689747954
Ni 2.410085917995034 1.762571621657957 4.082842626774379 -1.0295764065600657 -0.13332815397290587 0.21170746251375797
Ni 2.0447990800459492 7.764354059286121 11.438578311647362 0.8965992081686751 1.3148184479278646 -0.774627102638537
Ni 2.414251876599025 3.6405746263721634 10.899517185747243 -1.2560494574187724 0.3198976837684555 1.2327282661943288
Ni 5.84738217676175 8.06976799997116 3.4426665412611257 -0.49536801832705013 -1.013757694360254 0.29293555335731486
Ni 3.638793191957985 5.510384888441996 0.9645363234574253 0.00815888166170853 0.49307999362382177 -3.496203562218056
Ni 5.375367005134018 8.894191723262141 6.853366540922405 -1.1830373267271044 0.58280018109879 -0.3757410159903206
Ni 9.03104671080974 2.2133394765749084 13.060433315532816 -0.9753814085749007 -0.6473459261906592 -0.04637858726453948
Ni 8.578618039433737 8.862599097323187 13.573625601379954 1.0355963875019003 -0.07945351544163737 -0.04336216903571887
Ni 5.824706001197931 4.7417794434619545 0.16451268465815153 -0.1949605820727223 0.5407145647826493 0.13302296402766123
Ni 3.2704630702180113 5.646117201176493 2.977982157813826 -0.16726671570187968 0.6314595939777061 2.075834644651186
Ni 6.391833069595183 5.916422038615423 4.440085174946937 0.6886010761857044 -0.3233380769085722 1.9829756544369201
Ni 8.61865392223156 2.936880197858767 3.5216054259090055 1.2282972270061685 0.19602836121560432 1.5443135734423468
Ni 3.026712739515436 0.21605830386633387 7.974903833924861 1.8089379385597941 0.41472999565900837 1.1058597518038373
Ni 6.269108939405888 5.379078326830225 8.34679868015404 -0.7943094115588126 -0.6426240952349578 2.0023404321167773
P 7.6268217555289635 1.2549555966593686 1.0905765195822805 -0.02733802569332066 0.6013602034891643 1.1192037772109114
Ni 1.6313114515673879 0.3938603036881753 13.516916605861924 -1.0353349063103976 1.378840202195464 -1.9050311194406415
P 2.769694433748923 2.3507418840726984 7.944607387088306 -0.6342790657043721 0.733814182387233 0.2881548441392199
Ni 0.4325842342663897 7.200103265203428 5.667013797986982 -1.2935489970261271 -2.948183207802613 1.168488225268336
P 6.790930048196706 8.354704723197383 5.238450780778431 0.6323643651801626 0.7739452460801639 -0.5309369165705953
P 4.2024780094820064 4.548688653912592 11.530988366222044 0.31783925857753004 0.46819197213289043 2.0197262316933924
P 0.6208187593762666 1.2861399772117403 5.380345743189478 -0.28960083255712704 0.9347181265275837 0.4212965931329325
Ni 2.8379827529591153 0.9720601003660592 11.120296290811151 -0.5572444441168726 -0.32507871374876274 1.0732512217401968
Ni 6.534691119986396 2.5952252008102747 13.271150099647883 -0.5815776215455984 -1.7871717505272964 0.7237997355740244
Ni 4.175292578057297 3.26180641236161 1.4346587210200916 -1.228331936898846 2.8441476321462367 0.02571951625329119
Ni 5.858033670029861 5.809842157804625 10.954895672437182 1.3258117137145746 0.4932190903048474 -1.296760047764257
Ni 2.8274333210376494 4.8060780918487245 7.014028729320742 0.7414927819784134 0.4406536575033056 0.4065520878339063
Ni 4.49858581101381 6.7978609414643705 12.513821505641765 -0.12424058984934089 -1.3527195938490122 0.2784175622467979
Ni 8.316728623940953 3.915611398973757 9.541244887878465 0.5098343302640252 0.9920136178149431 -0.4034634216062536
Ni 8.760862491325938 4.835119184121537 0.29170524616967863 0.19048326302765906 -0.11745416305512675 -2.2218079981919288
Ni 6.766240480612694 3.5402947141406753 4.469919562232314 -1.3410246740095872 1.239215159470253 -0.5990518670709619
Ni 3.6743290971991582 9.258244546747237 4.154502681745575 1.7025652301298095 -1.1763606860378772 -0.1331047251081901
Ni 4.776777207057178 3.1807325899079886 7.785344366969438 0.3114881195485216 0.3169476000011961 -0.33445347009544335
Ni 7.280861625312872 7.352647865221739 1.6040796286214758 0.6227088443682696 0.39557836243122196 -0.3931548405913939
Ni 2.5275399713757163 8.470562908248697 6.121391841083917 2.287045884254816 -0.16353784478706676 -2.3951162921021973
Ni 7.250920537528729 4.145704065834294 11.89348614591643 -0.9036620285527276 1.4637632253921051 -0.3659769946250213
Ni 0.06457235836186576 3.910304208948182 11.689164896914349 2.986466419653528 1.0929250460200404 -1.249798334302738
Ni 3.196190244772687 7.9550510463414295 1.8878955326954443 0.15903198649691322 -0.4405749817465703 0.8506502522423867
Ni 1.8038507972240092 3.2994577709696213 5.893972253675073 -1.7359335211776104 -1.2754173204224228 -0.9629809780280189
Ni 1.9804633184422167 5.675919114397028 12.22760159293908 0.8672271827644612 -2.05915487000266 -0.003826315724625668
Ni 5.58429586002194 5.8522811214007415 2.523617104342826 -1.831851352822858 -0.2826331429900422 -2.918907341656631
Ni 0.8880496946203141 1.9543727269178877 9.81144116915778 -0.08869046065887307 -0.22564824096456623 1.5740807774024503
Ni 4.0390870718065335 5.298152957244451 9.595985027236656 -1.2773361347116903 0.42080731220133977 -2.1907907238748074
Ni 1.7552324830037094 7.0749389409988765 7.659609427054097 -0.5371669566407072 -0.4653115652613019 1.2750604513036363
Ni 6.1390642271708264 7.884072018901489 8.884637853385684 -0.85316839067855 -0.5825019331320808 -1.4833252066844325
Ni 1.8876709977328237 3.590425391952179 -0.02131412050131159 0.32770406718675177 -0.313890301232111 0.11524969920464023
Ni 1.9478871922537675 3.712731998450651 3.1333343726953164 -0.6693322006537634 0.4920191564594752 -0.6424461748961968
P 0.3557784317634047 0.8264593832413499 11.602743987726917 0.6614175737923771 -1.1857809509105126 -0.43858469078941886
Ni 1.1565962934056666 5.75916406004293 9.863953587667824 -0.8675493419905704 1.5148654433845588 0.7468609882688622
P 4.762766967654 2.0461165992481023 3.6936882789969934 0.6954134711218475 -0.0841357514086551 1.266050791605858
Ni 6.935643759436021 6.7231891489367035 12.785185925424962 0.4916558595827855 0.6482342423328836 0.7091873849774883
P 9.504509297898993 8.072588604460277 2.352118784421991 -0.6016360828583703 -2.504693623512409 -3.5002517641455007
P 3.25170233904369 7.463059685683869 9.113564237403187 0.48082354485397183 0.3203080318329967 2.151216561126611
P 5.1663917587248935 7.822798097697126 0.917490681805893 0.05748395314908165 -1.6284968902594859 0.4387530980464831
Ni 1.7149831992083544 5.49769216824097 4.656206571282106 1.856338282220629 0.35141632320202704 0.7344109354309675
Ni 4.647400532727434 8.62009205938884 10.785162085982892 -0.06889399475823618 0.05455906619280282 -0.052436620533161296
Ni 5.906902498464654 3.4118829834519446 10.000186001000886 1.4678754477882656 1.3547296823005055 0.19190174064174045
Ni 5.838873971773197 1.1095367342977733 9.035046587767827 0.3404058310241363 -0.8046164499117755 -0.1475592099706233
Ni 8.531734768106414 7.620011480216425 7.998111656321661 -0.9749870013499594 -1.5690542707221364 0.3563433281899992
Ni 7.553569543550096 1.8948895184319445 10.864657668885203 0.6159920944697262 -0.8961081274648696 0.6647600079020487
Ni 1.3077584260921407 5.349415588173297 1.6080312583975112 -0.5089498707765429 0.3838273925428809 0.5839474073293556
Ni 1.4811699323473706 3.8959785072008266 8.74821523481569 1.299049615129382 -0.009631866662809218 -0.05488199674986032
Ni -0.03571312085216718 6.9700569898640925 12.10474571082957 -1.1540034013885998 -0.6832783784212103 -0.8336411192788997
Ni 4.082593040390309 1.5383242864689444 13.673436031416871 0.03192410240210631 -0.71270979630845 -1.8240447122942456
Ni 1.7948508421107094 7.762247884223523 4.019439334746818 3.7296692423445124 -1.5533150056100085 -2.3932023629089363
Ni 4.0652797246775085 6.640083377854409 4.9064405809879545 -0.006200472383757064 0.6748477311553539 -0.0685641222226432
Ni 0.527436338517177 8.924503943215903 6.915956125668073 0.8993011804808706 4.466412425453083 0.465022059045341
Ni 7.650063907651454 0.44980940608890624 6.643206455061766 0.08150294177149833 0.7019332745182363 -0.4895809793316278
Ni 8.493758668849985 6.488216094045656 3.67166158473001 0.8765484601653871 0.30441372920024345 -0.6441137924066068
Ni 7.3786271170951805 4.63597894020736 6.5479182705116745 1.9035673904109218 -1.6422646334675395 -0.8943386942692727
Ni 7.684143119126866 4.974748384637052 2.1280941285347508 -0.4073840968168984 -1.1785080713981835 1.2321088874427748
Ni 7.113796479158154 0.9485210425078721 3.598888133249953 -0.03133017757184928 0.26440016492178336 0.23726808459168172
Ni 3.927654637877946 3.980791486263376 4.5586906658838675 -0.2608350732783443 -1.0583359951912612 -0.7865616492925936
Ni 1.4573989168831705 8.95647697962872 9.429673279386268 -1.426321278495563 -0.8982115469611176 0.7705220793312278
Ni 6.296804677563826 -0.003368024439307029 13.352438250929463 -0.8283482463110766 -0.001593312629048869 -0.691453458032835
Ni 5.113718825551488 4.818919264917598 6.232311184788005 0.31717848506507956 0.37470049054094823 0.07925836871169575
Ni 5.1310135846558085 0.45763380005493276 2.1450548686864126 -0.20320970945539196 1.354546619755422 -1.2158926826942285
Ni 4.035255132155201 6.6318349653845905 7.283722126510223 1.6357227185839636 1.6320843505004279 0.6262237995000633
Ni 6.099547929410472 2.981286161953873 2.1671492945743513 3.176975136602483 -0.7156246559623998 0.7515846189967765
P 5.497441654026477 1.3607097083927613 11.6723127129223 -0.8273185194949817 -0.3114120148949475 -0.7637724193122201
Ni 1.5261511513053883 0.48057997427215093 2.1286508267891815 -1.5736691437863286 -2.2016839737485436 2.305647301406087
P 2.594046856171729 2.0660742316694507 1.7910587991676108 -0.5127139658046654 1.7468581385099142 -1.4186493637726019
Ni 3.5791893655169154 1.607252808671732 6.124923163677858 1.1386330895801164 -0.2618267477676523 -0.51733398107518
P 7.358493196893262 2.507118423742342 8.255189343235314 -0.8752827060790862 -0.7948151475506375 -0.8829008847459763
P 8.028266145103336 6.140576590762031 9.35020553139668 0.23653686285261197 -0.11850831535125395 1.5091264840182526
P 9.14306367790548 4.805744072896067 4.941815043735343 -2.6573305051162555 -1.3197351685031915 0.7557315512856145
Ni 6.540267380834947 6.777346610788591 6.597252869819343 -0.03958547560210601 1.0681331837873411 0.40587820169533323
