# total energy = -340892.6137957488 ev
CRYSTAL
PRIMVEC
9.07869198549970 0.00000000000000 0.00000000000000
0.00000000000000 9.07869198549970 0.00000000000000
0.00000000000000 0.00000000000000 13.28758340903152
PRIMCOORD
 96 1
Ni 6.3471585048843915 1.8187978627531538 11.332062948926474 1.3144798336415233 0.8174943343157082 0.4183200270031118
Ni 4.704677913990799 0.13292475692315464 6.099292971462705 -0.34910695834256006 0.25781711238762695 -1.3217141466064333
Ni 2.760657656368229 1.4461538824870726 4.823086750725691 0.7104528819534732 1.512584360659866 0.2542157681896138
Ni 3.678958244974521 4.4908384092598315 5.026081758199243 -0.7491896364020387 -0.06369085329074192 -0.05141692101939532
Ni 5.096668586308408 4.846977327982189 2.443852169515063 0.2807973753328841 0.4054082040374502 0.36638914246177545
Ni 7.378652221833458 6.169760868710362 2.5627358218268173 0.16423949883978167 0.3814966875271752 -0.21951307460110583
Ni 5.104703228479034 4.6607733608414845 11.42187390674897 0.48156247990252554 0.1167810482475021 0.27481518960752027
Ni 5.622978502597092 7.9187980643007085 12.36749772595042 0.19042901275095592 -0.07272211025507476 -0.09858509406476569
Ni 1.5757885215315441 6.531646599290351 0.5713211619584485 0.6946195144656424 0.5127682160813686 -0.1887868491618426
Ni 2.72605876223009 1.655880739869686 0.2366115871677799 0.21397620394327663 -0.7194633129821997 0.5475693829209537
Ni 0.7236870293270007 0.15598100241074758 4.742696751299191 -0.28180241955863083 -0.6234133266344619 1.2112351293175592
Ni 8.833921110805624 2.423030190059324 1.2626762464693502 -1.1501392904475032 -1.064665794064031 1.4049502690189544
Ni 6.931118113583775 0.7675098742508514 4.739680809910398 -0.715311238487039 0.015610195733431182 1.2307174064118869
Ni 0.764021840892711 7.802009774037519 2.6874398233991235 0.42242093654536284 -1.2518973829236117 -0.0010675220325659035
Ni 7.843081775370749 4.004974064575821 3.673139711452313 -0.07057909577014297 -0.2646999555503893 -0.16106367221496132
Ni 7.644830384319967 3.798833290421905 12.479831102187479 -0.0746748631060714 -0.318495146993974 0.15937754276179003
Ni 7.98404662167956 8.45261605864036 7.17787241513915 -0.17835948318093153 1.4559779250197313 -0.6381467761898945
Ni 6.924127520960745 0.5705521967699153 0.351503338731033 -0.7354046668028045 -0.04506938153481271 -0.02176181715712381
Ni 1.7518243539478409 6.486915885194678 9.308762108005372 0.42605364820194375 0.10936778650256648 -0.43356641163922105
Ni 9.231667673672586 4.726566639723429 1.4250132409520242 -0.663027084371342 0.7264837101640909 0.2729753081853041
Ni 5.9810511826554285 2.4536344598414455 6.688557259733045 0.33320339973842616 -1.5260831664772492 -0.35438234780888644
Ni 3.431473108735828 4.318670099515496 0.3782046789434916 0.40470937819821273 0.7342612972269806 0.392385309415221
Ni 6.04007175751558 5.8158189933838145 4.642349063868527 0.0518493805711236 0.03746431549404516 -0.20401009386950025
Ni 5.174799807235415 2.804389714374897 9.284539250631985 -0.8727044038289486 -0.07151806264464457 -0.38622597468204456
P 0.19847745047456625 5.4964033826616605 12.48141170241562 -0.6187570588093732 -0.29294686621122457 0.0875640603639137
P 3.9366478307044934 6.299422743829987 12.675158246635823 0.24339322365281307 -0.7539423205956758 0.53910402576242
P 2.322674331806114 8.559290686329451 1.3972424308551592 0.6927235829945102 0.5899085100087968 -0.7557346366094081
P 6.3520519197205125 7.7065745666955845 5.89623168953961 0.16317814745480283 0.7478526627581701 -1.3503726908833906
P 4.7462310859850945 1.0542721544700817 12.447050670000499 -0.6531134248020558 -0.41546815937661347 0.9853572888406901
P 3.861685073187146 5.922539014531497 8.535704245245514 0.2592744136594438 1.3109067715782843 -1.231381522358447
P 4.700447243650109 1.1779784078225553 3.8460506581791987 1.3000045228434836 -0.17877265945895018 -0.1433469716614886
P 0.33819125306460623 5.6852401704006486 3.4120782996181935 -1.104813312817194 -0.0834765205581014 0.6733917154351177
Ni 1.5423426212416196 1.167592384496911 2.6237001445838404 0.23202072014981331 0.6783678284934704 -0.6637822173698117
Ni 1.6616003156521648 6.4448906212310355 4.912020706928208 1.7561603897474465 1.0004735756568384 -0.31487194841909
Ni 6.073644759489561 5.6974237746865 9.294026483477527 -0.6081373743119979 -1.1801443214500256 0.011549909621128496
Ni 8.582513979744661 2.266831299047339 10.323960481189403 0.0764599800309522 0.48562610844893794 -0.40490606759005104
Ni 2.273186383250094 5.2066387790912145 7.108298769025739 0.2084010238483443 -0.3910735325823329 0.1152584409553886
Ni 0.6005409312535415 8.993460960369914 9.035556130259787 -1.328399529046409 0.45985285613957577 -0.8655482524001417
Ni 1.1409736603790883 0.763394503294982 11.350067810342049 0.38720505076586215 1.0572368485898114 0.8170508190203866
Ni 3.783099917674229 6.7751007964061545 1.6032397616799274 0.8588626128498499 1.4436181179027976 -0.7800953248419598
Ni 5.61084029176983 7.920178025441878 8.030975287040214 0.08401259556722951 -0.1317723794500118 0.639341567828944
Ni 5.54206920200431 3.315683474561643 4.201746536745706 0.33920101208275777 -1.0858506556717622 1.1023905623083143
Ni 0.9760229105507386 7.39792628435124 7.047614069973637 0.23817054180129302 -0.0804673014181324 -0.21041214074110212
Ni 5.195163312759384 4.553100077063389 7.4114154045061715 0.10603460836427546 0.7803745466452753 -0.5448501842175778
Ni 8.148470807388252 7.110948839138287 9.208188361150922 1.327791720259081 0.12324583003623937 0.24688426752520706
Ni 4.70885411218118 0.4146883094823327 10.294780658137869 -0.030066223257761125 -1.7821059059686148 -0.0808686506216091
Ni 8.382374220816487 7.360694569614817 4.737926806670438 -1.0407720181655689 -0.6633240467864706 0.449240113620736
Ni 7.135688274070438 6.126446430522731 7.091941690157021 0.18833767743956595 -0.5993357168599678 -0.6741123956512262
Ni 2.379207345135473 5.22002984937559 2.7703945532360206 -0.2420215401162671 -0.9676254187785657 -0.517987812609095
Ni 2.3551306546987525 5.089687072377097 11.646393584417252 0.045327520292205804 0.5555786263786754 0.21559985558962871
Ni 1.0843135453656736 3.3201411121952895 3.8279795223140805 0.16597859301807544 -0.11266445497596726 0.1823261811381634
Ni 3.9018582840402725 2.8440363611083663 2.563573785072409 -1.3469855195787126 -0.8954350126572449 0.21944853991175753
Ni 1.0125283299497037 3.335093717455199 8.3569593312205 -0.3474187720068597 -0.032868725703562744 -0.22339544037464754
Ni 3.6827712954961735 2.8832199945642065 7.2384508934981495 -0.8346160815976594 -0.5287221683074635 0.17262463757968335
Ni 4.359524212247489 6.51691188263168 6.174168573539557 -0.9712519597875596 1.2061883109222709 0.484023025627876
Ni 1.1299067351745773 7.2505246456142105 11.518447582032369 -0.8050224271009426 0.6955651662083634 0.14047299254780327
P 0.048884215556758655 5.568406486678867 8.112946794564026 1.0430253329761199 -0.6592809870653484 -0.25981640220584284
P 8.571428897156713 1.4838849252679973 7.917924694157416 0.25883861167360583 0.5058205811189417 -0.03185956771275803
P 1.6885186365966889 2.941605061004083 10.607636914093609 -1.3488657673205608 0.08570746677114917 0.42722298591969643
P 3.8343763684987384 6.44252108269258 3.787758194394848 1.1396013670306566 -0.7575572916404437 1.3080307355820697
P 6.837834556179058 3.7038974111244727 10.053836719282154 1.4691337456753988 1.0606001086350896 1.7554103989552994
P 6.35451224517615 7.5532263848831205 10.163432869966169 -1.3825094235169353 2.1372210181784674 1.3454379725859344
P 2.4951694744523047 8.620653563652905 5.9459538683419595 -0.07900665771220587 -0.5873304648689756 0.20854911939043438
P 6.831978800020806 3.7928141178127253 1.3860275229756414 0.7092082109130947 0.8069217010061844 0.37777038771552357
Ni 5.132674677662871 2.6590670960413405 0.5343763338803218 0.5553323146958242 0.17833454348026703 -0.8513591053839531
Ni 1.8302551717015483 1.3919813290044503 7.181406749825054 -1.3600438954245675 -1.174318715907184 -0.2509820917436645
Ni 7.04828770889913 0.5769345170478243 9.259531994294147 -0.38255058271298636 0.06377287148158693 -0.8712956964068802
Ni 2.9302294602811525 1.6642059001752942 9.450301635499946 -0.8888771569340692 -0.9564498617777206 -1.2911686697194085
Ni 6.4909559030092865 1.864654334621886 2.456090245951224 0.3409506477840128 0.09335855555850373 0.39199475884502166
Ni 3.9907568333450882 6.923945947126381 10.62162899376973 -0.05453695470561576 0.3462838870714682 -1.3985783040543398
Ni 8.121416306067955 7.148216868641583 0.22733861144678943 0.07671194814075821 0.17381325857114582 0.25453689897445836
Ni 7.631384841885282 3.880959135704929 7.895747266028146 0.40367039541073707 -0.7674606667970847 0.9500359878315768
Ni 3.2665223589074786 8.519190105010072 12.525805597048546 -1.0369323327045046 -0.6056374907082795 0.13475588755836793
Ni 0.2981333415963016 4.739639955797666 10.287021100326307 -0.7554739267488537 0.06333526972353608 0.21868209405937822
Ni 8.514914041210789 2.426906791423004 5.93403536185428 0.6311286930008485 -0.10367562121379563 -0.42692473795298735
Ni 3.6632611869937177 2.8159105741653194 11.460327613390666 0.23445966860860912 -0.7397696286397195 1.046198588497779
Ni 1.1058300447378564 3.3770372731933778 12.870312895941519 -0.17304784116003102 0.11578577421376832 -1.8958383971977804
Ni 3.2383602571975585 8.432588464709966 8.123031405324626 -0.343676274245292 -0.12593468972231214 0.0861815781940903
Ni 5.7219907144760045 8.06827872344121 3.629502979708686 -1.1078826957711372 -0.1280262821440182 -0.11728575579806252
Ni 3.134182269730977 8.559290686329451 3.608495794941896 0.18546472676714512 -1.2578201761659498 0.08247687564899343
Ni 3.068234653089823 4.237996844907389 9.566143018216923 0.7584679763801712 0.003459419303510171 -1.1698550237088756
Ni 7.318124584148081 6.028659842025777 11.43494813069238 0.36693267367007126 -0.26755362294910046 0.16815657450600072
Ni 0.40629687472718146 0.08201508524406097 0.40786658052526176 0.7421309297830445 -0.7757776713032123 0.5930449987552496
Ni 4.5422056470015235 0.34063342113680756 1.6796569256105338 0.0590654387035886 -0.39011553954443784 -0.6109146799468188
Ni 5.998918047956887 5.733965508852338 0.4251841849777675 -0.22797226111205254 -0.25132430557443164 -0.9601108555690754
Ni 7.822082761426505 8.667318039084558 11.338839284424953 0.9999002196518716 0.1493373849169686 0.8512151236069211
Ni 0.07151376253359523 5.002876622167472 5.975041088737967 -0.45785408054199217 -0.9740909718982516 -0.7118050251059934
Ni 7.805959004934945 -0.2714655925432005 2.679401549751811 -0.1396201576292047 -0.2577716038616722 -1.0571129214174377
P 8.610385563319596 1.5059824609101462 3.5977729521535053 -0.14902833831698203 2.0188636265827813 -0.33108301096131365
P 1.9469889898144286 3.270780265323324 1.6033732184481855 -0.30093116996828173 -0.46783407457283943 0.8395945086488573
P 4.9279229433418426 1.0143531469850657 8.088218254061939 -0.06603364249130562 -0.004848329231236811 0.25452430056896813
P 8.515958090758385 1.5847491902574278 12.55669947709648 -0.8749080963484868 0.469180818408721 -1.429242823017732
P 6.230333899854329 7.714382241573254 1.3738829570641777 0.004025833329941454 0.298296303448596 0.3537421431217263
P 1.9631490610728612 3.1927852247720914 5.9087493896806915 -0.6663726038048071 1.316237182652262 0.2380075338608675
P 6.890645305903947 4.171450034612833 5.757256892455432 0.5986610593904464 0.06726571512619382 0.1697812545936173
P 2.261937884211218 8.55919989941227 10.123423983433144 2.629756195042413 -0.721613269445667 0.8372110960183452
