# total energy = -340890.09040942765 ev
CRYSTAL
PRIMVEC
9.06358111907837 0.00000000000000 0.00000000000000
0.00000000000000 9.06358111907837 0.00000000000000
0.00000000000000 0.00000000000000 13.26546712859526
PRIMCOORD
 96 1
Ni 6.730733123964377 2.2450762200572143 11.21351143452592 -0.12627073290549223 0.3801712838475324 0.8754151178918923
Ni 4.629450617472229 0.6484665961684012 5.604182566599164 0.19817883189970384 -0.7214695447789511 0.9106106919564189
Ni 2.659064348692448 1.7362739699215606 4.53927070496934 1.0515189722694278 1.0465469729761332 0.3549017106474662
Ni 3.461300035743893 4.594120778488516 4.729245176766788 1.0414842137412452 -0.26507790771509837 -0.5062419849270766
Ni 3.5395278038989573 2.795199336259249 2.2200154184179195 0.4646358793505159 -0.5856841875148042 0.5493012780103959
Ni 5.022048694798698 4.436777011234209 2.8376023939045574 0.9786737061729273 0.7899709320844588 -0.03096610936421119
Ni 5.413885431315872 3.095793002214839 0.32479977190064035 0.7172925305831259 -0.5201110295996849 0.0338071783574321
Ni 6.255049199033057 8.186380497012216 12.023169288109884 -1.7625056152391838 0.6207409220086213 0.904968406068977
Ni 2.250351224235901 6.629773894503218 13.310437077601067 -1.5238131394961498 0.528239058023458 -1.1377152057515372
Ni 0.7232212000601097 0.43974954509070113 0.23610900576640753 -0.38235157932830277 -0.11171391813723987 -0.26790740674409347
Ni 8.557525077962477 -0.024131784580333437 6.6129147273678655 -0.6518944647932902 0.015031440411825726 -0.35130190911134984
Ni 8.53068781443483 2.924464129380269 1.0767461794238302 0.9575225260166091 -0.5685254163473304 0.1332916443080156
Ni 7.075257967332503 0.9964682292323075 4.567433064048405 -0.08115867105820215 -0.9054301761967438 0.3487742575934896
Ni 0.9418057718411372 7.394368529399876 2.036806003525922 0.6193473840952043 2.6355339780664546 -0.05834578692874468
Ni 7.475958886129326 4.084321534435927 3.8187694855862473 1.7306627596969744 -0.6865778751080884 -0.6816814662477357
Ni 7.7224339095575285 4.395764306923971 12.453567030259746 0.14907127573977552 -0.8185487437221516 1.1067185002597069
Ni 8.829985388298404 7.303034823027661 9.174967036152108 -1.5632505195561657 -0.04209307251530815 0.6016345401964736
Ni 7.0578015102050955 0.7920600045919748 0.6243339052299615 -0.4416347904696523 -0.4331925732395701 -2.0514029939713834
Ni 2.1595794598895957 6.5453557004821015 9.327533389828087 1.2737599873246581 -0.593325506110146 -0.9650671711330863
Ni 0.4491774821124712 5.315645276173624 1.2737621473491507 -0.9292959270707479 -1.6955224643504154 -1.3296439429764713
Ni 6.829843382888676 2.005027275602705 6.715828064906215 0.5044864356885506 0.21324909596926503 0.9919102594678596
Ni 3.665212482500078 4.692814112683914 0.3218994259604688 0.08767024692447482 -1.0341092614334126 -0.7777656482675186
Ni 6.282158369992597 5.840100330805142 4.875417174002795 -0.49159209622438566 0.5393629358507614 0.27044431423333426
Ni 5.532228609255934 3.083194624537219 9.31011590609925 1.346886789217319 -0.10823315867749102 -0.123828956233219
P 0.4762667131936733 5.940234774389563 12.217999120282801 -0.782475137928046 -1.236084584261071 0.9351279603714927
P 4.271656691427819 6.380063172635513 12.272480306052712 -0.20098827632404093 0.6679304352102303 0.689165947550239
P 2.5553044726828116 8.893729553914737 1.1161274391427218 0.19525265939184439 0.17625169280930936 0.27027205032152807
P 6.602673787124742 7.947373864379957 5.786728527357347 -0.16649872718760356 0.7213132217067447 -1.007898664476316
P 5.271369682680693 1.0425746660999717 12.588145800958024 -0.7996619341199775 1.1282540603386377 0.04408696301688536
P 4.394132862332625 6.372513209610004 8.157493051448107 -1.085455991336505 -0.4067390070337318 -0.8306956634973306
P 4.7379960642831485 1.5052795429490242 3.647273842860117 0.37636656538946145 0.023442033073024143 -0.232142076219026
P 0.5039713614290555 5.920648375712343 3.430370565366283 -0.6504379348524217 -2.070741546398995 0.0009081136365661779
Ni 0.7951461539439385 0.4364531206580749 4.402609123342776 -1.461302165446122 -1.4353697618510763 0.4127954976404568
Ni 2.0428314722166285 6.667170229969305 4.651615604961884 -0.17103492449506025 0.003726042701335518 -0.3581816669503186
Ni 6.368507106780142 5.9109684711370205 8.988786579387646 -0.5130302114935036 1.1168288492208314 0.29614763253670934
Ni 9.008075692605999 2.3809664909353137 10.083041784709051 0.18358293636339995 0.7062658404553191 0.24045419562914716
Ni 2.7261167213967887 5.445064150172716 6.829937644131731 -1.5457788451339636 -0.8559940330528033 1.8197926218861111
Ni 0.9575492121476308 0.26906237379539394 9.192398115252539 -0.1085900277962775 -0.2739312443406702 -0.7403933782666474
Ni 1.7371893916089274 1.2131512617063098 11.326069328673444 -0.2941267454519386 -0.8688809163178004 0.20956444802882618
Ni 3.893252182046065 7.226692279733708 1.3578667414654872 2.466370045341862 -0.012319440797301363 1.2491671284766421
Ni 5.678532934775461 8.610574217924428 7.67031831844507 0.6026015320954331 -0.5964445113551018 0.6266223204900628
Ni 5.7164187036189515 3.179431728264536 4.963991019941314 -1.65090354008946 -0.4941308034858394 -0.1350291958244126
Ni 1.2771129532681553 7.535615376686229 7.097316910923721 -1.2856479970114956 -0.3496839138919526 -0.06221709695869285
Ni 5.192289937905704 4.679925700412277 6.904198282855505 0.6584806026512402 0.4408112661270924 0.6008992046923458
Ni 1.1496155584544274 7.6130818040319985 11.156815109544205 -0.060932573819314405 1.194159661892511 0.9195316485951325
Ni 5.007175358274256 0.6526476261127797 10.35255643119949 -0.034920466026268894 -0.7666970491581828 -0.6324263287663495
Ni 8.475327461301804 7.355159477721181 4.584678339737044 -0.41567513318109706 1.21977042048208 0.5183482812723074
Ni 7.733147062374036 6.607196514075197 7.099956225729276 -0.009874578801234607 -0.3881815557465186 -0.4523730028227629
Ni 2.6437287695337908 5.25407637001242 2.328540925350501 -0.13366419715608593 1.1569015488720011 1.070783991146627
Ni 2.609169334940435 5.221112125686158 11.259568928055844 0.11183167466202676 -0.4763917343348634 0.2545662095504971
Ni 1.4327255765394207 3.5820450626656593 3.4798903468622866 -1.7122189511694899 0.27122233004993934 0.3174296818439372
Ni 1.3987099568098464 1.4024894701131325 2.357499066846901 0.7103952892426604 0.12203329778537692 -1.2213668184349222
Ni 1.3833562504890637 3.377262512127423 8.16725634096921 -0.18616329549606647 1.046958606592255 -0.09801610893517312
Ni 3.6215260217762446 2.8857354474979164 6.637204218258696 0.8242776757861288 0.16365097332616332 0.47998356545117987
Ni 4.074043433510445 6.9696309936238805 5.771698390880515 1.8707662847205007 1.5014059754455433 0.2982893614700605
Ni 8.408746394812741 7.601815772770645 -0.0398942584070594 -0.2434988959927419 -0.3245043293025314 0.8321064278019282
P 0.6517195154119249 5.692626803328483 8.042905821500568 -0.48716208547749 -1.6912472340138294 -0.36286801668239443
P 8.960645972903134 1.7183643337410015 7.799670121944296 -0.5406420596735011 0.6437324978077882 0.6246505414756726
P 2.1585462116484093 3.111799286372161 10.53045911937908 -0.4726124697980893 1.4627041879999712 -1.315600834619844
P 4.125488319624237 6.447958458378716 3.529250609331581 0.39240510690956293 -0.16873867226171585 0.20220209412648404
P 7.064608259583435 4.3678122229255685 10.363353875319884 1.083672417073521 -0.5879526718340068 -0.5256435293821398
P 6.726418859378373 8.197492447395499 9.747982945403159 0.18378091130681898 -0.906632424034961 0.3559558629435934
P 2.3743410131782343 8.576540471032729 5.629638540372807 1.2044463885305 1.4165135483765219 -0.4510568551145006
P 6.918349251969223 4.28100124350381 1.6625607714939947 -0.14577743547985217 -0.3698519041993953 -0.9493721289953326
Ni 3.1007145267320677 1.8303358141937487 -0.028717956598229667 -0.7194990513161416 0.19530253879317333 1.7799855171915022
Ni 1.9140651760540754 1.2888231000015977 6.949526158109855 -1.0028850133118083 -0.8505296675041223 -0.7145010838809178
Ni 7.1542017583915465 1.2062357493552136 9.099407586262002 0.1414564395069951 -0.618798967790902 -1.168310047819259
Ni 3.0628468850507033 1.6288977250677725 9.128817094095341 0.6067003847551551 0.40189350601597235 -0.2792151184474288
Ni 6.572582697995462 2.081025402816262 2.431056371680182 -1.096537445961647 1.3793587937030956 0.6640241581772887
Ni 4.512303832232489 7.215399057729166 10.252706584060446 0.7469275798407395 -0.5955927048777678 -0.18839604148132716
Ni 7.427323710145075 6.431263342060603 11.375005415548989 0.6483417144450253 -0.5997810319275025 -1.7951534831811922
Ni 7.73575737372019 4.092551266041164 8.140207896002792 1.2491964390526809 -0.4397733117808813 1.509721180179458
Ni 3.480324492395206 8.743881368199563 12.249199591734197 0.5996835871176899 -1.270554593013483 0.3227096992959539
Ni 0.18555325695489888 4.875708114954919 10.298353497368215 0.3174988445189758 0.26097674106253116 -0.8691552530251097
Ni 8.929838860869873 2.5156059876267136 5.482007306585651 0.42943927684472494 0.6029270337556519 0.03204365869910611
Ni 4.1200048530811 2.677182447237457 11.34112574953536 -0.44465815067700837 -0.6019145333307376 -0.42178098896851873
Ni 1.0472333467663724 3.5931660766300046 12.405068714349547 -0.5110262936895973 -0.29942424640545207 -0.2711667942216556
Ni 3.1898004650006495 8.438166778943357 7.986501343829082 1.496936883930596 0.053883380282016884 -0.5005994419293185
Ni 5.890040662462471 7.901013647242526 3.5626136512246167 -0.6426148392635771 0.6266937971579465 -0.11260531960325768
Ni 3.142905496580501 8.654541649661216 3.3255330295682515 0.07241152099319141 -0.21677330707243958 0.5428478090755683
Ni 3.7421260314010016 4.2698983567015905 9.189466953136751 -1.831053025291279 1.4440973715320613 -0.5866316390297381
Ni 5.2820012632676345 4.558428396262279 11.455168258261013 0.1106620798339578 1.7164898106307018 0.5020112346751806
Ni 8.039713628250167 9.000281012891788 2.5154111206338583 0.9751623505855593 -1.0427643660052492 0.7302727448928777
Ni 4.720340208372355 0.5375773072945805 1.64613846896588 0.25363315621326643 0.08232055257678726 -0.6899719883913021
Ni 5.824012474418252 5.795498448393941 0.5045768086440664 0.868170520514337 0.6968126654622192 -0.443645650252094
Ni 8.280415150541215 9.115062203474077 11.101962316950711 0.43771925746533 -0.35881055878356916 -0.49124011220160557
Ni 0.06280064682767036 5.21956225332438 5.639495184778859 1.457613146630309 -0.472334019325722 -0.07278690205473916
Ni 7.5273222000135505 6.18090004235636 2.588662982785316 -0.33419224601425673 0.5696983536095092 -0.5464967186820653
P 8.580736909064914 1.9998157164914594 3.1918832759289346 0.14932221540831703 0.07856417085814857 1.1942018279843563
P 1.8929923500825165 3.5531322390745745 1.0834704502144967 -0.3400875284527692 -0.6167497985713571 0.631285530293687
P 5.025030612968437 1.638269467886952 7.893881515304024 -0.9126554903005895 -0.9413271472036692 -0.4975385436158077
P 8.4251605401179 1.7185818596865143 12.39363410048042 1.1483809129954998 1.5063962295712832 -0.01712277572321567
P 6.545872324602694 7.769655166895945 1.320017226946249 -0.17116836474913102 0.29530379647917526 0.08073186793342871
P 1.7901025778549315 3.6405323512654313 5.730430093584299 -0.020901011818725293 -0.6128082974251059 0.2920747480189163
P 7.302563516812383 4.295829262122936 6.154592998320897 -1.7521643812141758 -0.6309219763066811 -1.661463317883177
P 2.859750160590192 -0.5057233516485404 10.119468317001392 -0.8023932170082118 1.6755493636625982 0.3523905141898383
