# total energy = -340874.33181606996 ev
CRYSTAL
PRIMVEC
9.23531509591097 0.00000000000000 0.00000000000000

0.00000000000000 9.23531509591097 0.00000000000000

0.00000000000000 0.00000000000000 13.51681716281964

PRIMCOORD
 96 1
Ni 4.852659295257418 6.6968962773776255 1.0243571215991465 -1.2245287611026718 0.3590386156339752 -0.11138173160880173
Ni 7.413639834747237 2.3286200155374503 3.0120601036930457 -0.9576819344126087 -0.3921127724801247 -1.1955907379120827
Ni 0.24150163868241917 2.4887880825845863 7.17133380013333 2.6975299601532767 1.778697651618014 -0.40537066593129545
Ni 7.287291491019401 5.6497223866816295 5.769342803473882 -0.6475117623445622 0.3176083735136465 -0.07475842395881319
Ni 7.720390820561146 1.6892037501810813 8.41809762323986 -0.3868114148718693 -0.00522216763088778 0.49038393484889736
Ni 2.995723755091323 6.2127995387236 10.502242228683416 -0.7478848015476862 1.1268016441628272 -0.6243132127409119
Ni 2.8002029024444384 8.099435851744655 6.14467708511351 0.5311773147161756 -1.0147843358525557 0.44610311065365105
Ni 7.0410225827636825 8.168959302631515 5.5880683476572415 -0.4798282708202382 -0.07177028786476672 -0.5646530778761178
Ni 1.881058182795808 3.6679253884934355 0.6932692338488591 -3.1460447655722144 0.41087154114486657 -1.3622097927276346
Ni 4.525562910625263 3.5805962503975057 5.529026979230076 0.21291948054398815 -0.23334869493261748 0.5236743214709111
Ni 8.523586161107154 3.8346874704094898 9.228850222003283 -0.7578951345958367 0.8056186659240447 0.11399911462699076
Ni 2.972644703050108 1.0649241660154094 7.568093088907977 -0.3729829936292093 0.810573695936475 -0.711548171900181
Ni 1.3067324171539185 1.4852972315664406 1.9257007716961798 0.23554647391488467 -0.8038680017815252 -1.468788189410522
Ni 1.3554579387903534 0.6436395748795571 5.765841695579194 -0.18540327740159038 0.372110875436901 1.1044176200406721
Ni 0.5129155389319817 0.27459269565275835 10.549416217409519 -0.23999833903865117 -0.5369754094551914 -0.18708400753812296
Ni 6.529838665383412 2.3946432820611183 10.51433956772655 0.37502470664958637 -0.3675589944001605 0.11527129647119502
Ni 4.297847750088952 1.0787217265394493 9.88971458278203 0.09974183337702822 0.6332004879282127 -0.3948098596963136
Ni 2.776061789184841 0.22225339527933777 11.636181903263852 -0.24561671366669313 -1.2282432338397813 0.7402483680483509
Ni 2.3422605757074684 1.4403397184265305 3.866053370548577 1.7326533077644417 -0.5046412160988599 -0.18604322497843442
Ni 4.968885733808315 0.023263758340064316 0.3123291160391565 -0.7863063387486781 -0.06550039569565494 1.2730668179123754
Ni 8.521766804063489 2.8487621884119094 4.761231524390022 1.2157841821408222 0.9036412026171211 2.242117142062926
Ni 5.335804796472369 5.04858650176177 7.475570009688406 -0.5520932389332363 -1.6105691021364712 -0.04869489410254194
Ni 6.733939125611845 9.137651486946462 3.165273978588507 0.1890665851857905 0.2941822812802224 -0.2273559676842923
Ni 7.035333628759124 9.066391796850418 9.47049039040984 -0.5988006702921043 0.48978512492263393 1.300890782103179
P 5.947385822592155 1.646906007744601 1.6478489334002264 -0.8384431686532334 -0.8482611831849197 -0.8642205347276537
P 3.8070554081016406 8.51393525699228 2.285085664430174 0.014619806795703854 -0.28713591595640225 -0.7600957417915812
P 4.212439557501055 8.297948946432898 10.662498031222507 1.0377175476099614 -1.6526331211860572 -0.528061137684697
P 0.8064101536774791 0.34420849968904454 7.930883965792751 -0.5432704984352837 -0.02265013329934809 0.11003318800070726
P 6.4210189494163705 0.2091152362421899 7.285564487125161 0.960218070570901 0.4332439953027958 -0.10444438105902012
P 3.639628383509729 6.653813533171036 8.061118530048377 -0.7201449124302566 -1.4861421073079373 -0.5314915035224846
P 8.558190886196563 4.936442072415442 1.6025266253200892 1.091320934757714 -0.2965960329280376 -1.1260483109365704
P 1.5063906908950262 4.573540371751358 11.978197939185556 0.03925688861809368 -0.613144597718602 -0.37891118618818614
Ni 4.851486410259724 6.332895574235388 11.992619806999707 0.33707316710647756 -1.0048267104192115 -0.43362477568098223
Ni 6.674371344232958 4.869873922310168 10.954649831175368 0.630366103803211 0.07219246300384986 0.14634642060944475
Ni 4.742121810711078 2.5051345900327457 7.888968565394888 1.8335022581627198 0.6447167160979284 -0.5023243950402252
Ni 3.055679419697793 5.333338967382732 5.444911730734122 -0.5851812797364568 0.1447469373328088 0.7448154185937431
Ni 3.3860820470793493 6.714064727855664 3.6108825422198185 -0.3468127629917446 0.25640943340682293 -1.0747877129893812
Ni 5.832581622542397 0.4314175786907227 11.640060735539686 0.7820259662057694 -1.1237595149023938 0.22322677600726717
Ni 8.593414377387116 7.418996317413865 3.7713138157428148 0.4254936619334156 0.4704956805654026 0.18639032390520804
Ni 6.208024880898346 3.810324709591273 1.369091110708417 0.745642799591045 0.9711604285150179 0.410604403526409
Ni 0.321675254760929 0.7844716630316583 13.458788854257318 2.304626059230425 -0.982323644220689 -1.25467751677191
Ni 7.2755903469873 5.175627494110292 3.22455823579866 0.11745082062101708 -0.25295129965489344 1.0848790357871123
Ni 1.332018709466382 6.136414248834488 7.622065192963225 1.2260130589576823 -0.6624593847933301 -1.1372634629260996
Ni 8.778610147928326 3.5238267694461856 11.788354034633803 -0.3773268724202018 -0.7869403727882511 0.15437469023055994
Ni 5.110407699986618 6.834733352893886 6.298701820660919 -0.8977821727331828 1.423859961439264 -1.4892318019768545
Ni 9.140209669185523 5.893109876675299 11.179434626280436 -0.3042409510678051 0.10130814942288359 -0.7377335720462972
Ni 1.6653674023145841 4.620483477603898 9.271158123286202 -0.16259219304434577 -0.9394798095822853 1.1547315378038758
Ni 2.552474814427811 8.48255365681779 8.837268250785382 -1.1750566225144732 -1.3495895328604626 1.529285732574947
Ni 4.55671362792619 8.583911238311321 4.379178551129753 0.4851627956592741 1.1048122843759294 0.41505986819460133
Ni 4.930226705459164 5.0865528814902365 2.9163887056095885 -0.2479232503126827 -0.23124398988478886 0.7314474819272693
Ni 1.1049500209760441 5.970917405065551 2.5928368348523514 0.8572307336733817 -0.42799251709586933 -0.3826061185412701
Ni 4.194661576236813 4.0735404207664105 10.64253312737989 0.4902954889001491 1.4552060798507132 -1.1148295594026154
Ni 7.449897681211347 0.1766808101642598 0.3775045806511064 -2.404125437579343 -0.0915569835733907 0.932673328183413
Ni 2.6857681149923796 6.237818006902732 13.014058569077035 1.1924429363117206 -1.550000339414479 0.0016478200160681298
Ni 4.7349552063157265 8.507304300863591 8.153167837611399 0.6512097800214398 0.47301253344998534 0.40801453131204574
Ni 8.169531892157949 1.030707324153584 6.1378918992252816 -0.02626407590285154 -2.2945892438197126 0.135325901129225
P 3.106390534046857 5.248882012233908 1.5486487214772542 0.5826225178703449 1.4876660001516315 0.2489828019254486
P 1.3318432384824754 7.537808644148652 11.771120013419674 0.5700945606066633 0.8946865645269946 0.1320145773678049
P 5.218497826073205 4.0309933248264835 12.657918042482327 0.1670697691997252 2.356972948263257 0.46387663258698825
P 1.4333301143852013 3.0609158432701697 4.832099637132506 0.2945401788402734 1.371234621934064 1.3963411871937048
P 2.5152010833200302 1.4932857789916711 0.09272717967979983 0.8072117214427775 0.027244694648565982 -0.6608120789978942
P 6.084022307165895 6.962208405044703 3.779707793494019 0.11213660749695528 0.47998459389244436 0.3978126510783794
P 7.527381973578612 7.100147069025331 9.983344976263202 0.16033090781399484 -1.8644472844810085 1.9882957810982531
P 8.100460971703269 1.12784436671841 11.891095066305716 -0.570507736884682 1.5396225957245806 -0.9727136319347506
Ni 0.16522532550962868 7.582193567762129 9.0019976398826 -0.14482587019986026 0.7454787632093549 0.23855466461358915
Ni 8.469217862040873 8.181140683040626 12.020910347262953 -1.4896010123908154 -1.4998432589441135 -0.030811843174534028
Ni 4.1313719629361145 2.350646241675224 12.053459291246169 -0.5401229539452375 -2.5643388459788676 1.1993851719575086
Ni 4.663242985787502 2.2932579946227594 3.5626954394445294 1.2120141735754288 -0.7195008510883544 -1.7283497952930815
Ni 2.4664940323134803 8.416003977342402 0.39607218134292826 -0.14458752893680904 0.9457640999291003 0.7118014255615677
Ni 0.616345525098602 6.523484768702997 0.29506369475422184 -2.1399391884405787 0.37990954554571343 0.15401576422924443
Ni 6.040967268904133 1.5062798671157165 5.381342287390666 -0.35504723508639496 -1.1877059358473674 0.21838178921014
Ni 7.3049032366146776 3.2832652858249087 6.76305807362543 -1.7575133042309152 1.2267730770521583 0.2402829601586055
Ni 2.8618855709451494 3.6994085771322918 3.0685202015937936 -0.9224611635371016 0.7766310204424431 1.211105288607914
Ni 1.5826097451151733 2.120936253111342 11.63239727120043 -0.08562082059461383 2.5366359807469605 1.4675211497726406
Ni 8.607996939681264 2.606261288652716 0.9211801830619497 -1.1072808005210801 1.408518188875871 -0.7029899979175248
Ni 1.0553933209947877 2.2095675706141593 9.425452530029931 -0.18629133643349852 -0.24855317058719775 -1.235502486505356
Ni 7.3467761545638055 5.373734234941066 13.412412796742244 -0.39554056721475106 0.4302486601198977 -1.101433854822
Ni 0.0291854422811716 0.8008652705860243 3.879705013096526 -1.4852771882044808 -0.8801762867259616 -0.890214387688254
Ni 2.705439335819826 3.7238175145252215 7.166184188521412 -0.6317223607207894 -0.4078314687669622 0.0753546627819154
Ni 5.451458645496834 6.2992513218999955 9.477762277395536 -1.0698676499799447 0.41421603213706726 0.9373931022565856
Ni 3.9542478576546163 3.1549590553292703 1.0190246507513683 2.4160797817277424 -1.5645417275637636 -0.2346267903140927
Ni 7.006288563265079 7.248577050780596 7.9681096732628305 0.6244929328518858 -0.46089261025799977 -2.653811436219404
Ni 6.590394625461142 2.535250952060118 13.06484171888265 0.8782330469566617 -2.004803548945289 -1.1846887462875983
Ni 1.7008402470085848 8.431214541052638 2.964305213657064 -0.4517433396585639 -0.36697406843096797 -0.002064338728196445
Ni 0.12851956627080946 7.829690772905195 6.50245410951602 -0.4118452179120456 0.4473434108186554 -0.7947488130890764
Ni 7.0892124561334535 7.214064678840612 1.615083883047356 1.0379636021824963 -0.33896241370939045 0.13144533512789622
Ni 0.47030010166148045 3.3987898404401786 2.7874646325442995 -0.15837069876383048 1.083930555830914 0.6817269747736905
Ni 0.0948568433055318 5.144615306533501 4.606937117646293 0.9611732353953187 -0.08847731620680246 1.0022594639126674
P 3.7847705931454776 1.3337087721008527 5.4697695044332555 0.32854944590618257 -0.4282509129635786 0.8259239531403002
P 6.204755579408714 3.8620332379541233 8.98987259489464 0.5503145497662587 0.10961795484015961 0.13524542560027678
P 8.672671850223335 4.925147282240809 7.237809597089178 1.0239050672069012 0.44441723831079594 0.29110981300248573
P 3.07576622969765 2.846979772628014 9.239285204356774 -0.23255756648988982 0.175107294792221 -0.26024191977903566
P 1.532775985685643 6.805909934958459 4.864080609246761 -0.992055526796472 0.6373667034907603 -0.5155691758652733
P 6.302465211499973 7.528924271174002 12.907736082270434 1.1673502550091508 0.8286220687977537 1.3685169658925849
P 8.971064876014314 8.747108488659586 1.845072778122501 0.3153530018205666 0.12101179849939804 0.7573431187471086
P 6.451781783489714 3.495705235446385 4.593677052451905 -0.48921613979304124 1.6418709975735466 -0.04218691778069508
