# total energy = -340863.1105919898 ev
CRYSTAL
PRIMVEC
9.26847262982522 0.00000000000000 0.00000000000000
0.00000000000000 9.26847262982522 0.00000000000000
0.00000000000000 0.00000000000000 13.56534656532099
PRIMCOORD
 96 1
Ni 6.741979695545651 6.192136823632218 0.5996303264859059 -2.8751057710906487 0.17511475099138873 1.435191070181367
Ni 5.317100320069626 3.5221679052837827 4.805361066097049 0.4993311167398562 -1.5340587284835578 1.0450112530578972
Ni 8.466221469375327 6.554126291730308 7.9915764966712395 -1.1888148526408302 1.1708693239060028 -1.4062800435739715
Ni 8.695949832655725 4.524701518718285 5.255147068287363 -1.0853359208188729 -2.532747958546464 1.6048846501571845
Ni 6.698325189330422 8.069864504664483 11.974538569120247 -0.434084231815904 -0.03383186094778044 1.3475940996969888
Ni 5.643851055125189 1.0360762159807682 7.210090395026439 1.1622738689275078 -0.7664671925355638 0.17886959004813066
Ni 8.409609638385385 -0.0707481054866431 10.851816036504008 0.021521161901227454 1.6808738611993053 -0.4312555041178573
Ni 6.873805182148455 7.929104210420176 9.334857165720882 1.406006478197611 0.6076524642557792 2.0471946123169906
Ni 5.8620772438380495 1.3516399045391365 0.7472196313840098 -1.7489386751880267 -0.6909369234077326 1.0029498051114727
Ni 5.250719518899038 3.8676316866341534 10.765391236365042 -0.718680154959272 0.5214325766245859 0.6286339516034529
Ni 7.269467011410011 2.4341604370049397 5.403267456668723 1.0625713734288473 -0.06755470712152237 1.3596746850106067
Ni 5.59265201216703 1.803440872685118 12.061967144847983 0.5692041875819099 -0.7054885959696624 -1.7345181288873224
Ni 3.9673975263158368 1.4662909113082212 2.960867347471567 -0.864883365122633 -0.6182623785611416 1.7318824910366883
Ni 3.511963316888248 1.9802462570931259 13.281776928547988 -0.032725258147163 1.292975383910844 0.8596979642669517
Ni 6.688463534423203 5.5093933222877505 4.742201059174824 1.0407681615108269 0.7923821126291127 1.6604726718351337
Ni 2.3128453983953565 4.0510454920467165 12.567710623858645 -0.7384156857149863 -0.08968264936881329 -1.1906503631876721
Ni 4.739470567130024 6.288130394942438 9.828216111567043 0.3544887914797637 -0.06140231436688134 -0.48504658179638405
Ni 8.821982523847803 8.649329415190204 2.4713214512765624 1.64985221600681 1.2253119191255994 -0.012753185900610295
Ni 5.567478840430179 0.8723560612701409 4.8401836447172695 -1.0234862345019275 0.3780822625289876 -0.8371249640624422
Ni 5.0999122002943675 7.809967262885025 5.306315525285754 0.5907896270621696 -0.47869852809116903 0.617720904235375
Ni 4.574019061727039 5.36182070064043 6.120874317913103 0.9996731912427299 0.034002839308005954 -0.681012465205169
Ni -0.009212861821218265 0.6588901601139976 6.023394083588675 -0.12235545701148606 -0.6359829357693563 -0.9407818162231604
Ni 0.9252225024593228 8.27149085884837 11.88725921580229 1.345511249026031 -1.1435634370021983 -0.9441885279118643
Ni 1.171090057177636 9.152468453384202 0.47616685591439256 1.1671841617449317 -0.528467114873864 1.8511081441699409
P 8.241377591185252 1.2290272797575508 3.9338150693371445 1.5011568355492149 -1.173270734258644 -0.8095102876689673
P 1.4080663660759343 4.992258890381439 5.091454718994708 1.881619682495237 0.663413006955851 -0.622823772679579
P 6.864573783381923 7.875272921227384 7.142819820480763 -0.0033923135110006087 0.8066591913734172 -1.63275232310173
P 3.2341686544078114 0.5816300257384331 1.273126672660324 -0.5793816423355441 2.1941159315932985 0.94456005231867
P 1.1738149881388413 1.3313512178926106 10.459411148534178 -1.369874251251428 -0.47727747937392634 -0.21755466532315434
P 4.272117101865327 4.461175407126101 13.315866370981027 -0.33248220530168543 0.35351948558795887 0.8020168075053995
P 2.9871360526764934 3.3933454038218986 10.599704311756565 0.696546042064394 -0.29480757356904713 -1.0349204444807985
P 5.6811010467343195 8.209447702881333 0.6094706639060139 -0.4052886477404504 0.021932538407033197 0.20573504698040695
Ni 7.924646075072081 0.746660742482783 8.127473623312335 0.3098680674465954 -1.0416122546786772 -0.04708281242041569
Ni 2.468843061688037 8.575645057565772 2.6678019494411913 0.16019875311150475 -1.307595447816864 -0.03697734855529761
Ni 4.521587311905478 3.360377446580376 1.7231657041541788 -1.213746068664871 0.2689340482363949 -1.2811084572699292
Ni 1.3519457641368229 3.611775498933217 3.2007975186057025 -1.8923360404714764 -0.6271547959547651 -1.422876771590388
Ni 2.8204981827733913 7.095803639232781 5.591879948394689 -1.093890238146787 -0.8912600553439489 0.8861263336618095
Ni 4.893911127016302 8.141871268737969 8.32815922752152 -0.01643603406883621 0.17100432836744095 -1.6632934291133805
Ni 4.550236160888764 6.286304505828976 1.3200103147493083 -1.2361447480750452 -0.5417933996691249 -0.04439189585181387
Ni 0.029194762022792163 5.664149010244372 3.41724601426292 1.7568854408389292 -0.9151970257755206 -0.16612000369194618
Ni 2.1954045813564664 6.868763133022959 13.59464812579945 -0.3044942047291917 -0.5222944104042488 -1.5200300183046338
Ni 0.9988076874263229 1.2418177720244332 2.4571861036271256 -0.1471653169663143 1.8626719377481404 0.38756731920128734
Ni 3.1407053761329977 1.1719983674980377 11.230737150452198 0.5217637347117595 -0.5898239207147906 -1.3981864679325597
Ni 4.748581475752014 4.0293109236656734 8.35779980307912 -0.4440865944442546 0.09093040573298533 -0.34531740939314076
Ni 6.326381381598542 5.860807463084019 8.013267503230795 -1.4358032498440694 -0.023970394772668394 -1.5300650339431325
Ni 9.016333126995818 6.382780037717368 10.153621064392787 -0.6923602861178205 -0.4227258693802914 1.1313308994917486
Ni 2.2499773483618317 1.963878134380579 5.031766681929855 -0.1795604454675682 -0.227969175788259 0.1179652983635904
Ni 8.785613037141102 4.827789843080113 1.1270295918600228 -0.36657709010286543 -0.00044454373658633114 0.9355611912541695
Ni 2.4494719538345704 4.30266598774333 6.884196066844399 0.23193150287011668 -1.3372104424698197 -1.1366281433349457
Ni 6.301384310842177 3.881951476889467 13.124974761828664 -1.054530762512558 -1.473846577770036 1.4894146074116221
Ni 3.2583222941523737 3.9224083600379758 4.013864087135249 1.2422925128439959 0.47057949852846054 0.7099070367523322
Ni 6.2252901503268845 4.592157462717104 2.500934221416192 1.4888685051001647 0.6108347186385028 -0.38820520989560237
Ni 3.3302271050266303 9.280614356342111 6.752287163987679 -0.22099942933864522 0.38420457337664154 0.14736740567479137
Ni 0.35040665781843466 8.158934526899802 8.994421530787022 0.6934527478510508 2.2396349990710203 -0.2303880696423968
Ni 2.3057272113946565 4.868478438045051 1.0882030330519088 -0.037118502118852204 -1.4946406316972516 2.194931742626375
Ni 8.795493228993635 6.7864220219367395 5.65886598082979 0.16221861175501096 0.6817663126520581 0.3489501210497216
P 0.9168104366756832 6.550001821397871 1.6712233296889158 1.674716840458974 -0.07179214224163766 1.3447478884974453
P 7.666991803675656 2.890558567588873 11.644547576023742 -0.19231697380228815 0.2940028182795646 0.011039545643613246
P 7.034177564535317 4.00924468036292 6.951792891627607 -1.8332803719599007 -0.06327124925482006 -0.1874645308059933
P 0.7471918259660384 5.8949339794076865 11.885956995393961 1.5567731393619382 2.4097818645341724 2.884172252168291
P 3.1554144422399126 7.859887256616496 11.157999103886064 0.1419665463741942 0.38396828899611934 0.11670545781456029
P 6.700605233604083 6.173581341372581 10.925109264582305 -0.6663234957344266 0.5983209024422083 -0.08392749205259094
P 2.5881931840943024 -0.18222002613432123 4.787889068291034 1.0489013321409226 0.6196636297840424 -1.7817762905433379
P 4.1062299782474545 2.1101995122191832 6.239584915706024 -0.04014546187063409 1.2468868170828977 0.2740975947152054
Ni 3.8514489333747495 1.637127399325017 8.648342322852216 -0.32198876196952936 0.3997168100796277 0.6014123968833385
Ni 8.6119218595459 2.5255753828225207 9.631680929413736 1.278612430320953 -0.9056561761646208 0.4809266460907395
Ni 2.7930171613449084 8.401416308556456 8.997270659281833 -0.9964091757794776 -0.05659358012432834 0.78649814304451
Ni 7.3895956855194775 4.616413055660894 9.649641375728784 0.15551523159290634 -0.7585800764780032 0.5710546105270875
Ni 0.8731948580456139 8.02975055500429 4.2108867909503225 -1.1032151150921388 -0.4897735549584081 1.163763823209473
Ni 8.258793051308059 3.3299305139016013 3.175565955491112 -0.9399156115681232 -0.6990071020103767 -0.6256818109536644
Ni 1.4517764831271065 1.1122445242773191 8.417731600974857 -0.3727726773906161 -1.0996045149227451 -0.252698560214139
Ni 6.750831086933241 0.010769038380355634 2.653693480362461 -0.9438499136255228 1.6370252394454707 -0.4908673022432192
Ni 7.641716678739578 6.835600537855637 3.0885173871423195 -3.1267879742251314 1.2167015517487692 -0.8786523938822673
Ni 0.7131014566857337 1.7111639589104208 12.500141604493406 -0.08687191939289556 0.6892975880320967 0.14493848451832458
Ni 2.4068833219749144 6.058457642497982 3.335406327547452 0.8349037880414073 0.5931306164905205 -0.37311643388328
Ni 0.3290891707069638 4.12012341876054 11.145966772682536 -0.41180845113683917 -2.754380650593734 -0.893238005005926
Ni 4.544916057583553 6.428640440425001 12.152380168771327 0.2776485452912573 -0.010258958723846849 1.3344529343293403
Ni 7.966882504970765 1.9685494445997882 0.3744092214586851 0.8162792309616844 0.35855087736427926 -0.6328952979829681
Ni 1.402014053430808 6.05461122634526 8.094957967536482 0.4137272654261068 0.9138052876343167 -1.0012659896511467
Ni 7.3966675301568925 8.618975167238 4.8559873174449955 0.47721525867742326 -0.5825512983127773 0.9556381645097025
Ni 6.478569702629129 2.4344941020205977 9.053498775503767 -1.1898129548880414 0.2646809293869958 -0.4665428665652417
Ni 8.900004526675787 4.421311706227651 7.724162523566823 0.911210787434263 -1.9012924783338156 -0.2691078548100978
Ni 2.421138232921628 6.1390099383613705 10.071496835566744 -0.730103052084233 -0.9207968884608012 1.5150315366487779
Ni 3.3859120887508554 8.762135995900513 13.226850105887118 2.3858870601944457 -0.9839452389845118 -3.012336088331438
Ni 8.563058471697348 7.281219434739292 0.7136075152928147 0.3948108881375781 0.5344816964990602 -1.8143429116254497
Ni 7.856726707440403 5.27960934817141 12.595966489601265 3.1148418576068484 0.5931167325334495 -3.319373371197458
Ni 4.884679728249769 8.066805908687622 2.9059553543669496 -0.669589310969892 -0.653845417872074 0.36333672878869683
Ni 1.4047945952279564 3.6450215103544545 8.967860868693396 1.4871749194478259 -0.7937553388275556 0.7454173138438002
P 8.543149792429764 -0.08305014924449321 13.293293932671777 -2.118006907143862 0.8853408616460364 -1.8527644488264414
P 5.551750242330978 0.6581384869815018 9.735957734737662 0.14583657085256174 -0.8537175783138006 0.28615272610752657
P 1.1680129242554582 8.198325535692739 6.910282183137979 -0.15081062702838544 -0.6180744309200518 0.7640290154077164
P 0.578842069163159 3.033571100688871 0.7918816205770728 1.4138645407894488 -0.33836668910692047 0.9803760335760149
P 0.9425665953426685 2.331113558002621 6.830613172718818 -0.19372105323866637 2.9470241544975053 0.12307228057285255
P 4.837632961042019 5.50244196779488 3.8899714862797086 -2.419834620784484 1.944279266307987 -1.3503264110264872
P 3.620293225305148 5.977284358966563 7.817546092976786 -0.06432848687474083 0.9703780418230386 1.7621672580631587
P 5.9261131214263765 2.3331433535145396 3.133038495550994 1.3845213117406412 -0.3937497938629154 -1.4031265855466544
