# total energy = -340864.83407668857 ev
CRYSTAL
PRIMVEC
9.35668926383708 0.00000000000000 0.00000000000000

0.00000000000000 9.35668926383708 0.00000000000000

0.00000000000000 0.00000000000000 13.69446052626804

PRIMCOORD
 96 1
Ni 7.902678364130254 1.428934852644493 1.8377005312644328 -0.6821213819986316 0.22702789492091222 -0.9284752309416656
Ni 8.77268203408789 6.929161642176088 1.4674161080857049 -0.617085327533905 -0.004808220021920751 3.2014512673669766
Ni 8.805963777371959 7.710651032834513 7.926640845027218 0.17992348523394175 -3.3103320869307957 -0.5670118079162816
Ni 6.437411487540852 2.7552829655176807 0.4264675988108676 0.7454139714096905 0.5744677499736945 2.0537511824885857
Ni 5.9971418365741425 8.199687747618082 4.218797334230471 -1.62525832871753 -0.9784821589874116 0.8106433728321459
Ni 5.105458717870601 8.648284851922668 2.010593433261348 -0.6548589467382528 0.2812123513831157 0.21626011488144692
Ni 4.730695247598793 4.768281067888954 4.649310765427066 -1.7078984694172652 -0.7929809225553762 -1.0747566026411297
Ni 8.962772530730888 5.112869215672395 8.470092321194771 -0.191582923849741 -0.5942606163299056 0.4424346606631283
Ni 6.652933465276373 2.933752454244229 3.540633861785702 -0.4645230079217355 -0.37087931702264515 -1.0546089240486611
Ni 1.787024702862263 7.7212989450800205 3.02013527975651 0.6774031505873559 0.03434145359434731 -1.193771939535789
Ni 3.9189837510062824 1.383349063136485 7.128528360436131 2.3033906441614267 -1.547567047382638 -0.16987381430742357
Ni 0.5580815953126109 2.0809557356218202 11.72990761438687 0.091917452236603 -0.011751998329605568 -0.8770763076443991
Ni 4.053579724338117 8.031136349383834 13.590710746815962 -0.5854440464795401 2.854686584004348 -2.6952956715061194
Ni 3.7576463601018113 6.351676144917315 1.0800070724362143 -0.5171825430989803 -1.3382483968160308 1.0021411931672484
Ni 8.878693322085782 8.034523470853847 13.35883608346403 -0.12939076659171264 -0.7299986652958848 -0.7354314062756818
Ni 4.10500408787178 2.3958551087523645 13.786487303451574 -0.17491574760670522 -0.8236086747435621 1.9096737604189755
Ni 2.004913922951135 7.252959226682272 7.644193276853699 -0.8248317485173859 -0.8012619316172459 -1.7767073606608625
Ni 0.5422070365114438 3.032297104305465 2.1194500904278337 0.5533697916528146 -1.2555879444013214 0.264329459584848
Ni 2.7352690074393498 5.791668942978934 5.8547517411856225 0.08829399655140278 -0.8159573288458913 -0.598702454151343
Ni 3.785276663143098 5.342557220771447 8.265483050007525 0.5766151353340004 0.8893551250117523 0.9913831833197958
Ni 3.6132071497908256 3.533628508623829 6.712148208191064 -0.41829637285402804 1.0851914248212085 -0.3919158259779702
Ni 8.5446782330347 0.5593821751035825 7.687686910669179 1.4457675601456328 3.4590143547622687 -2.4910238393348005
Ni 2.938440155505213 2.537889649953424 2.5880611528107496 0.6725759044020417 0.10725768213809914 -0.451673405652577
Ni 3.3436970756962725 0.3237358303578352 3.6132829389728895 2.2945727887594805 0.13780290191480785 -0.4940693541202845
P 8.263846565076294 3.151585534198239 7.343654550220874 0.0717566610180119 -0.6204215909959896 -0.5711078323625262
P 7.584569646623428 9.06412418753523 9.216878687488203 -2.660984299818759 -1.4166991820247667 1.8978004060201576
P 0.17911884295312006 6.759683931716616 11.677376354527507 0.1723947809570644 0.11912203767585292 0.09112606668355919
P 3.2827008191686238 5.420273880798851 10.738812480538472 0.5501965361311557 0.30115022795762325 -0.18943065339342857
P 0.7669781014654921 -0.06577752468006905 6.4266325816473335 1.0775555055425055 -0.7730659287990042 -0.5446550374876362
P 1.7375465306704843 4.78248452200906 7.612093283408476 -0.09906126237023584 0.23095294100693128 -0.04617829832827531
P 4.382897755439071 6.328190855166678 3.186701188554469 0.10668998256008722 1.1908177420034718 0.5482535534721719
P 2.345375770822212 9.192404395695078 0.4390785444387193 -0.25472973171155483 0.6854761574034774 0.5151076628478225
Ni 9.376806025338722 2.5569960091848185 9.160786271740756 0.33665356307055566 0.4428527220371535 0.11466143080133802
Ni 1.452756983204302 6.560816860656845 9.733063835822158 -1.0533861073851536 -0.7049643480350762 0.8431423739011157
Ni 2.078887907321067 1.4872831661444805 8.207624091349752 -2.1434531151311087 0.5701950907402696 -0.5154277651914027
Ni 2.977420122477783 7.5469370428875475 11.213722466052912 1.032524433444796 0.8212918536849275 0.20234916122730956
Ni 8.624734065348026 5.235151786091146 13.54027444965587 -0.8640377292928861 -0.9135674605918976 -0.9329880312103545
Ni 7.965920226052386 8.422573439709678 5.76812002774212 0.8380600742822019 -0.6161245062825325 -0.787367947243973
Ni 0.05042506913311923 5.414482090218914 6.059881244289258 0.4125191040506186 0.7087801222367407 0.3771741488924214
Ni 2.4047346067497166 5.895649829432648 12.807867443238447 -0.2117642838936224 -0.2781044018817533 -1.1353973562516382
Ni 1.5104690418425188 2.361525416284203 0.2201713165710152 1.648058614441497 -1.3043095779767406 -0.8049465795576846
Ni 6.2273818863326715 7.104459213282929 0.020086940253651812 1.9282360968021957 0.505225370737104 1.2091196256364531
Ni 7.666216116091178 1.98570464013916 10.777622155768627 -0.3069259540991359 -1.4228569740960464 1.0758907162455729
Ni 1.28086524694576 5.643870681265367 1.0594195493133758 -1.0274884136827853 -0.08871462902858915 -0.10305315713844834
Ni 4.926156483810264 5.729222399634015 12.36494704223733 -1.0383816635565213 -0.16192242067083082 -0.4450548718947948
Ni 0.8812878370649138 4.315052402458249 4.05201247890655 0.2872043073004925 -0.7433131230166037 1.5222815333429718
Ni 5.289579646839932 8.407658877214654 9.473484951584707 0.74946782976409 0.6980167130726495 2.395020389954282
Ni 1.0577643510038586 2.918529121007462 6.448817291606998 0.3502783529428419 0.2447831620218042 0.08343024070119825
Ni 6.4914837941021775 6.426398664418741 2.3281678838180704 -0.19155618437686364 0.10096079338579386 0.10003108248267288
Ni 4.2186504342109155 1.6293457774129707 9.724121648007543 0.7056415766077588 0.2299558672009846 -0.7296417961770982
Ni 7.120169094355167 5.882269763957185 11.54434762662724 1.5266189843760614 1.3429967101342934 0.192656616529894
Ni 8.012965659066808 8.81616256853857 11.34502488480617 -0.7409312530479885 -0.6917133965624409 -0.6481020876303935
Ni 6.399451399684943 4.078702434688896 6.219722500599655 -0.9572121938650417 -1.6659362660528665 2.358008588616623
Ni 6.532737436536662 3.55821788769342 12.028227870023725 -0.5741556180499143 1.074685383083562 0.4152658135578203
Ni 4.891892288166109 4.562967238009189 1.978000342298254 -0.4369502405097894 -2.987710319362958 1.0858298297361557
Ni 6.053553315421388 0.5551370452390949 13.577044366652702 -1.1478450950966876 -2.350261340571036 0.08637955313750931
P 6.201379647202385 4.908565908220146 0.44256671815148313 1.4372137570383507 1.1761976780974517 -1.4928406023740353
P 2.847932901418398 4.131932639227291 0.43126758034157536 -0.02644945244078025 0.27104955191750096 0.5397082350053222
P 8.761294943400031 2.8747304591258973 0.03395636057132839 0.19802456571002672 1.2381244975092354 0.499328802747011
P 8.683419219657184 1.925803116241322 3.7102949633523905 0.9654860038380598 -1.0374298411662133 0.39602239194717603
P 5.923654400039681 7.884329896719498 11.779030232391188 -0.8887270045094501 0.36086152777532693 -0.9321717059566461
P 5.417139389935718 1.6360451668398457 11.850446097949238 2.4987011533744 2.011219222663646 -0.853408274603498
P 4.339885055445574 7.668583358444528 7.774084706884091 -1.510662975267437 -0.9340637807730365 -0.2517156274755794
P 8.014032321629188 4.167366421014406 10.509032779885812 -0.11240451644636126 -0.18029783785422498 -1.3563471632992705
Ni 2.6653371127794863 3.606507760363951 9.833252456165939 -1.3957991986473057 -0.5210875345803413 -1.1194626872992528
Ni 4.00751674368378 3.503818097012066 11.798133784615837 -0.04367712917297639 0.5012766705020012 -0.485406279128648
Ni 2.7840454279453524 8.77331828894966 8.982292455622433 1.2374922632418752 0.36346014174043856 1.1851772558882427
Ni 1.3030312435271374 0.5618233353011685 4.281107269913893 -1.9592186612266385 0.5343338580672862 2.078635347324775
Ni 3.3547753956423896 8.33157028109825 5.76190344347506 -0.036403735440014726 -0.01198314050380517 0.32916342534109766
Ni 6.990775440187219 5.143362665591647 4.341281073465812 0.9573795726808416 2.0591936936603954 -1.059907453443439
Ni 6.980277234968011 1.552480576097641 5.978261909220025 -0.25610398635126214 -0.3705625571131747 0.005768784162977161
Ni 1.115148925522047 7.442357328328638 5.225395566321031 -1.0761941064186045 0.6105616674827743 0.17214898349484545
Ni 4.802245849480512 2.3090063201207283 4.888635224675193 -0.6296335965125608 -0.31141895687348303 -0.43497229084781214
Ni 8.443261079406355 4.561217537139321 2.3864647355277677 -1.9660881346529624 2.011989525170767 0.019997269057533303
Ni 8.452627125239179 3.4442347005451124 5.1129777532664615 -0.9600854016477789 -0.6060401254633369 0.7553258312067638
Ni 6.340972092536944 8.517122783506563 7.333424881980089 -0.10319199670915777 1.342703604373907 -0.5688378053814268
Ni 0.322776769720608 9.077092558688369 9.57716642398582 2.177961947541256 0.31421168912727176 1.5939448633162292
Ni 8.302676825022566 0.8690015685503478 13.235476558124843 0.3737900629115369 0.7930786244755051 -0.4922430995448232
Ni 2.4711951697372743 5.0495150734805385 2.7691018597139814 2.6374854453658707 0.17917349444179467 0.7531532490354771
Ni 6.864740837421852 1.7200588786609465 8.701748038020739 -1.3164888936517523 0.4601253930746721 -1.0364062849977054
Ni 6.284616753824561 6.383750875301849 8.270303616254347 0.6599286479516764 -1.0852060801092276 0.8790866532062085
Ni 5.112401381215211 6.431769403987213 6.1702312290430745 0.28348906323243434 0.5442760568816626 -0.38049961372122854
Ni 5.785540311589823 4.596623248859005 10.05447265758996 -1.084708314537203 -0.3890174213842526 -1.5493742757947058
Ni 3.6049826200335318 0.8662095325098739 11.862730495125975 -3.2938220050909144 -1.8936041085506228 0.9801248367971571
Ni 1.182732291206846 9.21104292046929 12.363947747836786 0.6613373553737449 -0.1202108998646575 -1.1529482206512078
Ni 0.8359359647854978 0.5892234637895205 2.0670825726284865 0.9720194340812034 -0.7791450451135485 -1.4827721623944399
Ni 0.6110703972710985 4.402340955479637 11.320498195553844 0.3952495183368935 1.192095837384947 0.046441579291990984
Ni 7.919829175330619 9.073705437218356 3.4915804832810466 1.8892602297596304 0.37992497216468113 0.34543388036634703
P 2.6382869244651084 2.870791292996408 4.713414378419331 -0.19643845216982944 0.19789009701469146 0.41514702859176883
P 5.313383064021453 3.107103834009185 8.1709505482511 -1.4315231344114765 1.0380749309493797 0.09752759933452881
P 7.335447798172953 6.049717072872479 6.354380228079838 0.5100762710715021 1.632006703184957 0.5555804261508883
P 5.1399942574999224 1.7379488683036624 2.177186476457824 -0.2285214487473032 -0.3825937772460959 0.14215012313991002
P 7.196014416553837 8.585632461416587 1.5548553038023072 0.5358340967618965 -0.08868583267318275 -0.8016275424867807
P 1.9882215895188098 1.0457222920759428 10.25286440884123 0.2738859929250316 0.627470527422971 1.7528716916938458
P 5.117893757742551 0.26950913842563884 5.679064931810404 0.5394344125186452 -0.012658055083642716 -1.0509286469835966
P 9.567869617652661 6.265014490068551 3.4545504503260194 0.19124508089434808 0.08249564470207083 -0.09272117908482096
