# total energy = -340887.7259560921 ev
CRYSTAL
PRIMVEC
9.08691805287204 0.00000000000000 0.00000000000000
0.00000000000000 9.08691805287204 0.00000000000000
0.00000000000000 0.00000000000000 13.29962309013557
PRIMCOORD
 96 1
Ni 6.082855455884833 2.3901501569630175 11.01430846882064 0.7101551482073962 -0.7017484122009399 1.430559742056943
Ni 4.699363137278062 0.6889810102235635 5.9287058913919015 0.660661926573275 -0.7667806100109246 -0.844682464694726
Ni 2.993930408717206 1.9499525990470246 4.769085240004521 -0.08187009530292996 -1.2327182388919997 -0.7192959341663999
Ni 3.343195180429509 4.39089862638864 4.757873800850117 0.2357997275762713 0.22617377445073308 -0.3145603307159421
Ni 3.618165312389502 3.084954064098675 2.6154902700953206 0.36863962905884895 -0.8710822948444934 0.30073448057644336
Ni 5.485208873630744 4.5961357513208405 2.3415178817073437 -2.187158783549175 0.6389312197644029 1.5946370042872473
Ni 5.621867030092949 3.0325498092733847 0.2988714517912677 -0.25723938550728603 -0.11179387944555585 -0.0804467325928421
Ni 5.934184394120212 7.9976598569668464 12.290766891613018 -0.49927815201473374 0.15351028534773564 -0.42687640121355513
Ni 2.1764712854151247 6.6616012491608405 0.425876575497984 0.23309415571965017 0.5838026542213752 -1.6255907723562844
Ni 0.9070706716608608 9.174243057770278 0.2140214483481206 -0.16648355767895198 0.15933537666994496 0.44931159028861967
Ni 8.543710920077881 9.057203556790613 7.099790598247912 -1.1351181344483225 1.2205597491525948 -0.5275386895223237
Ni 8.872575561378744 2.4629000206930804 1.271907694369193 0.6887111194010075 1.490590372887278 0.7159879528390896
Ni 6.949692890392156 1.02537688897877 4.713492385730957 0.965700433841711 1.1999644414997463 0.005168945795449163
Ni 1.119526444075845 7.490073716809765 2.379688388525293 -0.6791101059761337 1.0739569895579697 -0.13015155601713713
Ni 7.494290046658723 3.718566666917789 3.4321406577151667 1.6323419750371888 0.649936569735971 1.7305169781477294
Ni 7.548729771066268 3.9065659088252676 12.326356713782037 0.8723825017131557 -0.29994155236150283 0.710872228879079
Ni 8.66975555657547 7.589420988875814 9.022836833754502 -1.0188924444836582 -1.8230185850225766 0.08926741620826563
Ni 6.911645965655987 0.9021382926910034 0.1419294774651794 -0.014346498529659161 -0.05849182558830571 -1.204634850392222
Ni 1.9489802988447866 6.703228419501512 9.482058762730357 1.510583013959121 1.763829219146614 -2.0166594198426107
Ni 0.281738977012769 5.128656393860545 1.0147279300348204 -0.4897172477991759 -0.22032528608975605 0.7028033358280155
Ni 6.268882836634503 2.467179958966483 6.7722481034837365 0.35585250459650974 -0.036245869705911773 0.24754581236860593
Ni 3.6962491968552067 4.374414957539485 0.4859665453798427 -0.09805493259290855 0.8815423138355526 -0.8151093790232994
Ni 6.596638873966458 6.273508077783466 4.4667980158205305 -1.5520122276381851 -1.029843287068207 0.9932444048982508
Ni 5.238344578357871 3.085662843685353 9.030723369693963 -0.6711617976633344 1.2106394047150892 -0.7460102102327927
P 0.5112826983091401 5.948241855922661 12.217565408069394 0.04988145821147539 -0.4257836823700087 0.3515263664173301
P 4.1859522828253315 6.481380408871265 12.699012120546495 -0.3169504282146735 -0.8969249669392101 -0.3451420601575411
P 2.7736907825336514 8.753582373076823 1.3489411311397694 -1.0654291545926167 -1.3528684607220507 -0.37036509639038795
P 6.704173458950415 8.308923138531869 5.737869713754155 -0.5576357660180202 -0.24918566196487407 -0.4791412720555426
P 4.766379155890254 1.3539598358285172 12.443179946118589 0.6880691149416344 -1.5207411854390454 -0.08271701668425754
P 4.225643939679306 6.631559898987022 7.971008835815972 0.36533884682039014 -0.4270147265636324 1.6976284549498248
P 4.951970364586583 1.3194113744368485 3.450787012995468 -1.7156847982309031 0.26269860884964435 1.3492005249521604
P 0.5647773832677813 5.742859340306013 3.503612900805653 -0.8230075508244536 -0.18408892946554103 -0.2282229436702779
Ni 0.836140917561716 0.142745482681637 4.93267065991805 0.044913829793554905 1.1482389881009967 -0.7628280531210798
Ni 2.3740117909894236 6.5761387874594615 4.455652911165907 -0.6440248322372263 0.858345049783483 0.9121523254119258
Ni 6.591913676721938 6.190489996964348 8.860979745602334 -0.44768742442163545 -1.1019113086790506 0.2468529000666394
Ni 8.850812393300615 2.7822688329160123 10.28422551210397 -0.6906340474553331 -0.8987591919344715 0.1317430688739731
Ni 2.5888628749306686 5.651908380266767 6.712040003670766 0.8680015990366405 -1.1104491709467328 2.194905517374129
Ni 0.927147307799407 0.2318745157064087 9.080955851170328 0.721083365084126 0.6038171496700891 0.5579306715506197
Ni 1.7017525268607967 1.2814462319606803 11.577547436908619 -0.48050807049608213 0.907839556969185 -0.8025369416749275
Ni 4.482912755807902 7.084288316518773 1.6590349263867739 -0.16168870739346994 -1.1699342136862432 -0.9297517836612439
Ni 6.21263481558915 8.309104876887428 7.993697960815671 -1.187701564971993 -0.1951755262970058 -0.9032817623951733
Ni 5.391958923393684 3.081710034451956 4.64902979101436 -0.27125446883945536 0.4945486077495483 -0.38854639528510504
Ni 1.2008452712704907 7.538188946443876 6.696027945854284 0.19034005258157544 0.20759806833107472 0.4721666405099223
Ni 5.122649941209337 4.852904786971651 7.178710479149185 1.1554499040271393 -0.2579441248837945 -0.5622691510249735
Ni 1.0437233759723994 7.846935151784414 11.276883136239766 -0.9842391160758467 0.21671185770688484 1.1275598624850902
Ni 4.803735474875301 0.1953096672598186 10.228353689454623 1.1088872257762517 0.21561836753238994 0.42019487542832146
Ni 8.45721254974982 7.704370498766557 4.152594207662571 -0.12677209802194295 -0.38749224298897783 -0.033511501493884224
Ni 7.869834184584783 6.804520291972035 6.5151655691695884 0.4323160841718877 -1.8665453046606177 1.3503112415178358
Ni 2.538076091469849 5.38891480593808 2.2982278054133114 -0.1993412276389212 -0.5861382443330874 1.7609590966876707
Ni 2.607572838635415 5.375965948104537 11.465737457110148 0.8460274087583946 0.6057956135526987 0.6184840076536445
Ni 1.2340306949954707 3.3449762163139822 3.606139685402197 -0.6699150697404269 0.9984799422655772 -0.25320686730912517
Ni 1.8170473396271019 0.9642764538400063 2.7321817421240926 -1.1571085226764846 1.1820237978609256 -0.16276831361089386
Ni 1.5045482372442809 3.494555969856396 8.247640965037547 -0.26532499072889787 0.37317068415998317 -0.3077217105275539
Ni 3.6463529313366236 3.06772526799173 6.849930346183657 -0.1585859000984301 -0.6346883853276489 0.7116792981614065
Ni 4.445120264769514 6.952691573258871 5.854401256030036 0.6502759553532607 1.189038795726178 -0.9828795167241589
Ni 8.400392052884456 7.32451916181376 -0.001246725119131231 -0.8834457015058528 0.636386341855362 0.39092029483392027
P 0.5674198589576016 5.5939156710080535 8.145154162879226 -0.42226152814936313 1.250800550315007 -1.599855058153077
P 9.002282225740837 1.857529558327755 8.16764428437959 -1.2267782192584806 0.4128083531562633 -0.45410644057410177
P 2.046101276055243 3.2764881170217657 10.391780088307039 0.052553091506367555 0.06499234571098485 -0.381274287103724
P 4.399403981428777 6.154251368865986 3.6457059427908356 0.32219419311211606 -0.41743248219183593 0.39957745628828606
P 6.881095748086604 4.310424882547341 10.112301936437417 0.11415158104445501 -1.189200518115023 -1.0376488991555548
P 6.8991605406291185 8.04404857222315 10.258291448765775 -0.9450961273277982 -0.40048479859390385 -0.7650230038898695
P 2.8281305069411964 8.66909221157768 5.577981760684463 -0.6161309340404357 -0.13869713159430308 0.24634279319944025
P 7.237829966212361 4.268497843919998 1.3734649048388319 2.0226287500521685 -0.705523562972656 -0.6922684977349627
Ni 3.013957975499751 1.6639146012335193 0.47732579526481433 -0.757261871887212 0.9933994424188761 -0.5020397739202709
Ni 1.7185088032432894 1.1836982574235473 6.943201196331606 0.23765992071346168 1.02740973792605 -0.06787455235478633
Ni 6.887611068133377 1.227260941250917 8.973508500597038 1.6082101149859913 0.38733360592392646 0.5005541905136799
Ni 3.1158586714613956 1.6216786074017266 9.286873586244095 -0.4641034038858136 1.878876058311829 -0.5801455170847621
Ni 6.5527127134279715 1.9016192833862444 2.289277191402056 0.7633412453120725 0.6337795003601343 -0.11620126448463212
Ni 4.546075921282254 6.828527928741312 10.508111718391806 -0.21253818594516943 0.9872907584179771 -0.8790210900755958
Ni 7.321584087371491 5.9732127059763975 11.25481919118319 1.0519920552511042 2.3397051623217444 0.3766804970854545
Ni 7.866762806375846 3.8154150365949073 8.114113251749837 0.19510250696722528 0.5995966838308383 -0.20613331086009015
Ni 3.237387109823357 8.532252316759918 12.423057875391153 1.0854657615285177 0.5370833957879654 -0.15486345694152037
Ni 0.6084109450538188 5.014533793487593 10.255684412055286 -1.55969982609043 -0.5165302542269621 -0.28048704318131695
Ni 8.613707447721232 2.4013543265831983 5.7928237577079305 0.43968358028055243 0.8037998675477511 0.09087924078007574
Ni 3.6739135529570683 3.0855538006720176 11.725359784943226 -0.1856069087719642 -0.700523281544587 -0.40231182450031355
Ni 1.1425345198895498 3.689861093657326 12.383132684750287 -0.5432244756886966 -0.5826171185537062 1.0254644412742209
Ni 3.464596401942579 8.7342454120454 7.896876851891887 -0.6030525035899227 -1.6644949056206495 0.05540547335349813
Ni 6.041437284653054 8.548054466775728 3.310515898024759 0.3498078410643266 -1.8296687433492427 -0.1753939727947044
Ni 3.5087406485077364 8.394967162971035 3.4045836708618333 0.33296531558569104 0.4870746679700063 1.1931566745492936
Ni 3.5073503500877137 4.966318607757926 9.241561670744476 0.7166901211124367 -1.3641435194152378 -0.4583585309822364
Ni 5.160924038889955 4.8139855181288 11.473623993049609 0.01636095785652666 -0.8048087684282399 -0.592209904448464
Ni 8.269949348182351 0.14582322173301998 2.0188159880434693 0.28729918100714397 -1.2342909826957582 0.4785054382437565
Ni 4.82970588588461 0.3857332988304473 1.4065013031122542 0.0019188142892676632 0.7349482959916762 -0.795869556957081
Ni 6.114232582972007 5.583792844603447 0.1849687548285406 -0.12733234140078717 1.9437380490925362 -0.30025059896148937
Ni 8.204578061687963 0.43464908592079227 11.14956542256149 0.3794871132963142 -0.20625363848803835 0.03478239778650784
Ni 0.5932730487275745 5.303279692798919 5.710618956029937 -1.6211949572814337 -1.2115531747786101 -0.6329089248297229
Ni 7.337976887042867 6.480562586271252 2.294570321007697 1.0179249383640663 -0.8496387802587368 -0.729425566401234
P 8.775854408550515 1.7948479994956323 3.363169134397165 -0.49547471910824353 -1.2857202450103276 1.7993950320663654
P 1.8762031743613896 3.428312339255327 1.3363730151611222 0.23872769985634368 0.19779470908740773 -0.11983474747216137
P 4.934496221699634 1.1699770115788815 8.011227533901065 0.41550749725498115 1.3404271496349043 0.6395557407222792
P 8.61805099441908 2.0249923660571243 12.576415969345629 0.5333622381826363 -1.5496558115908667 -2.3660628263796672
P 6.41735398620801 7.964001913517414 1.1019378060248946 1.7294723389332989 0.3204463571830739 0.19804384898373634
P 1.5674569690208517 3.247855239103526 5.871690025794314 1.4385610150948644 0.2852636386343539 0.16711244951220253
P 6.977553380299272 4.386500558184124 5.778965299404819 0.1499058558259289 0.09572731290099643 0.28075855167514874
P 2.6630757324229775 8.840780436073786 10.201861689364863 0.5816580970745467 -1.406506814872797 0.584937796267083
