# total energy = -381165.36667680496 ev
CRYSTAL
PRIMVEC
9.29272785740725 0.00000000000000 0.00000000000000
0.00000000000000 9.29272785740725 0.00000000000000
0.00000000000000 0.00000000000000 13.60084654264752
PRIMCOORD
 96 1
Ni 1.3763273621316898 8.4608058400911 9.874282741043068 0.9890113406535096 -0.8703929820869526 -0.07861327892852912
Ni 3.6562517191022756 6.10066665482008 1.945519963401527 1.9493014021129267 2.6660234049045632 0.28644608897822926
Ni 7.7872503274784854 4.886237200317001 11.784032206463031 1.826384416171016 0.5599901251828098 -0.10973185471020455
Ni 0.1321128557671011 -0.25286163443403986 12.950577162732873 -0.13047962878051722 0.6716155973713014 -0.9138402546373101
Ni 0.594098970918913 5.963078523701424 10.90469666594837 -0.6819825424279222 1.2628729080985088 -1.165327053931535
Ni 3.114801628074343 5.904822411720954 6.317607249078572 0.1254209833106872 0.8567249976815567 0.2655005970748137
Ni 5.866768690463971 8.003733719518213 9.749018625829422 -0.00583100485948028 -0.8707328819248746 1.5582191277798454
Ni 7.727702526302723 7.716885790883155 6.942497674303959 1.277199094913194 -0.07699219838533837 2.016395881768579
Ni 3.5973637016161946 3.3510134817083492 4.910586006284656 0.08277229540222518 0.7884382974900164 0.31209901365964315
Ni 0.8538818291849921 4.076775540358017 5.284174116838377 0.2663845423416638 0.414859322148021 -0.4478902844610609
Ni 4.592187407463589 5.8942101163179075 4.505729724476844 0.28476510173138053 -0.36149684736648063 -0.8290365306273527
Ni 8.740377562683612 2.2802496024514145 12.070262168684513 0.34542462439496635 -0.4305317385779553 1.4943128160441876
Ni 6.940023020831252 7.331609287021244 2.955504755019561 1.053734748973824 -0.457547862155483 -2.0457504236712962
Ni 5.701135106169838 4.019448701179915 6.293587405682954 -2.8334580136428755 2.4326276587840945 -0.5116248465055446
Ni 0.7525046713562237 0.8716300104374249 1.9007187923265472 0.8628192835047527 0.6221542574163802 0.8869264609656015
Ni 4.608031508743969 0.9486295548416649 13.393555931985043 1.4787704974342144 -1.136807092114971 0.22297557922840955
Ni 0.7971450782363936 1.2487103281824468 8.818136322967387 -0.2288523497241607 -0.9159220768670032 -0.5640565819426996
Ni 0.809087163019629 5.411239162743014 7.446735965233854 0.384579440217557 -1.5159568766765248 0.6837964557082095
Ni 7.588116458658975 3.1350040187978307 5.781243997370803 2.0495302024287025 -2.5436599774732773 -1.013857453162912
Ni 5.425800867556125 1.0498366557476 3.8968469525450535 -1.1635689335898478 0.1819816533145511 0.6380840412727592
Ni 4.344898622025352 2.4506875271337902 11.699407978715358 0.34118564661295436 0.9245177889558143 -0.34152786044372146
Ni 4.656428036291311 5.936176076072861 8.91249932968388 0.6531923576691073 0.3616284878483385 -1.2086267451604344
Ni 6.562329383036667 3.0029822317653614 11.4570545611305 -0.40680302750244773 3.007007477029673 -1.0154404813793156
Ni 3.4966955789356327 5.780857419885018 13.1810293835378 -1.1052146620206706 -0.9125960978175638 0.2585179951093935
P 1.6414953562874937 8.974024623383082 5.944331374186445 0.81601055068133 0.4119195227934067 -1.0321361968674418
Ni 6.0632355463406835 -0.01691926991272023 8.072714568910815 0.2474774210245157 0.9364898737160258 -2.716253761815025
P 2.376401459312466 3.008743723140045 12.006963822478392 -1.4203324079019797 0.3037717247408704 1.2218566135871474
Ni 8.7759222473742 9.09100148374521 5.367845839963622 1.9165645740015378 -1.5859572171250622 -0.2974002739968878
P 5.362229315146108 8.491527598937397 11.981856729904003 0.6843896092075181 0.882464568539506 0.5980928455918022
P 8.477997386934913 4.502707729323542 8.724236094106475 0.50554110220531 -0.09247178207817622 -0.46366580212776276
P 8.258605371023775 1.4268054607563379 7.5389226150472 -0.5326767820798375 0.12595140189286047 -1.0471792072434933
Ni 9.210171427920923 5.180779507755668 3.3465288111641196 -0.44395752506555797 0.5141357858528565 0.11095312871181537
Ni 7.898093987344979 1.0051107557696122 0.6831158712033802 -0.001412821187126599 1.5599682492604683 1.125199846893346
Ni 0.9862465178815351 4.747738381852024 12.89803700775977 1.1786739075520862 -1.9257174441453995 -0.11255209776781906
Ni 6.301863509260848 7.521292451440669 5.2575300070488735 -0.4962388509677776 -0.575206427911932 -0.22399167919774973
Ni 4.092628934366421 8.332984366125336 6.280857297563312 1.3809865591145056 0.5287931307547151 0.49315481272581524
Ni 7.225049574773668 3.530177278004964 0.10713121502103323 0.8213425044172047 -0.11179336522492359 0.11968793748165192
Ni 6.612761018021196 5.969100211460772 0.29762470532412244 1.2080991547917388 0.6918424659411375 -0.2801718259337433
Ni 7.027198102421425 8.301119601732125 0.02508943639114261 -0.514556675440359 -0.44516671488231074 0.15919756554050002
Ni 4.850488075609891 3.7466792555007378 9.483162969799865 -0.09233782760347323 -0.4272870063884125 1.0622019059045706
Ni 5.9384063307985455 0.15680177558042296 1.8593308402546664 -1.0140130049041698 -1.1235839085564778 -0.743799318624403
Ni 1.9559241016968427 7.690977665153126 12.07687208612776 0.3776870839730979 -0.13842356621794225 0.9577287284901442
Ni 4.224241841365848 6.839531459983141 11.212469959547155 -2.7972252565630855 3.199208494079387 -1.8784690526813972
Ni 1.6089986863886732 5.397207143427251 1.6703334791633901 -2.3824281551115676 -1.5218701568371662 -1.1655265715368508
Ni 6.030961901914431 4.898996115893518 2.1693353178519397 -0.42137089801429367 -0.5577404099166846 -0.41094533180559556
Ni 2.6974187488906063 4.811486496094492 10.626423137460764 1.1476401781747332 -0.23874852579195013 0.8195003090021434
Ni 9.119307133305348 6.586825014107096 13.17636443406991 -0.9794013283675712 1.1913471321443805 0.7315942919177787
Ni 1.0323942052471464 7.6773266476863355 7.55064632072188 0.6519062918678321 0.9794596924093325 0.529324577778153
Ni 8.624320682395831 0.2910789077042399 10.707484533284156 0.1080333839618591 -0.39819703100099163 -0.3424632277737973
Ni 4.560136788509905 7.757225523233965 0.44135254184802536 0.29487339380997607 0.7431182333969782 -0.47452305655724075
Ni 1.7659249845246134 1.154305504189848 11.038774004419677 -0.663880690620889 0.2714259614203132 0.530504457018867
Ni 8.060372896822562 3.201577122359498 2.6402777642729776 -0.8320388077887864 -0.6389404757357835 0.15080702748395963
Ni 0.6317317315964233 3.584400346023156 10.772387733619967 1.2251219146019805 0.9607271489968358 -0.7291671705335249
Ni 6.803912433468363 1.0601144129417939 12.205168418495534 -0.6292535874653227 -3.075439444549826 0.8921136615934958
Ni 3.0539900158873596 7.775253415599909 4.392992206639123 -0.6020268905388858 0.3635100211417675 -0.32796040617193195
Ni 7.434805031724247 7.456336282555122 11.509294560988439 0.414897117364492 -0.19930034709865677 -0.24558508909780932
P 6.0065684908522625 6.3663364562891624 7.119240714950404 -0.5556089653959786 -0.6974950362412247 0.3784715275476062
Ni 2.419575473710499 2.9718330074299746 9.122958246145853 0.524870141551225 -1.086854157235612 0.2060461504629226
P 1.9074718177813579 7.2298632078899345 0.8068810693868066 0.19141863035773488 1.6532455579590755 -1.531847322654536
Ni 2.6908487901778626 8.607175599192136 2.2729055594942973 0.961947394557182 0.4497988143376834 -1.4020912023036047
P 5.61505656648646 3.155829022298905 4.025347724929349 0.6527125898192113 1.309228355434597 -0.010985552477226242
P 1.6554158628669713 2.804099266602491 3.181074576520845 0.7177046784198802 0.23636588449238646 -0.6455384406682753
P 4.5363381120412525 1.8007262509733075 8.61586429989428 -0.8811815880620243 -0.21884150245537795 2.132539553542398
Ni 1.1611635374713263 2.177295468677027 6.4660195497992135 0.07339959593807359 -0.49579662122403645 2.182558822883319
Ni 6.534125953484788 2.9303316840762053 8.060732525397079 1.3593774654851623 -0.5667832368452432 0.07142087494514796
Ni 3.1132869134064824 3.8491780456019655 7.12585063239365 0.04025807618909841 -0.8156811923663695 0.3900972847119927
Ni 3.5092686399516766 1.5749501309098974 1.8604738458015795 -0.30677914410862644 -1.0183586834673752 1.6199495149101069
Ni 5.567422042637059 5.514146832877283 11.878830112851032 1.9563886479770112 -2.945216154754489 -0.03836960091713392
Ni 0.3034465994309601 1.6938691714289729 4.4844707505770645 -0.8268860599432534 0.9772079202606784 -1.8392566441479936
Ni 4.038452329988347 9.733667968407099 10.540547179248302 -0.07376135015286651 -0.8585116572683343 -0.2654959690891234
Ni 6.797110156555027 0.5198770229209518 5.72383445291329 -1.0353644739967525 1.6693290937844993 1.1440478328377848
Ni 2.6931348012716883 3.41032896468352 0.8347769096411016 0.0483861046128715 0.21482723908966228 -1.8532025648051247
Ni 2.4065935326614127 0.9033377277270348 13.389884375142886 -1.6412817007289797 0.09086432838174029 0.10416953013107867
Ni 8.63410592500477 7.668693703352333 9.166508616028844 -1.0337745038018131 0.19527579932029596 0.6714713584839533
Ni 9.018731937905024 8.163317737868926 1.4603364112841943 -0.6161908407440936 -0.7122565108211152 -0.3950302032372358
Ni 6.861462298119034 5.0881217166315205 4.217786183207795 0.5563399300247321 -0.5527223878768028 0.9612423980703574
Ni 2.7573475519153403 0.6730118880232294 7.536990656891077 -0.6069099296627999 1.5450949316930616 -0.22079476952700683
Ni 5.579353905419469 2.517334972519647 1.3940327968352137 0.126158375697344 0.35465205653050536 0.7846451489961712
Ni 6.257704465692305 1.3483562507804032 9.922170956367516 -0.1843722650339147 -0.3529895812264179 0.07259406931764271
Ni 7.192785223075439 5.886227662945563 9.636676048932706 -0.8557950296681198 -0.32416005858923524 0.05728366421281748
Ni 2.6602943004359916 1.3305327984309787 4.5515642469080575 0.3823932311995157 -1.7619209463803076 -0.15201570308008014
Ni 7.776257030226468 0.6758879873465594 3.2381440071326915 0.5008647797755632 -0.35975415364376107 -0.11257009548994806
Ni 8.009839041829771 5.32053284450384 6.263271739051293 0.21487840404257189 0.9285287098874201 0.7470713045074553
Ni 0.3140997828373106 2.817471502228571 0.7524312588048365 -0.01586550627734687 0.5760320091370208 -0.13927228737148273
Ni 2.177323346861098 5.666956452498732 3.789046661106315 1.7721526514106447 -1.5497748536672342 0.5174062290740121
Ni 4.757978968134124 1.6969264789487648 6.647618040838033 0.13064237961062664 0.19937773730381145 -2.8897386905124747
Ni 8.391742285419085 2.474356105410112 9.609637927474997 -1.5759522833935504 0.3571385703977849 -0.26649201445380555
Ni 3.5795402492667696 8.23266007438165 8.537700376668672 0.8757038527769048 -1.2502346505092081 1.196182862970127
P 5.100713363103611 8.04744671214162 3.579579278724469 -2.060959527311567 0.9121392127858033 -0.6106053762365161
Ni 3.894823925654298 4.126473049828675 2.7381227561799437 -0.30397638455250875 -2.4224985407698925 0.7473173590799904
P 2.7170635759326727 6.613355752614713 9.586394026869359 -1.88882391355316 0.8673133147203643 -0.12148668125328756
Ni 1.126548125583106 6.702779674386616 5.371124314410377 -1.6276882783152613 0.49339778197455675 1.8860617774269905
P 8.469234344408582 6.941305417298521 4.438187389382307 -1.4116469643128398 -0.1744038409672932 0.983423562153087
P 5.045337996810483 4.219846381010646 -0.06183288299678648 0.0811491579765054 -0.6757833555957459 0.5981581516120988
P 8.59419365814305 4.92942980017108 1.2391732014117407 -0.2725459339573693 -0.18008829294658016 -0.8891941739538557
Ni 0.7484186588442101 8.01937338078207 3.4404290400250326 0.03823950309717285 0.7242131689623592 0.5437502662851796
