# total energy = -340892.5002845495 ev
CRYSTAL
PRIMVEC
9.08014564778894 0.00000000000000 0.00000000000000

0.00000000000000 9.08014564778894 0.00000000000000

0.00000000000000 0.00000000000000 13.28971099072970

PRIMCOORD
 96 1
Ni 6.359978979680482 2.1353233053231544 11.53048524857297 0.9480187002912317 0.31814701962593595 0.25175316558173416
Ni 4.250951775343091 0.674602136000151 6.048984908840611 0.8544166612633544 0.20066431732571893 -0.5548288926968444
Ni 2.6768904155074886 1.8644898094314628 4.452039766648546 0.2542967579391943 -0.7035486986344721 1.9456704902285586
Ni 3.476279173271154 4.167632361446213 4.5494397619676 -0.5746081322063008 0.8628437089847849 0.7077095148803813
Ni 4.958912549396244 4.734632958806349 2.746505166000426 1.0477250524446342 -0.5383069837824214 -0.3478067514738978
Ni 7.257124582476163 6.133229589550489 2.737109031573607 -0.13382720509651147 -1.020969638727661 0.004245662650231398
Ni 4.964115472692114 4.454819199145694 11.742881652919749 1.4540729946875344 -1.043271901769287 -1.0166013344566363
Ni 5.706771482196441 7.912465914121688 12.561355060217899 -0.19755379672119525 -0.49169956833652745 -0.25724221372076345
Ni 2.075339865022068 6.484930860089695 0.412745271819276 -1.5876330621655883 -0.762752719798454 -1.6362765342049046
Ni 2.8248150636977707 1.307050605143843 0.28022509024582615 -0.5727044874256847 1.6992261384542477 0.375569780519779
Ni 0.5945225179705802 -0.06930148547774054 4.588791295963489 0.24329012241604553 -0.0004499430532250315 0.0793460433294956
Ni 8.835571652524514 2.5816850913238842 1.4109955692441596 0.055722490373284674 -0.3546263454988925 0.7884069300314487
Ni 6.868993768720494 0.6982223181459604 4.865243585808907 0.54415470081245 0.3809755249163826 0.0012279588698301432
Ni 1.1051081721592582 7.207964675453747 2.6942761698436213 -0.4822985867376016 0.7559529232678014 -0.6211235021590207
Ni 7.743148443444369 3.6934490100378947 4.02478896260387 -1.0037512179668455 0.7646069993983735 -0.821176925373618
Ni 7.6353761980714365 3.8597881930345053 12.94969290128796 0.32620717092625107 0.14577923525206507 -0.8658313308581992
Ni 8.055750608028916 8.835253847436634 6.932683724360804 0.11477944443644103 1.6078283061665404 0.8349935195417361
Ni 6.970173828556251 0.5988401270930698 0.4440109363649515 0.16734693412051177 0.17631159951296732 -0.2269247936841447
Ni 2.189177647500833 6.571809690970832 9.344035276740689 -0.9944800770775647 -0.49594034589075225 -0.9775719884683164
Ni 0.15990499198883704 5.058231179431559 1.472141268152352 -0.13995131571637834 -0.048000953359310886 -0.5045800238436213
Ni 6.490397107601238 2.032890185426612 7.002334795435212 -0.13202974687645647 -0.5638197833415451 0.9838578214770282
Ni 3.7424999553158953 4.209628033773268 0.6116976129341747 -0.28060479970610386 0.18315613323862648 -1.0085185574485018
Ni 6.008786197281885 5.739015078398252 4.887517182396639 -0.01541479189317345 -0.05272895496259951 0.2795182515101444
Ni 4.906011622482207 2.9038032482541065 9.606108248381322 1.347350616227615 -0.13508061788763834 -1.1371320795545576
P 0.042295317124199504 5.6445634062801915 12.395352750614444 -0.03535703934305524 -0.5707954433284299 1.1660775589443144
P 4.004353187438623 6.001930687529036 12.719888042241632 -0.18434166890629541 1.8705546829303268 -0.36689307868138754
P 2.3465910476006875 8.442473999252543 1.2132481634195962 0.10306009911698379 0.6983864377072423 1.2961311559310065
P 6.3282711120553845 8.011457658923753 6.004849046250316 -0.05062219303224185 -0.4445190539959828 -0.35280291913690853
P 4.923282058972164 0.9957287410561867 12.633571272358772 -0.8787565235602994 -0.3924166768737887 0.17496099902234383
P 4.008711657215269 6.208331471889315 8.090762740553432 -0.8114393863708799 1.4833419188549808 1.5693604891086457
P 4.686344745739262 1.0989699938904822 3.7892154872052433 0.9361893117564716 -0.9466742704481955 -0.060503970922328065
P 0.027199575449879693 5.463786792148442 3.7888168688235875 0.389834003748277 1.3055087404911645 -0.38400916953638387
Ni 1.6219046457796564 1.2399483308742354 2.5755596252586233 -0.6812508064682203 -0.7750989000686329 -1.554483571996813
Ni 1.78178784541961 6.456192199999936 4.849162648362157 1.0054928832483008 -0.13938181636615352 -0.865169271794168
Ni 5.739005998252884 5.339697525549191 9.115292794702418 -0.06716981297827786 0.7114766952322973 0.4470091674076882
Ni 8.658263653923346 2.4526653057898025 10.419810947303123 -0.5612808189697753 0.13013201563311136 -0.05806656512542903
Ni 2.25391000382939 5.351510794672975 6.872681215754445 0.7682330261867351 -0.14726661843086897 0.44276581875030196
Ni 0.5925176218733231 9.042771489677179 9.221490542868537 0.26521571884454326 0.319258764632876 -0.42639611914302694
Ni 1.3941110389323415 0.8917183999092205 11.537701240096931 0.11834813562430586 0.6080728396226496 -0.6966542855074841
Ni 4.026318059083843 6.758933326714822 1.6460106157026544 1.2945262733377318 1.4663160737209455 0.27258630027700154
Ni 5.789573327807341 8.015325800850526 8.176866127020142 -1.3838535962496552 0.1707862988193639 0.48257678009965277
Ni 5.5204287389541005 2.8033041993209507 4.939386604796871 -1.2004768623597908 0.2222821527058107 -0.6392088989058217
Ni 0.7984280783837294 7.405276234300646 6.795985767903532 0.3064904092236141 1.336875427727904 0.2183763898935013
Ni 4.839445076789311 4.793299778029074 6.86943778782899 0.5569382257303633 -0.90289146893529 -1.1049935471488002
Ni 8.058483731784687 7.395424276576353 9.018676415928622 0.20754227539247483 -0.3177914360587301 1.7395592908556559
Ni 4.638301696597111 0.2994295976991713 10.464596948301766 -0.26218901620307744 0.30462893053484313 -0.3727654783017645
Ni 8.14762351886246 7.19452606030909 4.989210270445689 0.09273891969663384 -0.27797738938558575 -1.0218281300732144
Ni 7.250505156502883 6.372164534764354 7.198252551968121 -0.18919668300575157 -1.7778345322867706 -1.3564515500876186
Ni 2.4493873733119504 5.201688396100779 2.397277327059467 -0.29593834473938063 -1.0345332363447086 1.4130101632089536
Ni 2.511649930100408 4.842532326214434 11.37971306679528 0.05676250160202482 1.3920556724444737 -0.16032088051166582
Ni 1.0674891298995848 3.55407785878428 3.6513343878065188 0.2556363026862243 -0.4925655158812485 0.0230396554282829
Ni 3.9500085174110717 2.591754972537009 2.4514594624849306 -0.7652274065911918 -0.01230941349497235 0.12561638715094495
Ni 1.0399399688530369 3.5290075774231995 8.070123570131942 -0.9636291531349791 -0.5982838785566856 -0.21090939209249485
Ni 3.500523161403746 2.858293559669631 6.930783249935279 0.6302969411281725 -0.7241720313117785 0.7038765142875362
Ni 4.238711739387011 7.33290747571759 6.174518826567913 0.17951442272098117 -1.4738854014277711 -0.9251862757777485
Ni 1.0393225189680118 7.282794153431533 11.452407802597047 -0.34237812425915876 0.2922251575538516 -0.5398758709314379
P 0.37566740622353617 5.8445082072838135 8.05747220359069 -0.7301179644825684 -1.3753319319318895 1.0303099422919804
P 8.635018481781236 1.675713587230495 8.22948012134055 -0.8811795311794952 -0.02673278800915396 -0.7766857849397785
P 1.558243746604525 3.246188289645732 10.184862185905812 1.5166359050214202 -0.06439636399819877 1.03344463126622
P 4.052114752074366 6.272346496733799 3.9336079588473685 -0.8766847286329353 0.0946289376304951 0.36515527005467435
P 6.91610156288974 4.026626784026356 10.404660724756594 -0.3203818224937257 -0.6275569164891901 0.10544891106413454
P 6.386447603428238 7.9501575975443055 10.372884756041236 -0.12668930850014953 -0.2544286555313683 -0.19219973149813352
P 2.434632137088931 8.554323229895713 5.772133092599001 -1.259826407962701 0.22985430862611383 0.8161025961745041
P 6.880652675373022 3.889416707370328 1.8567853060867046 0.5988353801847817 0.3150449836618445 -0.10294517080567432
Ni 5.495521900209644 2.6466898520134814 0.6523239993397336 0.23327567560283696 0.17368007542739122 -0.7946392840944058
Ni 1.2804820997970405 1.0900805315751985 6.892296145778423 0.7097792529252163 0.20020203297731973 0.23921852344983321
Ni 6.7266080092047 0.9962281490514273 9.397766128941363 0.428653547718636 -0.0446124965030522 -1.1326146513001782
Ni 2.611531529148539 1.5339997584719332 9.288909714211488 0.37885899279401203 0.30201000485475726 -0.4336098632826468
Ni 6.616138960657467 1.8277969419993267 2.714250673624174 0.10431042658431712 -0.2047487718077377 -0.342668658916384
Ni 4.18358617685781 6.95716198024389 10.628193927397236 0.8940800412912474 -0.8229106202352731 -0.09150453306890048
Ni 7.975954290534827 7.184746743747741 0.3489027697367843 -0.6023392795729821 -1.7284981479454877 -0.599474042210045
Ni 7.6381002416818395 3.9657171688977324 8.17147070464247 0.3572452711789783 -0.14177268519583325 0.3493306443175919
Ni 3.308505327306398 8.42330581238067 12.434504521412238 -0.5035520967997393 -0.9307442294815004 -0.3242356490221771
Ni -0.004215003479831132 5.130445575543357 10.173060720971007 0.3459671271619977 -0.5042709772436348 -0.13106609741160655
Ni 8.568706180158646 2.2917832901593673 5.774485758263853 0.8682494533813886 0.2461939263264018 0.30807318032970166
Ni 3.612690197134797 2.4474714626392995 11.4140541765771 -0.8427685355014647 0.025970713032148825 0.9648756239475705
Ni 1.2136703901792087 3.2364543738112235 12.462093635098404 -1.0005396530080832 -0.11310437072686326 0.9634288641987149
Ni 3.1387066089245748 8.588446416188702 8.020805668580122 0.1872454728166517 -0.2849975294571608 0.16811440841415562
Ni 5.787684657570795 7.95351725133047 3.847982188027016 -1.2391801924672594 -0.06236622094204744 -1.2510386344677422
Ni 3.1952214336950813 8.417349237019254 3.769918362269144 0.19510610651165108 0.010189024717859872 -0.8114406719224606
Ni 3.143909532220446 4.27342513512892 8.989106922537692 0.5162736581314656 0.33560943807675747 0.09750651628860627
Ni 7.0369492175926105 6.0138619985426045 11.348455574380436 0.08794175541830661 0.18623220106078897 0.5609211216375113
Ni 0.4338302773783365 -0.37591438617754613 0.05538707071579908 1.1863224252362794 1.1828367806805242 0.9094382689148723
Ni 4.566604868771289 0.25306546743556574 1.5287686867254215 0.7241576331340754 -0.6850485829477556 0.6497175117466294
Ni 6.015814229796726 5.468009059744568 0.5665229817137787 -0.25937674356526297 0.7928261421450669 -0.3732236488851056
Ni 8.092743120258197 9.03523496902173 11.179251605520218 0.2186954637958169 -0.1806804180046243 0.757275755844283
Ni 8.999749760923539 4.879325075245619 6.021753552881943 0.036578056234349905 -0.30302841881694265 -0.18699607581000696
Ni 8.094686271366951 8.42252491987902 2.3402912427443607 -0.17519394096875635 1.3873968335162234 1.1952608653764898
P 8.719382112395435 1.599649209482659 3.5651910487001897 -0.4769005556504819 -0.24671766004035572 0.014468111709187985
P 2.024091524565008 3.179276698428852 1.3220355690446735 -1.009596621004029 -0.18869968876467502 0.9731075249390596
P 4.762654287412034 1.19936916122459 8.14010697452682 -0.39587455351540213 0.08963714084285854 0.9378368746622237
P 8.669286950400114 1.6365327599675237 12.71983446938396 -0.603571095097554 -0.2966600533967536 -0.8708902334383453
P 6.112299854477222 7.605802164607821 1.477310594910361 0.8020875128423347 0.49010265616305265 0.5034019443751201
P 1.777719940294741 3.3678259169956197 5.893414778250463 -1.0217363416903564 -0.1888002188982813 -0.8761720506625749
P 6.7722902205511675 4.060223321888 6.10230261442704 1.4209391882480433 0.6265122772747597 0.6899092534741667
P 2.4672661795415656 8.53141402313222 10.226471952054727 0.7780350998788214 0.4193806070571422 0.4039470461108914
