# total energy = -381168.0380484276 ev
CRYSTAL
PRIMVEC
9.24224069313827 0.00000000000000 0.00000000000000

0.00000000000000 9.24224069313827 0.00000000000000

0.00000000000000 0.00000000000000 13.52695347441117

PRIMCOORD
 96 1
Ni 1.543555880547863 6.856467254582027 2.711694711912798 -0.5339803313826094 -2.1031171345162227 -1.1206577360486183
Ni 3.072823256797644 2.8839857924907784 4.336781944023379 2.3154033523515865 0.0931515817540202 1.3952795786984098
Ni 4.783793087446064 8.512907864429227 6.457659018123538 -1.132337743489708 0.29627053126781877 -0.22558062095142442
Ni 4.318658834011665 4.175856971198168 10.519573947673274 0.6844392314985309 -2.1078340803759184 -0.47109294782976935
Ni 0.4176383778924552 0.26637894051028055 11.771953031383442 0.17502399104979532 -0.6916612031682668 -0.7360875518024419
Ni 4.906483834248807 3.197316240559071 2.4301307697455 -1.7097756318353199 1.0407861592329557 1.902958038961697
Ni 6.712593291834133 0.6060470022255622 5.159207363956748 1.01022217040317 -0.953945350188312 0.5402810767896566
Ni 8.533906235558105 5.658589664950638 0.6351757725983083 -1.4385005941705742 -0.06973783081577023 -1.2145287124671662
Ni 0.7803732242307339 1.7833735451834618 8.619360918346265 1.8087291649830977 0.4087850909294831 -0.8707102562170552
Ni 2.1922595210252807 4.457643651369078 3.099512075595556 -0.2518554954875533 1.681901274022555 -0.08488214265637639
Ni 3.591091152670383 2.4149605556737845 6.592807381319156 0.6842962781627634 0.1495505293690392 -0.9386241464502093
Ni 6.1404708587395795 1.9766472850809351 1.1302179173060534 0.9316376878300472 -0.6906227346014235 -1.6347289872121264
Ni 4.9348297868246265 5.216690404922047 3.4025429705009884 -1.058383560599745 0.7031499205341568 -0.24344927370172914
Ni 9.087830696490352 0.9692522786212616 5.176426582816875 0.624383403857215 0.017840884836162824 -0.12088401467228212
Ni 9.235133530580153 7.889269181038743 4.1289941891519675 -1.1579127637453348 1.3822407432365809 0.4680168800076069
Ni 7.853178230660988 7.125305555372851 8.918293803674873 -1.340648264506775 -1.141399339471344 0.01612621613790126
Ni 9.102812368849465 4.543762851271748 12.009418545731936 1.0763794829565332 -2.1816728207339398 1.6345063296783593
Ni 5.287901870392113 4.108185283959774 5.688787762585536 -1.568035599649635 -0.4335561272265759 0.6442829709946194
Ni 8.046267125742185 2.415607512530748 9.666252640923569 2.5746098888875726 0.01241122918015927 0.30763840678512827
Ni 8.115131062045556 1.7187425551727966 7.476306452773972 0.037629894537631964 -0.25149862636876685 -1.6880431252542347
Ni 5.543061654778563 6.093132101291471 10.115537375586438 1.8737971011270242 0.9577384986821571 0.20141019435280796
Ni 2.877497739439515 8.35123334587402 11.751460210827078 0.05886617820858894 0.9205400352549887 0.16590094570260458
Ni 3.5695105203702395 2.6605361363363595 0.12667969793796421 0.489537270577886 -0.568240281006744 0.9657731960611755
Ni 7.120619739280271 8.414672086819708 11.772236768176423 1.3180420970714848 0.7840882480514367 -1.5407518242330174
P 2.5213664741626722 1.5187774329261567 12.208792164566495 0.46788472530511677 -1.0985897005049854 -1.649484034034114
Ni 9.191306824641275 5.182715927690643 9.54754067879115 -0.9037581878109596 -1.9635196025948376 1.1258446795661967
P 6.8100712056969215 4.94914601784515 4.44574149364911 1.7625963751807774 0.9095177160025563 0.08475667282210564
Ni 8.441511554142885 0.5743997212310649 0.6369188592157845 -0.19242521724537828 0.16990646731757192 0.5100119934924701
P 9.278840087388451 0.8258792453254733 2.9767547846589544 -1.8889041319717923 -1.4876518590842445 -0.45366652482320574
P 9.085640285417488 3.785603352836901 7.7956101610802016 -0.19977471563191398 -0.5650677968160333 -0.3545340428954023
P 2.210956574191529 0.6393791437204089 6.6109471273643345 -1.2380221676034162 0.19899927091847017 -0.4933288764098342
Ni 6.083741984624685 4.71798833285205 1.2668884775636984 0.5001402429047128 -0.1441404140970614 -0.16269066629542303
Ni 4.549354406964077 6.570179603134814 5.372865790193064 -0.09568514680915134 -2.0811282889499574 0.395408412512261
Ni 2.439461736071078 5.328179555858505 9.551395617434574 0.3253206545562397 -0.19101291027888395 -0.7144046675123696
Ni 8.435078954536504 9.25961622649582 9.157031050359343 1.7022039901356492 0.7665821208468733 1.0610922177801598
Ni 7.416214327226947 3.1230086244163933 5.611683444372613 0.7923330045587322 0.3941624559203018 0.38874719844200145
Ni 6.4929421966541705 6.931976362030495 0.7403940631426266 0.6482360421050966 2.360903907886547 -0.9278231991799634
Ni 2.2864471971583695 8.242812618887731 8.053934488721286 -3.0448160632370143 -1.124504106377902 0.38602979951083843
Ni 3.3890557684814597 0.3122851506322559 4.749989591669714 0.21879830792226837 1.74681391553554 1.8143277421167978
Ni 0.09695387880864882 5.650539673201847 4.736814777389692 -0.2368777911317985 -0.0496603433396048 0.5273610262938789
Ni 8.711856340186353 7.828797199394272 13.005841163897506 2.141962646628511 -1.513049730332059 1.5082011439905059
Ni 3.8557149916501294 0.531162670256105 8.059697025868669 0.7320223805941328 0.8675074330090414 0.9583573632130785
Ni 2.224376307853117 9.04389308366171 3.000291999339372 -1.033620494722452 -1.7903349787466263 -2.3457174299540955
Ni 1.4816698360588867 6.585530965126479 11.416938228796901 -1.3185714872123937 -0.2961494323089222 0.328802185346937
Ni 3.5143897961569395 6.39536261814243 7.435523216735067 -2.023438390437657 -1.3698210294159894 0.1712367560932212
Ni 6.946209412883694 6.618904696704987 2.958182501743692 0.351200350536479 -0.4860552255665565 1.147181750481076
Ni 5.175534706578347 2.2748204582146516 12.068274983682162 1.6714096304626118 0.8133466306959218 0.7011172063748441
Ni 3.4776611311630337 4.841501639087218 0.8925601643486317 0.788143649067733 1.3611726097123718 0.8865564792206926
Ni 8.987349054363088 8.266426544166904 6.956898988608896 -0.3179837545751943 -0.02586504069221997 -0.5221632841430233
Ni 2.098339869875791 0.5642896340048863 10.063647738761631 -0.7171452063719843 -0.008470499364856379 -0.06180931999731291
Ni 4.214239997297738 6.880367689326426 13.283224840544738 -0.34959058284719796 -0.6125483588955 -1.2629675246948442
Ni 8.79568346436721 7.74920302150612 1.8135448403200007 0.09849561967475295 0.057958064572022766 -0.07537831693099922
Ni 0.35197225691064826 3.307659353634623 4.178963288335674 -0.4962208532456487 -0.3299656095274188 -0.19734116648975691
Ni 5.554411126497867 6.688600434681596 7.920491318955807 2.555884030343295 0.32272666857681837 -0.7415704292938841
Ni 6.197273670780985 5.590696163932712 12.41230538306154 -1.2373706500623465 -0.39031634270133425 0.13742700663262783
Ni 0.6127568690563563 2.2711235618891457 12.80376234117676 -1.2109438233293854 2.076912708206714 -1.8569831148934794
P 6.063113303128358 2.3365031734057258 9.639604487985235 -2.6345836983380435 -0.12834792714949508 0.12544309479787427
Ni 8.115325149102643 6.296757150900361 11.418994627377964 -0.7516604665400345 2.2763953465195055 -1.5668312949288887
P 0.6853574433207318 7.184640741397228 9.39836536671248 1.0493013957928186 1.0587304024162025 -0.49220144767361035
Ni 5.158390349868811 8.302462041099778 4.043044122256188 0.7449678850112073 0.19206372014090148 -1.1994728465753084
P 3.7333662077574963 6.148095707410936 11.175766575882086 -0.48660621297402007 0.6760630916196937 0.9531462513257843
P 6.685827762437467 8.692392181032561 7.178889294938822 2.5466938792035947 -0.004663724024256484 1.17128327151497
P 1.2745604616632056 5.652499028254366 0.10929319451910773 1.7240090018258825 0.37107934884859317 -0.2775757830717929
Ni 1.8473206093739083 7.492980379426087 5.606340504958174 -0.1559417776073637 0.5719629812739698 0.8064874416822433
Ni 6.174325186840404 9.00718290314943 9.278935282468833 -0.4476444869988419 0.40735324357896296 0.43223226620882976
Ni 2.4283433203721176 5.171976443865048 5.621883181334685 0.37789020112283955 -1.1700910509790818 -0.5739995520880243
Ni 6.202985375603892 4.286893252334751 8.053068490757035 0.22268967255687455 -0.9527019646995141 1.0885009488104156
Ni 6.860496871576829 7.317599617744065 5.520431103921975 0.7140367426499895 -0.36340717701531605 -0.7048625323498894
Ni 7.009943905535424 9.127248853561063 2.7649096860702995 0.09132661273013948 -0.018524026946116483 -0.7622606106533839
Ni 0.9724870629060796 5.661491728566159 7.563515312868586 0.38954578308389687 1.167066662330461 -1.694612036721004
Ni 3.102176613622165 2.5151556883358213 8.829056271721639 -0.7422929092822054 1.5766606223144848 1.3694693025035254
Ni 1.2743294056428613 2.7831529452125925 6.105728351296552 -0.25100291767927096 -0.10340334138901547 1.721362822452287
Ni 3.8493193610070033 9.139596487288255 0.490641913856311 0.907379843723947 0.7556960700619888 -0.889978617528364
Ni 7.444809820304739 2.1878047609530458 3.438443530717981 0.01688572001174511 0.5734961300890447 -0.9613683821252603
Ni 4.568162367020091 7.364975344155429 1.950843872952982 -0.9291786847665933 -0.22534716478437966 1.3162803771853717
Ni 4.250811544197809 1.1615278565108482 10.399873989997866 0.627140654887378 0.11775626767657785 -0.6617307341574217
Ni 8.850647070486676 4.762748505113119 2.582498351801245 -0.17351578193538503 -0.13747354359984712 1.1721782725254135
Ni 4.2354139710020755 1.1373871235052915 2.3646467209077247 -0.3499304826851199 -1.3405716456325687 1.1033686099508675
Ni 1.173182322177007 3.272825348007539 10.605618285425352 0.39265218992336254 -1.230713806867461 -1.3855029589276204
Ni 8.3838492137058 2.8635419558107285 0.944039445681308 0.26963621650974207 1.1255004088529004 1.1419043041322205
Ni 7.141063575960321 4.259074107485316 10.638381104886072 -1.437192416882112 -0.15969096023715076 0.3769743741767895
Ni 7.756559845193878 5.595261830894713 6.870285328822688 0.8167086051896193 -0.4989241111094246 -0.14203519482860055
Ni 4.1189987057118795 7.96789292364145 9.518552390478774 -0.9259167261858698 -0.6661424900718721 1.1352777999546384
Ni 1.5202007380114766 3.6003703624474044 1.1354212988842034 -1.0848957479576606 0.18382899093593505 -0.6637174255701473
Ni 1.7185022569116386 1.1474981349555515 0.7101756325779375 0.6247132763928079 -1.8264450942056223 1.9055988190186537
Ni 2.4530293455856866 4.35656126358892 12.195482413570591 0.24616307308846636 0.429871222175821 0.6178029224262199
Ni 5.869312755504501 1.5286481461152586 7.232875996204272 -0.678447275581154 0.9890547922969354 0.5112121844481583
Ni 1.7600830983327715 1.9249461899687283 2.922173807309178 0.2636108362512686 1.791608189032095 -0.9281900956010788
P 4.093462394343445 4.216818582484779 7.8596468750065425 -0.6990868062083767 0.934234759133262 -0.23937330386014258
Ni 7.6540541523284 1.6901193353725634 11.915257672097209 -0.5497165111709436 0.43970003534078467 0.5307237721185247
P 3.139672384603613 7.184862555176759 3.9325559059998607 1.4436818812611976 0.06249091944536979 -0.39042175793094697
Ni 5.108861181347839 8.799472783100853 11.854440954870384 -1.4409719385292021 0.36158914996997077 0.4827202476560525
P 6.242190961135888 9.147932988502271 0.44900561899029545 -0.33758507374588953 -0.5279606075510908 -0.3164084396682745
P 7.025480112343364 3.6881254389741116 13.1167083120272 -0.23375672900431352 -0.2854464440691213 -1.4427218313407735
P 5.257957010155511 1.8825797580784256 4.495588595254075 -1.7504990776966112 1.3095476864472286 -0.6988006424265256
Ni 1.8567939062080183 7.971922540636252 0.3617828955344608 -1.131657943813864 -1.5057236289842906 0.3653491312330353
