# total energy = -340860.58016839664 ev
CRYSTAL
PRIMVEC
9.36075810014585 0.00000000000000 0.00000000000000
0.00000000000000 9.36075810014585 0.00000000000000
0.00000000000000 0.00000000000000 13.70041567949283
PRIMCOORD
 96 1
Ni 5.232064626353092 4.543637040939893 13.119805312034469 -0.5962750756567731 0.07159185330537347 0.9680154551281328
Ni 6.852374390911494 7.00634949904352 12.696668160510097 -0.36104973252673306 -2.2686390996128543 0.5771866915667543
Ni 3.1023611336453447 7.794253859587063 4.286243342489098 1.044733573916478 0.20082372572171864 0.25136647166627674
Ni 2.593603937039131 5.276359733148687 1.5014421792575001 0.044945968583070976 -0.5952995991173813 -1.1175896386462558
Ni 3.401072281775996 7.6187958118743335 9.591606448185434 1.3825338489969674 -0.1531801557018265 -0.033672709662096845
Ni 9.284102740077373 8.579808669875812 7.373193860260058 1.772828851542063 1.5348696544206277 -0.12678983863375584
Ni 3.378690709428517 5.177379078191666 5.230845855663154 -0.47344576433266206 0.8363975989781144 0.7864024980069101
Ni 2.6718973168443636 5.433330283836628 9.754175668225539 -1.1137499531851915 -0.8377728820590862 2.2720188147183644
Ni 6.519767938109066 8.096849722282418 10.677445950022486 -0.2002349430977842 -0.6671868721759865 -0.8711033778904159
Ni 7.149213387444697 2.9375275462481265 12.785926732221576 0.7619963012484038 -0.33507336306762936 2.1744868445084613
Ni 8.616559005733695 8.26143056921398 0.007430569690267015 1.8242997657278452 -0.7310031953009991 -1.8194918028162408
Ni 4.788916982479408 4.308635211670363 3.605812652624394 0.15558953647426751 -1.5411971393005524 -0.8917711906524126
Ni 3.429763005006871 7.451490984368486 13.854956184865152 -1.2335541045297336 -0.0235998988071271 0.18997264193982766
Ni 1.863155909021235 3.332448564971577 0.06263751207158193 1.062994319898879 -0.7336468035714333 4.068084525301181
Ni 8.875215470436968 3.2332994163707856 6.5058756371802104 0.6202295295898415 -1.1181552813417388 -0.6163826450399256
Ni 6.015400936998866 0.5864964195386013 7.415322887657407 -0.16810952331814918 -1.6945143348008753 -0.9628277402796064
Ni 7.784359538394556 9.098797174962073 8.993994128536992 -0.166609541733855 0.20229105429586455 0.6505135252853635
Ni 8.950447882380374 5.090146174508625 12.785309858270217 0.447262678179391 0.6867645371975979 0.38978155324378677
Ni 6.582943693764913 0.8200145686671553 1.5782060112076182 -0.29131832946886604 0.4150007328218917 -0.17890764237491769
Ni 0.9642048764751247 8.579724423053927 5.315816264140681 0.29204723721509057 -0.38007872413372606 -0.7902961766343615
Ni 9.369650707322712 6.5167163310052265 6.322083706631446 0.34527164375686986 -0.9604265870372816 -0.7557307799546662
Ni 6.924882822280615 4.348203135682404 9.245930505081228 1.562999065666992 1.0962960193748021 -1.733243890160589
Ni 3.384728398330284 2.927052858060411 11.690153594008468 3.0000341310356333 -1.12396031805929 -0.3706252920303101
Ni 9.429185128121524 4.021409713590049 1.4508875335958409 -1.3084444260807209 1.4654745516562568 -0.18945842130757048
P 2.267933805905244 6.925294695632053 6.179668198537856 -0.8351518994964714 -1.3968410096482589 -0.20441787083088023
P 1.0734449221861553 6.845597202128736 0.16549164868372088 0.07286429225989385 -0.3104481083197815 -1.318680244876116
P 2.5856660142659567 0.39964820150700425 8.976772205992077 -1.133079763862055 -0.5566723736634865 0.8007878201943047
P 8.224062423328938 2.1758613903428023 0.8963440614466656 0.22006406200856937 -0.020335369123242394 0.31971179300989455
P 3.386048265206484 7.118893892324044 2.208438700289977 0.12287970494607223 -0.4588185013377904 1.7618291579974494
P 7.178409591606884 5.1836601468011 0.350488308785443 0.03633765808876968 -0.4267686719910973 0.059090892624885316
P 2.2005363483971534 0.29799036976563387 3.7004414911931494 -0.35138135619903355 1.8711830605429451 -0.09694781557165884
P 5.704408474388963 6.013856411930971 4.4382770294145715 0.14616670049847086 1.0089664436191979 1.0515266855789116
Ni 5.3412578682741865 6.005796799303962 9.48929149123336 -0.3025741048883434 0.9936552671834242 0.5652133212549622
Ni 3.07587018854147 8.7774423532603 6.754634036387781 -0.3664444211797431 0.01950953078783737 1.8290187684700694
Ni 5.975149677653755 3.6962169811135106 11.151165829482482 -0.5848730044674186 -0.6217025145909422 -1.1554463044827132
Ni 3.70027955007997 0.4170236404829095 11.318104651351026 -0.4923055773516425 -0.05275775131800591 0.7121166428091413
Ni 0.31088013351405624 1.4561127087043153 4.669443756136732 0.5019225316161162 0.3128351204947193 -1.0332214595118205
Ni 5.093179060096489 8.392986661966578 2.3232886482627575 -2.041410915755678 0.45008369256795383 0.5318231758302905
Ni 1.1836959297598073 2.1980744690465106 2.1377443838187817 1.0691397706749846 0.6348187402579261 3.325819383933117
Ni 7.780671399747585 2.8468124405938338 3.01859919902397 0.07841890352953593 -1.7184384497166403 1.0593847481707495
Ni 7.319878727067963 8.03813904818648 6.470487291609469 -0.7804606786011785 -0.6330169111624969 0.44013969398136454
Ni 8.818863707353815 9.354804545154957 1.970393688598796 -2.1961177925146758 0.9334955669743923 3.455126332561772
Ni 2.259359351588937 5.430128904604994 12.468817014267014 -0.522502669760313 0.6941842267004368 0.35606513482794805
Ni 7.340275818722148 5.079587239499023 2.6183416121719967 -0.9272709262209193 1.5942171431410093 -0.5575478342899043
Ni 4.5317020745061685 3.7105295800759928 9.361576117482922 -0.8597203328644547 -0.37646221042706135 -1.2861534758930042
Ni 0.7298611084920966 0.8887815050687785 0.5434968416484395 0.1775231033225652 -0.021927653311026755 -1.18456379067396
Ni 4.711466070893026 2.2265686163596534 13.7826181192914 -0.15430501333488908 -1.3659381494218152 -3.1292739738717787
Ni 4.637450557487961 1.280991648279126 3.143779679511463 -0.2941951367960288 0.5863984399730094 0.9785248392998889
Ni 9.197057051554077 4.64605309407823 3.8813418835996574 0.9217978189214898 -0.9500149047856542 0.693944856996121
Ni 1.3212335468662486 6.337785442079233 3.3924968913838898 0.738133121477561 -0.04728695801142179 0.8696103382846572
Ni 0.8707948085963069 4.783993223778122 7.977957799010748 0.26353370315643 -0.21839310206404972 0.4277482622955472
Ni 2.5223872902722486 2.9049240261785876 5.050356400532285 0.07245754373977845 -0.013412416751163996 -1.056852211556883
Ni 5.270387569552832 5.038858581496565 6.9218611696023356 1.6301596226738893 0.06633137623738254 -0.45921676521747357
Ni 6.818235706532048 2.071142590739606 8.977484559674906 -0.7988708056772499 -0.14928493441247837 1.6270092499703657
Ni 5.33674598292434 5.795881801440221 1.3354478578698648 -0.7501807966707145 1.0536046511538628 1.2903304900888295
Ni 1.3028583789373067 7.856662033087958 9.209734326096187 -1.8049912952072207 1.083771147434914 -0.9313039586397122
P 2.2726609886887976 0.6476530596966028 13.055359301519752 1.981605513562271 -0.5835026064824531 -2.7679645599257556
P 4.0591522897945795 4.98579244446693 11.389018009559123 1.4597785297127441 1.2058247569352654 -1.6244093504536734
P 1.9584765076052475 4.1988709635120465 3.263562746943516 -0.39717861703880625 -0.7045516859776898 1.5790278369950805
P 5.536298621696211 1.5247364255087341 10.838658796230241 0.46961173529855244 0.2982888472494282 -0.08320166963015994
P 5.726031825339474 2.3704621881394274 4.67525304254361 0.6165171137352609 0.8117355774550601 0.041486806389876944
P 5.785734739782058 7.599624979516477 8.055556610573328 0.2865497044356291 0.6323497098921432 0.1548732271335333
P 1.5038432136812259 3.4067074580843113 11.922129090220727 -5.8062261098737045 0.937741743845256 -5.875569790574849
P 8.838633628222855 8.798195153718 10.98926777579006 0.09097180049388202 0.08494230647035049 0.2193888903184157
Ni 5.785463277800429 3.069514233868138 1.7045650111257038 0.7926777894926607 1.9113035827129148 1.1311066992960843
Ni 8.048997527451672 7.1317930168304535 4.222427310986923 -0.5851105743995213 -0.15059182614935998 0.5204761262485875
Ni 6.195464477641314 2.8197504892527383 6.76959439980298 0.22108453285328378 0.7379418314023614 -0.3708222385324646
Ni 0.4996210968106723 6.23295431338019 10.566363707139569 -1.024120782762133 -0.6123609254750421 0.5314812191098395
Ni 4.279242431590445 7.293837098347477 11.742516738113261 0.7967722712770084 -0.7058344093448553 -0.3061960179116469
Ni 8.733746334975887 3.719047869844376 10.85330463817707 0.5353838965983554 0.10339305697637032 0.5421623529727695
Ni 1.570810076321904 1.5561792115878559 6.661525384916153 -0.6624935804653751 -0.6198472065497582 1.404257356716988
Ni 9.241370879865645 2.300144174139319 9.127395226688874 0.7851776244608736 0.6472145428191176 0.652973813900398
Ni 1.1860735622885648 0.9271437634520645 10.808668799790738 0.22895956472598633 0.45586353247452455 -0.4304756885290392
Ni 1.819693909686504 8.095352001004459 11.685879471911498 -0.2424465434688276 -0.5732279640293224 0.8721405609056786
Ni 3.4071474137097115 5.843181711549719 7.808278147203538 -0.7417933439379676 0.6103071282698069 -2.0140194111166023
Ni 7.3141031393898395 4.729794435032033 5.212774912368797 -0.7532476085214963 -0.18899485140759062 0.5894562529627267
Ni 2.096135814565523 3.0284766708521005 9.407979266977243 0.2054583962802526 -0.3100051072450919 0.14365961780590095
Ni 6.7308623914791985 -0.07094237655785668 12.739084563177654 0.2299954621896684 1.7143352261815443 -0.5808777672650963
Ni 8.157179807510145 6.6205645801156106 8.443538499400841 -0.20259213047605112 1.5207010762297295 1.9539743821085638
Ni 4.358162982180822 0.8970526708262994 5.653640403445194 0.05107573562989268 1.253163908340861 -1.1459409360954393
Ni 7.419729932517797 0.9638678891875843 5.520418095770868 0.31447856963541326 0.3611322649382103 -0.7148008745095238
Ni 4.748909102841966 9.371054821020799 9.221132921097244 1.7007052941029357 0.31530260819860534 0.5383149542022213
Ni 5.565270167666703 8.397395578978566 4.921668444026976 0.1562410540153374 -0.9916078977360923 -1.0623294326213704
Ni 1.3781095123966873 8.247295824653255 2.0672007755511816 1.606303384881582 0.3083986819899205 -0.8108979120451132
Ni 7.050700770387038 7.86816640465427 1.6418030009728917 1.1363237247206495 -2.3226055265269805 -0.3863445025377798
Ni 3.2472563065297533 1.054582994841877 1.337796472048862 -1.6259952068835544 -3.649444395954489 -0.13499885680710944
Ni 3.786248751434735 1.7134961103213244 7.8791362769395095 0.5569397683922601 1.0263054491182777 -0.5757016223807957
Ni 8.704297390348048 1.1428455819035144 12.509999669031853 0.08642968964915437 0.38022501990360325 -1.570973085011404
P 8.480331894745467 1.3211399392863763 7.570164801979051 -0.8992029643401095 -1.310748134513233 -2.2294755420395154
P 7.619507229481364 6.003353641469294 10.700558597568767 0.1487581153747309 -0.530048600428371 0.279363471099835
P 7.960426035376456 4.917430828886155 7.381290915919016 -0.414699399531389 -1.0812357826075703 -1.5623472910156062
P 2.7676765925697504 3.529558045908781 7.168536800157747 -0.4825086458658787 1.1193883824178914 0.3084380198682881
P 3.393387099468476 3.0325486005765474 1.6726560592988176 1.193133277510526 2.2120406343925194 0.8201363999242456
P 4.873482070136087 8.993479286847693 13.49540291804487 -0.650964496779853 0.4046224749113612 0.6503232636514285
P 8.892972828338753 6.842845139280489 2.2903397162234893 0.037832754577057426 -0.23679525872032123 -0.3158867628368495
P 7.266962362166124 9.157264469350341 3.6189373713982955 -0.46072266033903875 0.20857045954667308 0.019057787962399434
