# total energy = -381171.91134129727 ev
CRYSTAL
PRIMVEC
9.20141702633393 0.00000000000000 0.00000000000000
0.00000000000000 9.20141702633393 0.00000000000000
0.00000000000000 0.00000000000000 13.46720391152283
PRIMCOORD
 96 1
Ni 4.571576768491728 3.280645580430758 7.604229440961917 0.5844114914499677 0.11502781300182124 0.5501034621967171
Ni 8.574183922424698 6.8333126489378575 9.18070083882171 -0.4207551188071657 2.107480553691241 -2.4516612783767777
Ni 7.387964858786444 8.179360324282841 0.059408948271991946 1.1197910171729488 0.07698757039964806 0.7286004993967775
Ni 0.600263633465758 3.458619386281741 10.807161694463908 -0.5864310929831578 0.6332958758554964 0.5112232401917518
Ni 5.552825069068432 7.236334709545501 7.364944753963883 1.183038355168369 -0.665994394529782 -0.4832997743086064
Ni 7.780331678613639 8.445621725374242 11.130954034636204 -0.238778350588621 -0.05011080061346209 -0.8432117936864704
Ni 1.7030258457407395 4.244540008717371 2.0599166026758615 0.5231899256353248 1.0061480003337964 0.46327473733693114
Ni 1.4280138971690217 0.4613194777170458 3.1257240843615186 1.1539694628268709 -1.2190055172915972 -0.4497970145654705
Ni 5.066392164182062 4.6109128257770635 11.638506031611767 0.29957696993323246 0.1074371451387569 -0.33793140134171473
Ni 2.842897372409114 8.855747279835517 11.176095265849332 0.38197002761916793 0.4988276947408764 -2.2983672228049064
Ni 1.2560118108918832 1.6527309009169637 0.4190371267374969 1.9789948154123014 -1.9411414920099535 1.2123916115195055
Ni 4.614243738698067 6.266072900757964 13.374226351913034 1.1143032545855003 -1.9405686502256192 -0.03988809444418937
Ni 2.4679488347903735 3.9844067512872643 6.693106058789251 -0.42233454747914356 -0.10593896332667561 0.2141250708163151
Ni 2.783833477271204 2.2136768799312043 2.313073345805678 -1.9160516389208617 0.7751325815200457 0.9375221716352822
Ni 3.121976347254544 3.4792489629913828 10.00218677789343 -0.8048751028898008 0.5493827819806086 -1.958557887714188
Ni 5.985402080787303 1.014962292130732 12.974613416270119 0.3398288754747438 0.9310260223879772 1.5574853349376143
Ni 0.3693089891953064 8.676347254363662 12.757132406779297 0.4559301240464019 -0.1595724323814155 -0.04051750049807216
Ni 4.357726638113138 2.268462116206499 11.374346234142347 2.0962422617732606 1.239773088856252 0.44934064375434224
Ni 0.8528728922894978 8.053199697045594 5.0391854146659725 -0.7267328500604194 0.7429053460552237 0.15980228900403445
Ni 3.4004756328347154 1.5738655565912079 4.7030843390947075 -0.6574894423825645 0.8875191002442779 0.342762504181771
Ni 9.129553842792175 9.040373710111599 8.39591291080756 -0.5743996157399205 -0.1669039330458222 0.06428940610668928
Ni 3.314672420159687 8.012805476815743 13.053033412017488 0.4243826882574239 0.6549353085021431 2.61545443370776
Ni 6.038613874771184 0.7653287715353143 10.643939600201193 0.5816064179010049 0.3817203735022071 -1.256748797478642
Ni 4.013924896730856 1.1311393820218758 9.403514989552903 0.5582641436306385 0.4843672963411722 -1.3571861142607982
P 5.892145720416106 4.946056033848118 8.109492125410558 -0.11351189057792709 1.0970436961741044 0.12324583003623937
Ni 8.678923651098142 4.761622833327122 2.3246008809090855 -0.6290206455189102 -0.47999539252572176 0.9443566780586123
P 5.0926346052061024 7.540643969554998 5.0065406277567535 0.41504675556847875 -0.3913905496021195 0.3674630922522446
Ni 4.902229685111264 2.4982491006712175 2.659086187671157 1.2489118179327263 -0.44629877160422493 -0.41388307427768073
P 0.575204494656195 8.438637849940424 10.553560522897394 1.3090568628537391 0.08222953552487773 -0.46874398798161854
P 3.60379934226958 1.042437723020559 12.769346367584106 0.2809066472172388 -1.6954121640247963 3.045183988099394
P 5.881113221542393 4.340832836668489 3.003536628945514 0.2078317816084356 0.46190279669006906 0.15282817167904647
Ni 0.4316062622349864 2.063537360229494 7.365213435337622 -0.2259889121334366 -0.26997534501671566 -0.5936530646528937
Ni 1.809440232291593 0.9533588059259791 9.618613752206024 -2.4396686247912758 0.9622515560611621 -1.1150869268290604
Ni 3.8921809496098576 0.4661244576268474 1.4927854312154916 0.39737273532748335 -0.6831295115481719 -0.7382534491055093
Ni 3.1444922144305 7.373702662577727 6.8361273623702745 0.39097274533841053 0.8070451139579263 0.7142226334085505
Ni 6.62993373100154 6.3198367797563755 3.550197408208764 -2.7018172746747213 0.3496083234590108 0.2581762954992586
Ni 7.327318319940212 8.78801564996947 3.4649904473494284 0.1735980572365462 -0.16083792935740043 0.15361827168050962
Ni 8.919807544354933 1.6357634881370435 12.212989135182308 -1.9770204652947498 0.639153620187854 -0.8042048162956538
Ni 6.903068590523852 6.014414148300908 1.2830041673939954 -1.034637880243373 -1.468515909585742 -1.1876519426809804
Ni 1.6886348296952973 6.910457328301659 11.860175526079498 -1.0114946093576904 -0.4805155266952499 -0.4071922925210664
Ni 2.056452269209679 1.9107018253734906 11.676267726464 -0.3644235340949724 0.8103055298767529 0.08546166930893025
Ni 3.3094644181892776 3.3163378766201888 0.16807216111536866 -0.38444779973569915 -0.7888956967424091 -0.7757840990611156
Ni 7.510187279586703 2.8299141731507262 1.3512050695223938 0.7955273431263138 -0.17155171623047874 0.2096276971665938
Ni 8.989278242016752 0.30201902734088415 1.5794609382134797 -1.7302596107212844 -0.23015384214440363 -0.07009932792024702
Ni 5.735675625881106 3.4669742728349764 0.11636755922115705 -0.4756941940472066 0.3151840803428701 -0.38072278547562816
Ni 5.8569226964890255 1.6667262560353249 6.140048454490969 -0.23436659467417054 0.9442839158391478 -2.3626080350618475
Ni 2.428621978921947 4.722737645470321 11.786806188073399 0.34474379627785784 -0.6769298104953632 0.13041098032611087
Ni 7.295444611767955 8.676844130876741 6.6946813413640465 0.14277978630410895 0.9797543408316158 -0.9124760272999318
Ni 2.245053711590384 5.6759216244750315 0.36596059358217575 0.104480119392962 0.45224367633375023 -0.21985503132155684
Ni 7.478479196918804 5.728544527776747 6.8136777453960615 -0.3799758800072746 -1.0025260873104929 1.2368728844903214
Ni 8.666188890096292 6.079652194184657 11.190478920761246 -0.14711980844035955 0.566586547453405 1.8829304308868602
Ni 7.001542154282368 2.0204839305129836 3.7567977422048706 1.1790670292254468 0.21471102522677216 -0.013148878677132193
Ni 1.966554426010212 0.31297147388748864 7.302685206733528 0.46900444073185676 -2.008386124090225 -0.6996591337720789
Ni 8.659278625997745 7.087639812298479 2.626764370495439 1.6186565071302963 0.6584793170996595 -0.15687097428985244
Ni 9.035763800240264 6.1971082810261295 0.43041283846190853 0.4522457332162792 -0.21591147329277652 -1.5046941592785117
Ni 0.27710435077679024 2.4478529402614444 2.8233185975104624 -0.2817237438018954 0.03203080318329967 0.3607185744395594
P 0.777175595805459 3.566459992453466 8.737979264960833 0.18199656571288658 1.293631015216972 -0.13705856754961554
Ni 1.302423757780124 5.592630398616119 9.787734874849 0.8904547858338342 -1.4136380266009396 1.112591414100716
P 6.77150673156111 0.820674374100358 1.7318686071832217 -0.5965833509258113 -0.7363464618907835 0.06145836441579738
Ni 5.265704055844668 0.4474538625770993 4.164760043550875 0.22225155657819143 -0.9906635315449519 -0.44852483272126625
P 8.99138536648888 7.268199216300849 6.901120650564248 0.6718454539939204 0.7501414587923468 -0.8993212350855286
P 0.5707813735481108 3.511435519338541 0.39480703559142144 -1.8444417878933588 2.210696204549483 -0.22926578311249546
P 3.0911147949422597 1.934404675330689 6.963460250121709 0.5569929902276988 0.05488533918396998 -1.0517429153547757
Ni 5.576261077935274 7.872299840617598 1.402689757552484 0.22816920761420703 1.6932190130282192 0.8620754633601927
Ni 3.5172876204925703 5.6696094524755605 8.638174256175608 0.7304223830968646 -0.2647076688598731 -0.47491900644407886
Ni 8.323390103157074 6.171325910847532 4.835682277601386 2.908762282802829 0.015305520008818801 0.22577885300515954
Ni 4.354404926609043 3.733162062591107 4.974677041143097 0.2732319042808004 -1.1908218557685297 -1.2309598614399961
Ni 6.876366078654368 4.0644958840618965 4.989531808600745 -0.1824105133218536 0.44272930908541175 -0.09723217958129705
Ni 7.998000397009402 4.634827308323166 9.267146310396976 0.5301211055375192 -1.1456046358019432 -0.2544368830614844
Ni 6.226175557041188 1.4262472251225224 8.359497383249094 -0.409462833722798 -1.3150177084228643 0.6449704839799473
Ni 1.359417334113543 7.745899976540721 1.183847858500843 0.21537077029795812 0.7530529760121869 0.8456314588715567
Ni 5.949930618603685 3.412483481900765 9.670933928891436 -0.31059337564839407 -0.5934445481865135 0.8514197834185594
Ni 8.075641952886281 4.389738367539029 12.465203653220659 0.03669709831071744 -2.7217492377119576 1.4566597815781044
Ni 7.205417948731764 3.104539662212272 7.269232535419713 1.467194362560841 1.9222510828633543 0.12142574610836505
Ni 3.9244043116246514 5.89450128314477 3.827149935606558 0.02480806018261534 0.5650102041052204 0.6280968481530601
Ni 4.49249059016016 7.965657416574793 9.126966404357407 -0.8177792125459787 0.7053124754031144 1.8882191900896255
Ni 1.0936804137859462 1.300960732491617 5.186866315769638 -1.12341241597562 0.7085764908663668 0.241903526481164
Ni 3.2568415148875625 8.470318328357596 4.2896407536961005 -0.8447259163381516 -1.1873788915252517 -0.022692813611825433
Ni 3.473534883090987 7.186232994476811 1.8051974589549222 -0.5496200948023954 -0.16381500970785334 1.588784145050896
Ni 4.598426503031753 0.13268627210900305 7.157118791235518 -1.5047813196756792 0.08734988747057859 -0.4087840624882186
Ni 3.9977672086389147 4.842190439781016 1.7734148448100624 1.3792700906440312 -0.7862551737957685 0.34967028704519776
Ni 3.9040967845068186 6.527080292794411 10.980646129005061 -0.5294297358974495 0.2684828196315892 -0.3345213472189013
Ni 4.626923291198462 5.550156658164866 6.1654204414754314 0.014655288019329598 0.037166581747968254 0.6466432436966799
Ni 1.993404160550237 7.686155176551557 9.025625679090092 0.2422637380340602 -0.020802795677964173 -0.07369373013972469
Ni 0.10909843986316531 3.7978204192095983 5.701569653966761 -0.6863963552249017 0.43239296015641016 -0.11867183751231175
Ni 2.0147054406942257 6.130011548926794 5.437800916715967 -0.20388796646933918 -2.0475211424184736 -0.7292705288806085
Ni 1.964162057613911 3.7344226567076193 4.281560989508439 0.41930913038925854 -0.17785966072637754 0.09997580376470523
Ni 8.34512384989578 1.9337513747301607 9.356636530827384 -0.2399122070827481 0.5449010920601712 1.305979509479996
P 6.847878491904567 8.60682134820039 8.852114560439903 -0.5693204014448001 -0.6566155244180434 1.2182784093175858
Ni 5.63527896598864 8.12134539067254 12.052500781883214 -1.5359495177483677 -1.6516458175721231 -0.5030610160959337
P 6.973809083719092 2.6433370424899687 11.55561506738839 -0.6609360061702683 -0.1856310771416803 0.06346459621254875
Ni 6.205049103818468 6.299777690895081 9.95521262443206 -0.0014405891012684868 0.2700054269237027 0.1146128369515897
P 6.72796562674843 6.0679939989611436 12.44026229254753 -0.7021451334187263 1.0301906431052967 -0.15392963227334133
P 7.971077051134105 1.506741220241145 5.7608930290615 0.9431271765268855 0.5405124760741724 -0.47778527224828043
P 1.4985979662768125 6.302942978311727 3.381722225032788 -0.16972546165501737 0.11320387241920504 -1.119483256124543
Ni 0.9827389301159382 5.632730173504888 7.556663636393306 -0.30067225987994023 -0.33461622092555277 -0.6920216718314791
