# total energy = -340869.3112034998 ev
CRYSTAL
PRIMVEC
9.25291591531279 0.00000000000000 0.00000000000000
0.00000000000000 9.25291591531279 0.00000000000000
0.00000000000000 0.00000000000000 13.54257774113242
PRIMCOORD
 96 1
Ni 0.13925823496231143 2.842569789524509 4.55843144034872 0.40953071084625603 -0.9272030490974612 -0.0763126558198105
Ni 2.6342866524896773 7.339718242538916 8.050155275186938 -0.6343749678522881 0.4822715901544081 0.07274833550731986
Ni 4.786255810484567 0.9994352057104985 1.4722814154843236 0.24753218552185116 -0.3277776007371645 -1.037077085812485
Ni 1.6776091711789103 5.877156089921823 2.236881316677309 -1.9019038866655695 0.8706760605450101 -1.4873716088396642
Ni 8.769256738288957 4.312275193220716 9.028876903351183 -0.11732020858042376 1.5921625746048256 -0.7439852093829639
Ni 4.896263727686128 3.972480362419733 7.855426734662205 -0.5870340166744793 -0.05845428748215094 -0.35134201832066586
Ni 7.517216928355849 6.648534677307244 7.5945426212872755 -0.5477683863056373 -1.0643068680627155 -0.566813061641914
Ni 3.265279999755485 6.429851262794529 3.9282273668096583 -1.723300148684316 -0.4666112579093319 1.074643216991717
Ni 4.668493949754122 8.076703741503259 0.27068480190213146 -1.178733300035112 -0.6822432522884766 -0.4376590936513559
Ni 6.7914829751327055 2.408802344786353 1.7723988175905467 0.9021867295587818 -0.5806335124647742 0.382350036666406
Ni 4.726741055379812 2.234347868302358 3.6927091970983126 0.3146590610773355 0.7375800771875684 1.598197467944996
Ni 4.772394942457994 4.619370219211345 3.7899712226399225 0.5958734693429804 0.27235053011711163 -1.2626219684299675
Ni 7.337534554385196 4.172158287662367 6.667227418019717 -1.426815187412846 0.9271446850556999 0.5883547923684318
Ni 1.3261556663368834 6.416554822638196 11.75582410630262 -1.0273436605748048 -1.3832442448004307 -0.005520415597596945
Ni 2.429547382246686 5.1210078021170045 13.382273905439522 -0.21290251126312368 1.6240707361673319 0.5522341353864747
Ni 7.1765060588802125 9.16541107987089 11.24850523303093 1.4132816717027854 -0.4278307947070245 -0.28713283063260875
Ni 0.7231792231416113 3.560642328377826 0.683240862218313 -0.4363460312668872 0.33248683328737577 -0.7985201072060506
Ni 3.7754857827897212 1.3229911690971716 7.190485364230378 0.4036788800511693 0.7474253454127645 -1.9344226852288815
Ni 5.380783416166445 5.2938615241493325 12.299789153018402 -1.2866237306612036 1.5256252530042242 -0.33002397356918006
Ni 3.0288679983676596 5.36039924242643 9.76135438168632 -0.07359217156485391 0.03758310046009656 0.5698911863466056
Ni 4.953955658357482 3.271359165505458 0.3425892114044718 0.34755478336409174 -0.30033673091739244 0.9625598313302003
Ni 6.68706381913812 7.358714478893092 12.630214481173386 1.256772965848358 -1.0047333793744568 0.5637220814214162
Ni 7.799578910130836 1.6887126702656186 12.844200190280832 -1.8672582715672421 1.1336713746994669 0.13381692068386633
Ni 2.210975002724838 1.457482301784923 10.693950224061199 -0.058544790313428206 0.924583352086427 0.25369203447565986
P 3.527183784463212 6.509444845414414 11.790452218787701 0.8816294742327204 -1.4463697125060058 0.4984001202851545
P 2.9932257662993265 9.581209361920388 12.375505763873845 -1.508723592152879 -3.2053351758024156 0.6860816521979604
P 0.396631792042661 2.6057969244163655 12.261680093569638 1.5187362391938746 -0.1943707710075233 0.5108368033866105
P 1.8519063480925102 5.586623783402201 5.29804569272184 -1.051777882357769 -0.6915383044371575 0.04513185934163195
P 6.634007599335468 5.146666137923205 8.924531770683844 0.1162799402413675 -1.7331639288522733 -0.9396937253653043
P 5.584680671062027 3.0567192752434855 6.019960042259157 -0.7236261861106376 -1.5509786441673483 -0.8557369227366747
P 3.4720919231613285 3.024926256191878 9.581766387457906 0.6897254195981347 0.7664224553405574 1.417593411704262
P 3.3455397923205736 7.149607832342662 1.8449870175783099 -0.6962272252723946 2.523998751598924 0.6707460502821545
Ni 3.3682464479528917 3.874371695072762 5.617258337382428 0.7516900342263892 -1.4498162762937095 -0.3520575563304517
Ni 2.834325441452629 1.7201170668491912 2.6492264105108427 -1.3211788429282538 1.8423815629302205 -0.2397142321393291
Ni 3.5297746009167774 3.6643952744272066 12.187033119792881 0.16115468926687082 -0.43278479627819016 -3.276217918855906
Ni 2.4933739961634465 7.802271508659362 10.450089625369374 0.36018352787169583 2.537201109221811 -0.8317685848465354
Ni 2.057061999551253 2.5481882699881617 8.276519535192884 -0.719902200291831 0.9306498699954812 1.3442935745688462
Ni 0.7503457842404236 0.4722697531129069 3.136636709920067 -0.4116007060014073 -0.9484575876008633 0.38843018142221486
Ni 2.218960269151362 9.239008772983953 1.3377208859272804 1.1021892449307857 -2.466292140916075 -2.015570557653806
Ni 9.073705430330586 7.35164525114122 9.439663806146216 0.23305738894444378 1.2899016300815271 -0.13251671381520402
Ni 6.245255590478007 1.6827352865906071 10.266032472758557 0.16602384443371407 1.204294179223352 -0.8037229915632287
Ni 9.210944679042298 5.233958146576542 4.214816080570317 -1.191614012652522 0.47878028917169796 0.4282280301454432
Ni 3.0845520462875005 8.779601498271406 3.5076499536949206 1.1175410447965075 0.046803847727416165 0.39437148660731436
Ni 6.628048721492267 6.765399005194847 10.201420286281413 0.6107115627970773 0.6111147117727669 -0.13211459328077893
Ni 9.244828857088569 0.9977511750156811 9.267253298785766 -0.35530974471916227 -0.44153066079162023 -0.2613431232630144
Ni 0.2585616314826274 7.7560161820473175 6.9067955890229396 1.1979193860452595 0.23257504999138656 -0.23520271742222074
Ni 8.029883987020972 5.229128124473824 11.329733805891333 0.7475659847556868 0.11271561992887685 -0.25175856489837284
Ni 4.931202738145636 6.514136073778548 8.235755814170806 0.09107927260602379 0.4862071777633884 0.1279702320951022
Ni 1.0600880694716415 1.6898045143424782 6.6402237082408435 -1.6732245721841634 -1.3933538224306066 -2.286777718195094
Ni 0.2995742559425647 4.183308051328602 6.503633088934114 1.4397396087839978 0.2912735922738597 0.7332796500400016
Ni 7.229173656214831 8.192735306959358 5.581437524037119 0.07074338926214914 -0.839640017174812 0.5309957948329886
Ni 1.227686135269594 3.7260196943584365 10.657642707339255 0.9430631560581694 1.13665308303561 0.005578008308409748
Ni 7.551443464290627 1.7779848029227512 5.959532949646111 0.8620309832755025 0.06171136096686792 1.2603527127798166
Ni 7.7982927548199585 9.03785963411233 7.6934026254057795 -1.2566480102347197 0.8972671807699772 1.1239353783586257
Ni 2.31199833858207 9.033936397768361 5.9941342286750645 0.7384539951520895 -0.07301238780198394 -0.03420415668553464
Ni 6.712426061635343 6.521436624428059 1.4492046432157821 0.4679155785430522 0.6032036844558064 -0.03681202662202692
P 4.046698000898471 7.651532255641395 6.389726918261529 0.682401889353528 0.5723008242293628 -0.8319349352210705
P 6.1661431594852125 4.4275665254043695 1.9562662854252981 0.6229656975740819 -0.27051939044564377 1.1324827537080044
P 2.705034447503819 3.710826406441458 1.4115295455229913 1.5346835065517506 -0.17578040959984564 0.7819282642856403
P 6.090981723584104 3.2657981630461985 11.96317454941417 1.0293743178515886 -0.7570975783952058 0.5304946868268541
P 7.036194842087846 6.018003975836716 5.1300636309138055 1.1116277646358663 -0.4183853330234085 -0.14323024357796624
P 8.738389010827909 7.40846740771745 11.493626078869095 -1.6677596924148506 0.3309122897114043 1.6846076172101245
P 2.5092612527733444 1.9661521007788307 4.804242553713444 -0.29928900637916844 -0.5205576302188002 0.38892614722202695
P 0.7642390374726672 6.009593075278533 8.175586877911527 -0.22015379350889827 -1.1507260161889086 -0.5044915778948731
Ni 7.602288237191844 0.8325514650204574 3.818465577171187 -1.0172927040967061 0.665356503835467 -0.6995848288907178
Ni 0.3475441478719152 1.1690966717553977 0.718861812580063 -0.18238325962834398 1.777846359361312 0.5723946694947497
Ni 2.466596057532669 1.998962940580053 -0.08285893664296838 0.140312555710539 0.7976382188217295 0.4472873607697393
Ni 0.33549685136283697 0.48376650112560254 11.54565707558941 -0.26594256970823876 -0.6935015988111153 0.4406657416881636
Ni 5.054534854251245 8.20437547516859 10.943256163763465 -2.711060133429228 0.10459401926300696 1.8136440857862122
Ni 0.9904968889456985 7.526988007552152 4.56967188259083 0.3773248155376727 -0.4592478755657252 -1.2165722252597564
Ni 5.186722010878505 4.043098616611196 10.188581865462407 0.5467592283148326 0.5829436486551896 0.2680413612187964
Ni 3.8710221395149382 0.7339440655061747 9.354467582945496 1.4598898584796276 -0.8960014266836761 0.16307093245297724
Ni 7.634932524506767 7.3221469552342 3.43541336451157 1.3880300962248482 0.06533250265922297 0.08724112980685621
Ni 4.54479171701229 5.579082656939145 1.2610058854456236 -0.7868185024984062 -0.537238690418907 -0.7308329882717219
Ni 8.328854952846491 2.725298333337061 10.582048234973767 -1.0163501376777786 -0.40072288274663886 0.7161566172064698
Ni 6.219995130055747 1.5540734909233775 7.991231781408551 -0.7005389652738709 0.03049199794127007 -0.5111119114248681
Ni -0.006457610010511299 6.109015656684099 0.3241018854251029 -0.021452513446821118 -0.8954499250555804 -0.00012906937869655192
Ni 2.0364465029135985 4.098412547894814 3.527407705028127 0.8777257683029399 -1.7467704638921142 0.5789005889340676
Ni 5.308018485484885 7.020631437534642 3.794156316504021 2.041681395808245 1.7189179604562201 -0.2524301370441007
Ni 4.683067292305426 1.190489413329122 11.751544632696286 0.9342396442292685 1.2074262970944303 1.5023495703057352
Ni 2.427585764074701 5.016061229915802 7.344654673174548 1.0719456155548959 0.03199969283504812 0.5531785015776151
Ni 7.632054867660128 9.232883342654452 1.6502982645919708 -0.6638884039303727 -0.6070143164511481 -0.8108290064803907
Ni 5.535418146780666 0.45717639668770843 5.608740102999743 -1.3563947287077545 0.30040229404800517 -0.07578789366459206
Ni 8.44665382524056 4.401880430850451 2.0465951010788497 -1.128217036453115 0.4440225739755385 1.4635238556877892
Ni 9.266332633653159 8.426260398584638 13.463638496163739 -0.3810855681316856 -1.5295847518726045 -0.5480771757953077
Ni 7.29392556172215 4.810433679745874 13.490642205942613 -0.0918071519109838 -1.795617053081172 0.056609520963928316
Ni 5.096311769564985 5.71472115119919 5.927694591306565 -0.6618729161622408 0.11454136028370596 0.5222751271305393
Ni 6.842272230538489 3.3928592042617614 4.180525699515791 0.6535260868594421 0.638875683936119 -0.3294207927675423
P 9.054422353583336 2.2877001814139906 2.5477654117312767 -1.5491721870862287 0.9814983201059161 -1.1163287696559612
P 5.704885301591548 8.474394067125518 9.029987253259854 1.2057584224737041 1.4740180703508938 -1.7863829360774137
P 6.314707977265366 9.446301848016885 13.382016674377349 -0.24057143793330182 -0.23159314569409145 0.13119105302524503
P 8.669612086901658 2.5016923675625717 7.89315642455884 -0.9563462463203207 0.11114750411080858 -1.002954433097163
P 1.723522139902448 9.266610221130327 8.674143239820625 1.1456270043994463 -0.028561356577460485 -0.5758497179228856
P -0.08597624401156166 7.614067199139661 1.9335957161650121 0.876699898141587 -0.44696802975710764 0.22358518778795042
P 5.4696669263555435 9.547621277183097 3.350474372373025 0.6251259384501944 -1.9530492991911332 0.39341760733447734
P 9.015708153434348 9.218458046757638 5.097398987183891 1.4238869580224576 0.3933533297554451 1.769556351438378
