# total energy = -340859.73254168057 ev
CRYSTAL
PRIMVEC
9.32258978419982 0.00000000000000 0.00000000000000
0.00000000000000 9.32258978419982 0.00000000000000
0.00000000000000 0.00000000000000 13.64455249099446
PRIMCOORD
 96 1
Ni 6.8210404095672645 9.187244139283345 5.080467270432829 -0.5727469106278459 0.05384507084491371 -0.9066149405334645
Ni 0.013311725537841067 0.48243375144280665 13.355451279342669 0.9212272911300006 0.7958263624239714 0.2692747194052653
Ni 0.30940462592460666 8.617223727289682 10.521505266966667 1.0194465172149152 0.6175859213194074 -0.29960190963389693
Ni 4.063008243437247 6.418901189173462 12.868900672379509 0.6607467729775975 0.17514277601584674 -0.6762628663353256
Ni 1.2186955115444174 4.075351351926708 6.01405468879073 2.032145945513984 -0.7840360546572627 0.08913680416767229
Ni 4.226340011364256 4.189431879559288 8.906713437538166 -0.3724572030327263 -0.03176700799895174 0.6580936516254666
Ni 2.298820052856697 4.3919092007697165 2.6782485129852613 0.16447886854409738 0.47028253611333204 -0.1373475595449441
Ni 8.953610723985472 5.380206235570522 7.4166187006575 -2.951936761307774 1.3998612845318215 -2.107672100876757
Ni 5.530365184543143 8.775940813417382 8.103158429695258 0.34769516559669794 3.0131009915219207 -1.6476276975516657
Ni 0.7450445716634847 7.515088552183129 3.7448972511846135 -1.4020307813793145 0.4723455892899478 0.4543003017524627
Ni 0.36681592880274 6.146401898276975 10.492046816425995 -1.026969822175154 -0.0776534861184211 -1.0737947529484926
Ni 7.398994345219942 7.773175119722587 1.0542804587182582 1.967783262967198 -0.3503392880877644 1.0297545840091427
Ni 3.2583568990698977 8.285003928097508 11.238513082987247 1.3385119348900625 -1.3164513555455972 0.8367475261183654
Ni 4.316536064714359 3.1467375350636146 6.185361932029472 0.7646707627567735 1.009108625624017 1.622873373425121
Ni 2.7201824527862017 6.594436226747528 1.0790673596637108 -0.7500123894136502 -1.0155986042237348 -0.5252023280796632
Ni 7.621123685082775 0.5094590061256609 11.783639384256283 0.18015025653276717 -0.24132117161513278 -0.6786053984255733
Ni 2.7308568177563175 2.1433472278727517 12.984851311464494 -1.9170695386624146 -0.7134379327237261 -0.4669095058760411
Ni 2.065755315517929 0.04588671774620598 4.02119922633552 1.5031155019374822 0.11906290230314334 -0.5160474010532725
Ni 3.7291476684942086 4.23065637029977 11.785631621631055 -0.7746353301686529 -0.6912598539647901 -0.7315752657543853
Ni 3.6851916590321174 6.026056590504727 5.38636473818996 1.1922087088137274 -0.4931347581211572 0.5089195317592397
Ni 3.271035620781127 0.20801960066434388 9.299226152020928 -0.2555810239682566 -1.5869339792160346 -3.26098721794908
Ni 9.131728118849253 4.566996754048093 3.6411853075867606 1.476497899349954 0.7502887830034886 0.5319535307605677
Ni 0.43420426695687137 2.588109327431069 11.671222006589351 -1.327013961552792 -0.4940349013379234 0.705297820115095
Ni 2.3393919623326296 1.7796170761923769 6.1050226525508995 -2.362844576552685 -0.23362200319866214 2.419856475161355
P 2.7830260285622272 7.115233366215246 8.272473435559228 0.6735061295257949 -1.3504343973592614 1.0238801275062366
P 1.8137191085597852 0.6941684040203304 1.6865617846446015 -1.7552147380047256 -1.3621470578104993 -0.6585934740800206
P 7.993579780529113 6.039770119649741 5.353617278075966 1.1462710657413484 -0.9769104436249175 0.7129800192507011
P 1.84093174729146 2.854595548104216 4.076214623713811 -0.7389183363830178 -0.8565025972581055 0.7675336861268652
P 5.753072524954575 1.1451309578508087 0.6549370829135703 0.5705645582645464 1.2542460856614464 1.6867110367063727
P 6.034614727659807 1.214323217071942 10.44812436828608 -0.28587993206211415 -0.7323679368590097 0.02753882885021709
P 2.032296541825575 4.46312446191095 13.14996462624372 -3.0465479583264568 0.8499722523387554 -2.113131838439748
P 7.959617587004107 7.072517261155795 9.08736750900314 0.3314128834969066 -0.5168387866063164 -0.7308067630194768
Ni 7.753168842669427 6.523304868911736 3.2593152612698346 0.26286675899639245 0.4286286080179714 -0.3738383996509691
Ni 0.25844641949390906 0.7995733298702123 7.165177274909045 -0.8569183446392855 0.29781936381217744 -0.767659155961136
Ni 5.350308691064704 8.202890559838313 0.7920593227384104 -2.8694154055740904 -0.7116049932800453 0.054290900133080695
Ni 0.10310877205762027 3.29462177219981 8.542744627566755 0.5009668525710662 0.930237979269043 -0.7718695944980578
Ni 8.287604930566209 3.7486878160726915 1.0769688447687125 0.7331829765611374 0.2889092058067412 1.3695610908863833
Ni 9.340488865378333 0.8960845053432468 4.547347532172536 -1.4487770363959178 0.5675735939570226 -0.6829274228396948
Ni 5.848069711893857 4.656950420071363 12.510648474285546 0.7143303626310085 2.931282318282216 2.7088420427319866
Ni 5.461266151216945 7.303820029080282 3.174350112884563 -0.24902085425223563 -0.0326290988889309 -0.1317060449884506
Ni 1.4980841960766387 5.129838772131723 8.331745527300273 3.1297804811945515 1.7310101157340638 1.4302329548451433
Ni 6.702913878094484 4.056081559443538 6.568487731151179 -0.32216333987418067 0.4735954025366489 -0.23010987628034565
Ni 8.734315451328678 2.909561535758191 5.78897381709424 -1.4041771382983559 -0.5863076800314161 -0.4695333166521333
Ni 7.10204190208187 5.821593557732174 10.85106160234053 -1.019669946079631 2.246534040183699 -1.0316672276508234
Ni 6.009164058342414 6.633553812262466 7.927157262646514 0.8694630140735156 -0.6391893585217959 0.427347941533335
Ni 3.8354158661311937 1.7263757675947087 10.741633046865234 1.194053218221634 0.47331283829922355 0.15489739550324935
Ni 1.5076212051285411 6.2366445645745445 5.7478900974551115 -1.4959392959040172 2.24134581111454 0.6677666559388563
Ni 6.749964987268434 7.24526484447129 12.605069525194127 -0.7893237854187632 -0.1765247439650379 -0.539088342033136
Ni 3.5757351357883382 8.36035841897388 6.748595498871832 -0.2784440446093592 0.35625565357219935 -1.172088798135401
Ni 7.576039642291963 2.907622437143533 12.681274236232309 0.18484097714021713 -1.461178495384064 -0.23540249213785264
Ni 2.1128250698708664 3.185668668788683 10.44081079682839 0.5144972829573332 1.1054974833684124 -2.1618563002286444
Ni 8.59524106126389 5.09325693095903 12.539029233480761 1.7675277510441239 -0.09935642501315146 0.10037226787217553
Ni 5.843697417421382 2.237235026662301 8.402628904255536 -0.29436148717056404 -0.46974389000104255 -0.5197065950724147
Ni 7.078819331653436 4.633243074989264 8.864319894075193 -1.508871173474337 -0.8835809415321363 -2.262359951472362
Ni 0.9163462213485298 2.5745729274864333 1.3764076225247135 0.38262514470466363 0.05383915730764276 -0.35434635236462847
Ni 6.1589221359668125 2.0651213794323673 4.691187629986429 2.9661022541748787 -0.8825152192717833 3.0599058676906012
P 8.366063843743932 4.318959937982682 10.360513469002539 3.342143575014438 -3.481875061410526 1.4134858172937914
P 7.829371689189711 3.0063020469327673 3.244565060173139 -0.8889031250759981 -1.8181291181407593 -0.31684835541917045
P 7.538525542169915 1.4092492407925938 6.824746138890951 -1.4279390166046442 -0.3935819008264834 -0.0818191874603365
P 0.8574889848399467 6.07891567293316 2.2271051009186085 0.31935698077363706 -1.2044456171995517 0.14976213115921305
P 4.918141409912174 5.925801463091083 10.895679515656667 -0.24892263811147453 -0.11560631121311059 -0.3698241362852534
P 0.8846233138198755 8.622090119005316 5.79920722358131 0.4043334829160327 -1.3059070043708476 0.2693132859526846
P 4.758920903951822 5.187247278233009 7.063893865874261 0.3504007374533191 -0.6523914590343668 -0.7805504101015073
P 2.3533572013939685 3.214736502829574 7.969168579940249 -0.45109567877223605 -0.6863565031259018 0.09024520674050264
Ni 4.960148998170113 2.357617624792521 12.542004071788154 1.0542736521964295 0.3997211809550019 2.335748234556526
Ni 6.1907494564977945 0.31566940606427274 2.66580472052927 -1.4405009124300547 0.022136941108355422 0.8574788451284457
Ni 3.5254863784181 3.93662189767318 0.6253397257894455 2.8428728791988718 0.5708304103314233 1.8185435799703582
Ni 5.2152709822506225 3.0159882174165666 3.1908744027618816 -3.394038464111516 -0.17270099934357352 -4.74759006694352
Ni 3.0998076195530806 6.7053284287733135 3.2341135050919187 -1.0366140301331372 1.1427681947944126 1.086487775035129
Ni 0.4481667092413623 7.796285819077099 0.984356376221881 0.6640300717145596 0.34740077428473076 0.3928943878411556
Ni 1.444609822741632 6.9380482303008195 12.487275810166263 -0.2078371809250743 -0.6228373995263338 0.23370890648551365
Ni 7.9167336753337745 1.3961603251436487 1.6058822306495149 0.49230274913816496 0.28629079434728755 -0.18633093142218232
Ni 7.974487117246321 1.9622466043710354 9.471392938010975 -1.0561009352131552 2.2392508762587244 1.574352028785966
Ni 6.052253066981605 6.756276380355568 5.504744844096967 -0.6904468711451915 0.20356323614006877 0.38920125526028454
Ni 5.389230502200278 5.663379891437124 1.1636978270861642 -0.470428574772893 0.7499260003474311 1.0503969428498425
Ni 3.776198777668159 1.7027057128705834 4.545614462785685 1.7626549963328548 -1.3802928754815906 -2.6323429819329824
Ni 0.9162352825335566 7.954518130551135 8.269689710336452 -1.4578232057585863 0.1137142363967203 -0.5716667901897896
Ni 7.859623492096282 9.221579236388093 9.138138331385019 -1.0376666397673677 -2.0726230796924243 -1.2329712354430702
Ni 2.7690980798588627 6.032134918854522 10.481826461564216 0.1570532655039876 0.1846239760334046 -1.320677734922119
Ni 6.39450397246884 4.5275715230798665 3.9735253681834 3.0133408754468682 3.043256689169694 2.072295006929044
Ni 3.2532015070799645 2.132691508081623 2.036449755444952 0.9637044864576049 0.027169361325940306 0.7069093875765889
Ni 3.577571685918568 8.860207699849587 2.1013834557854314 -0.12579662148255108 0.10769194146204034 0.10622281311568157
Ni 5.567217380811149 7.811248575214248 10.052391631392245 0.2738934491241993 -0.19679763528146108 1.9102779696618777
Ni 5.985568584334237 3.4332020650214417 0.7632711663823257 -0.2272875763402021 -1.6446979254993803 1.457197399249129
Ni 5.397928478197761 0.12519305430889255 12.59131590891429 -0.6855787444196129 -1.2744634411495857 -3.009471108078817
Ni 0.9199848280278627 1.2267875192248192 9.200139145070827 1.3688964607191907 -0.23972503077260648 1.7261630720544077
Ni 7.8591573626216045 8.130621846084308 6.783062044488438 0.9641310324720621 -0.8629396111327008 1.0491005926359223
Ni 6.120513067253384 3.3649140969811824 10.892732645117755 0.5541748040526133 -0.783822910205192 -4.391757874061985
P 4.239317055939278 8.79659967173509 4.291580424899073 0.6340342966834177 -0.3380242181658372 0.14480684403646674
P 1.9660129305264298 0.537941381546357 11.121469836413617 -0.9913605576119765 3.0457136353506193 0.2091353309112076
P 8.16554426632715 8.647447562427772 2.8606487054623786 0.6233948146917005 1.0169044675193522 1.0914795718227654
P 4.465585625537248 5.153685956056226 3.4566427840440253 -0.42946910164139585 -0.5846680875454641 -0.7108166930507952
P 4.156821461510848 1.1381390157306455 7.3678941866694565 -0.03781732795808971 -0.11726904362751417 -0.07802835295933659
P 7.451601717732048 5.586011721230147 0.5979052094278245 -1.2615719298988983 1.1923290364416756 0.3243109823448027
P 2.981466668521948 8.268680073894302 13.42918643642401 0.7269261970181481 0.6403070170660069 0.4851522541363129
P 8.751534274123268 7.8686104683680655 12.181651494281292 -0.3784486447294708 -0.7235302839627216 2.402896964488881
