# total energy = -340893.1019324645 ev
CRYSTAL
PRIMVEC
9.06976038980957 0.00000000000000 0.00000000000000
0.00000000000000 9.06976038980957 0.00000000000000
0.00000000000000 0.00000000000000 13.27451111591968
PRIMCOORD
 96 1
Ni 6.246833661765042 1.9722102999287796 11.405566370550233 1.2889567496697543 0.09723732178761964 1.2735576415058647
Ni 4.715948826585397 0.15680436429865713 5.959949888765455 -0.3280748202626092 0.05975475146112935 -0.35047452811404806
Ni 2.848412629878421 1.509625317117787 4.983902195959254 0.2802075642676851 -0.2790001742231453 -0.6265750121918952
Ni 3.308929707348926 4.095776759164852 4.881489183971588 0.25045167316149125 0.5747852812141134 0.05237028607160013
Ni 5.405114560344063 4.426233474430983 2.763195883353761 -0.7847734470439194 0.8671405365879259 0.4322350944223072
Ni 7.4593608418724635 5.978214571987712 2.619113671779237 -0.2749103204244878 0.5531682171649699 -0.1424589126295805
Ni 4.852194765290703 4.622884016503175 11.650600455733683 0.9759377952990033 0.10267057698804899 -0.4704997943304607
Ni 5.497744021933552 7.841297516404427 12.548527582446791 -0.40733087498145976 0.39399816242829566 0.04735329247298297
Ni 1.8268311126363181 6.776026963964384 0.29548916153930194 1.018052465080866 0.022634706680380375 -0.24864110231531372
Ni 2.7528173566821805 1.7342742091289525 0.6658773103254612 -0.1081637388921363 -0.38884952834782066 -1.421986398565635
Ni 0.4042174475996941 -0.08514509541856434 4.6287684769633 0.5817390868241272 -0.08078097600380926 0.4917553612751273
Ni 8.549301142234118 2.287012608977007 1.329083576252792 0.958990111701071 0.9943713194138424 -0.3665351811213365
Ni 6.784661375736946 0.5224535633461981 4.587764090803888 1.0796455553023148 0.5211389566435669 0.18657030112649806
Ni 1.0293452320291978 6.984504473422522 2.5166879621272007 -0.4569493093395356 1.5884712417961677 0.19152764513177337
Ni 7.559681460166924 3.752631449287568 3.9213970134241003 0.5620009849652515 -0.03354672560719384 -0.12170265391883556
Ni 7.921437918108599 4.001015903913018 12.573616353292659 -1.189236770669597 -0.09995317805688593 -0.013876243761459975
Ni 8.108356607416125 8.767673760141697 6.949445315117013 -0.314418148711123 -0.062116052604454325 -0.45625331171377553
Ni 6.895720590185521 0.5486923797937051 0.31496919263710893 -0.8567507087131697 0.20441787083088023 0.5409950721375456
Ni 1.8346401762247397 6.57764409768152 9.298197596171956 -0.13097276636685187 0.47442278353395073 -0.7103680355491508
Ni 0.48868412495041413 4.927573542855595 1.2118913899128239 -1.4506197460316113 0.4617822119518047 0.5071752953746234
Ni 6.316398722999878 1.7874320740438638 6.865417614163134 0.9578320868372278 0.10258495925277818 0.8010225619129301
Ni 3.44024169646991 4.348523768477911 0.46756156026856166 -0.25424739275849767 0.14704293245583708 -0.2640756917028291
Ni 6.166901864546971 5.671910628308068 4.891591082955078 -0.3972218115719159 -1.8268929803763183 -0.5641648253857897
Ni 5.0722271493268325 2.8641214546579175 9.58466143927126 0.16525919835354763 0.7997370103322872 -0.895123137843781
P 0.3339984566497306 5.802297501881992 12.306255239264127 0.6790458283971015 -0.7630519962064277 0.020362108596119772
P 3.9220001524817425 6.2851080500846 12.797358269277295 0.28742105129698886 0.5625211191347795 0.06286270096249173
P 2.3781274206021905 8.745851916943389 1.3855401129761924 -0.15590012573615086 -0.5522115096786555 0.628768163188472
P 6.461886747415523 7.655059059116797 5.732531091969267 -0.64739503426104 1.202478980391484 0.6421702955269908
P 4.691288148424051 1.1808737167815313 12.72432221078893 0.20504239178875655 -0.36535041678461594 0.145299210291853
P 4.049022144997241 6.2919557190849 8.022264629025864 -1.517055509057342 0.5718341690055894 0.7735577808337581
P 4.863223593773305 1.1174942320476289 3.7273231902432804 -0.1283929214548176 0.3577314667867775 1.2767722917884206
P 0.16767719290469635 5.392162942685218 3.6788054146800957 1.058937376220686 -0.8110089837016807 -0.12136018297775228
Ni 1.4512160610092681 1.1403953767175061 2.822837719882334 0.33907605646911926 -0.04613381824358506 -1.553301378763254
Ni 1.9454907861872117 6.434559559736179 4.739212761665886 -0.17628691692261897 0.1602997974657433 0.13535469748463141
Ni 5.775233337250343 5.542612125965981 9.031897644094462 0.5445943594530298 -0.059669133725858525 1.7804496013121145
Ni 8.448889826337004 2.310920497036333 10.239758432545388 0.36225300880621486 0.7006958025667094 0.6460449479910487
Ni 2.2237419613662883 5.207738437450649 6.894396405186788 0.193980220437324 -0.23809932224372546 0.685087149495175
Ni 0.3432060772710611 8.939845019257849 9.20004555755693 1.7608176860137996 -0.6820509337720124 0.8312708192745103
Ni 1.3579245069204129 1.2747820145684265 11.286600139102372 -0.2816772068346762 -0.36783358821778583 0.19506856840549633
Ni 4.089953973074531 7.150072947065537 1.832865224140821 0.14038763192284853 -1.1391025730173674 -1.9014236045950414
Ni 5.763542416268375 7.992590187389862 7.912232111439322 -0.8269387675580597 -0.7098964952293709 -0.1648570778191225
Ni 5.320158115939018 2.9265848936050243 5.01306601009232 0.2096564935220002 -0.3084945841378365 -0.6559362389628317
Ni 1.1225460885154 7.409821811303406 6.972516064303852 -0.7289450272203897 0.5672763744315779 0.17424443257129346
Ni 4.870796843594829 4.678717460696348 6.895404962528288 0.4296881596307375 -1.084686717270648 -0.4029574285041125
Ni 8.000054600088202 7.07923811939356 9.142142394071213 -0.14731341250840435 -0.04779886465083381 0.4291338297891642
Ni 4.708810925256607 0.37988872266405876 10.52439109104713 -0.29216370818829684 -0.11056334947256442 -0.13716398277922828
Ni 8.266088808189922 6.9236282425218425 4.82906778359022 0.8928060596748301 1.0755657288059863 0.3252527774327818
Ni 7.195557794796006 6.025676627456017 7.072354171352199 -0.3983528398525656 -0.3980319661780371 -0.10025888222276283
Ni 2.5731726151074232 5.1376019813191 2.5904813455977185 -1.4070719433476477 -0.3816098160662718 -0.4206486751362885
Ni 2.5701977337404056 5.256443050075299 11.390406266266789 -1.8972589316943906 0.06381066669805785 0.3672926281126513
Ni 1.156213038620186 3.127407525399252 3.9811585707881756 -0.7178532881826023 1.585906823503101 -0.40929905445142417
Ni 3.703201255841694 2.837483568758737 2.76777520531171 -0.30891778771818407 -0.5629785183871724 0.01044253548956266
Ni 1.0303429056583806 3.2199281498655568 8.22415658555537 -0.5254375840189209 0.12552562720935154 -0.2646768156219377
Ni 3.5515276549251165 2.6744999767913327 7.264768228404469 0.28643014813862927 0.2701445236047283 -0.5499275987404851
Ni 4.2405392027592725 6.782711377279908 5.816226839697437 -0.6490132865907533 0.8172886460628053 0.3817648535868973
Ni 0.8058046647224517 7.759297813845867 11.356185153809792 0.19969398299264965 -0.7784999553303819 0.06753748073034174
P 0.09002371946526813 5.76476683390419 7.78739865207584 1.3791531054501924 -1.3594764529568717 1.5845225415610649
P 8.610122954573205 1.4695460465054353 8.207337622119402 -0.27204868260597664 1.578026649424076 -1.80043941417048
P 1.7437974574075152 3.2605243968130306 10.375543627429217 -0.7425150525953406 0.5214451750300761 0.13651580767226812
P 3.978631735578263 5.898155798125927 3.815227306734549 2.07421922053495 1.344595164969665 0.48232018400415644
P 6.714960268098133 4.019273331327064 10.712105198329922 0.5369018759047786 0.5969954987625654 -1.622105127800529
P 6.26151760363456 7.765710134353433 10.31454676871701 -0.7785824877418591 -0.7347022414191412 -0.39383181205376044
P 2.500814067710876 8.438260067306073 5.7214333333086485 0.6451648593789405 0.3062153011853565 -1.1115758283520083
P 7.156340151408858 4.146503928328664 1.5231573994336116 0.4807713514597977 -0.5548983124821992 -0.6922317309597562
Ni 5.447370573420087 3.1788330661034916 0.4308099846975478 -0.33044434893605024 -0.39533153652773845 -1.2549487681554257
Ni 1.4903792858348246 0.7847120302494748 7.03068497176534 -1.0766841586811455 1.930729295537694 0.16575542126367582
Ni 6.898015239532641 0.5567572106216081 9.139062303485119 -0.5969481904643977 0.8530691460965243 0.538692392146298
Ni 2.951254641526635 1.6879005248924839 9.352822041321767 -1.184887749672282 -1.0029485195598922 -0.028793784303240734
Ni 6.371488446851298 2.200387328683146 2.2719722255290633 0.8009356586260786 -0.9593079000518059 2.096832329948776
Ni 4.081219793939049 7.111571814739348 10.418101663522075 0.7000072611401169 -1.2445627969354114 -0.04743196822971831
Ni 8.252066958819771 7.184782919600832 0.5251781193298936 0.7575619196261341 0.00713815370667803 -0.3329833133078201
Ni 7.44175643719752 3.6367017735765295 8.42817267993901 -0.018310368273413626 0.11806222895277087 -0.06074565461948894
Ni 2.8948407326764816 8.679316155637164 12.397078911584794 1.2424141260235246 0.19028374542234325 0.290024550358107
Ni -0.001545487149206775 4.91785982961146 10.15723086993939 0.18292601950569143 -0.28132419437063166 0.12791058250176035
Ni 8.526835346056973 2.111140887672614 5.644906324094171 0.3633783806599097 0.18536213975100982 0.918104943450935
Ni 3.434827049591527 2.6757153246668826 11.620626712008926 0.49993146932801646 0.12954554700202206 0.4820810714101568
Ni 1.0879812321443492 3.386530576178816 12.772654963242703 0.8664319405566756 -0.598934110546175 -1.1248625181585854
Ni 3.22549698266845 8.513684193672292 8.000587901991802 0.686274999155689 -0.7940664423100712 0.44562797078944544
Ni 5.5665835023471635 7.712479711356399 3.644304953606929 0.044092619443840186 -0.04546481720101848 -0.17901845692116913
Ni 3.2569962600698297 8.606966678000882 3.4419078114306454 -0.8224161970973578 0.05844246040760903 1.4780832415592027
Ni 3.1341100782353073 4.495254350049901 9.150505620011844 1.021709602217479 -0.329965866637735 -0.23447715211010586
Ni 7.456059449135895 6.390090525155424 11.697525581394283 -0.9231095957543779 -0.8010307894430463 -1.3655969640323127
Ni 0.5898074170283538 9.264488018193925 0.1910399883720774 0.013958519062621123 -0.427737720772586 0.09546608881980978
Ni 4.6339581937871035 0.7236915901605765 1.667703075757692 0.04861236169106467 -1.7912256088816958 -1.170769822213661
Ni 6.083958906920821 5.738337552491111 0.4518554564171452 -0.6374422939237023 0.2791942925118224 0.18565293151855122
Ni 7.788085232927923 8.80371698743599 11.377304997563565 0.23881897401856933 0.9319181951849436 0.32369648868925543
Ni -0.01115489815028998 4.696086051604394 5.778513869538302 0.092411361153886 -0.5520582719302428 0.7337316499757558
Ni 8.330166664464253 8.816786511978284 2.2768971053531204 -0.3052233695857324 0.30975648156939556 0.9708220713389926
P 8.473595853299676 1.6835289004446103 3.4558462190063555 -0.5418124258325184 -0.8681833760301435 0.8129673929796322
P 1.798814623176813 3.3161038877187767 1.6484552305226765 -0.08250232957029018 -0.916227523922564 0.5498293825997241
P 4.785151097409621 1.1199339975589941 8.219803100628027 0.39640188677378185 -0.7866516379032388 -0.0150833766956837
P 8.368504541105667 1.6570814795110014 12.444601734446875 0.647501220821601 0.5218789201333851 -0.7504954996976559
P 6.4379153710343395 7.78951825504984 1.5819230971205567 -0.7148936913336462 0.005003366751862351 -0.26896233037116907
P 1.778362313778566 3.097985223098626 6.081199885848117 -0.888099141117464 -0.0858596760782973 0.44457741803774403
P 6.929124517242613 3.887562272754406 6.278179660217939 -0.31091630620545163 -0.03485567422660449 -0.985236961212742
P 2.534381250452744 8.591720410994917 10.186408288712853 -1.442001408234981 0.84892529913148 -0.19237790894721063
