# total energy = -381171.9728822909 ev
CRYSTAL
PRIMVEC
9.24221016176346 0.00000000000000 0.00000000000000

0.00000000000000 9.24221016176346 0.00000000000000

0.00000000000000 0.00000000000000 13.52690878865531

PRIMCOORD
 96 1
Ni 0.7666413295774175 4.75460878594882 2.513610356288137 -0.8319920137112511 0.015955751998308006 -1.4354520371522377
Ni 1.091930157013304 4.09833792964221 7.721186329838161 -1.2109322533651596 -0.2518040734243276 -0.39416014192745663
Ni 7.215190113222895 3.210170779177348 10.720724367683763 -1.156632868591647 0.4501086322686184 -2.7079593830167172
Ni 5.930245640032439 1.3515345971157764 0.8922189353821216 0.4017240703176437 0.2806371956059361 0.028886086906730897
Ni 5.720900338570618 3.126861497142257 4.699139813462686 -0.27244848914755654 0.3274940080584747 0.05497738467714403
Ni 3.596042293959588 7.191881259296503 5.16246382172603 1.4390940047801988 -1.6725928521374354 1.2092468952429367
Ni 9.08527739362499 6.018591926583741 7.037144480558505 0.3000562235624961 1.1151018392273957 -0.4020930236212881
Ni 3.3574916085138646 0.9061950055278355 9.12832298726582 0.014168835301214308 -0.4774721118832358 -1.0404015222000278
Ni 5.029814076736363 7.419064026292796 12.21673319341864 -0.07575344088223082 0.9605029488011717 0.8934421505969323
Ni 7.150734939835639 6.584917593988031 3.326334269752305 -0.8779988194586685 0.2002763378586809 0.18871382983206209
Ni 5.478948519800187 0.25582252772075953 3.1525945827835153 0.9515771070664515 0.06357901030322599 -1.4009331774397615
Ni 8.400309474891161 0.7486393527027835 1.3446759529846204 -0.2733782000506776 -1.683956613889687 -0.27592873438667315
Ni 5.402885130500342 4.684035269461138 2.9183627821275637 -0.7926255960984866 0.638425740882894 0.028900485084434095
Ni 3.427362717032313 1.2712290333701683 1.1445211052676063 1.1444790068379322 -0.7846276654946746 -1.0823642397850586
Ni 1.4685687038841773 7.359553435320535 5.671711447862035 -0.9971663656604762 -0.9814127023706453 1.8543425919468388
Ni 8.143052556159546 8.46260197110999 11.055001244462797 1.7656881267322235 1.2936706102056559 2.0386495509604567
Ni 6.670676061705317 8.165963995050715 7.0099418835079295 0.5042792047737509 0.34074213131763254 1.2365993191139606
Ni 7.138082354179322 6.616174748618903 10.634354989877448 -1.4858155772064539 -1.6954887828990026 -0.5058151818023031
Ni 7.065022683168961 3.5696465418526184 12.78911066001048 1.7196612663801483 -0.8595053886401713 1.8290948731236434
Ni 7.254820710223836 5.498172316852882 5.653977495080923 0.5129088554242909 -0.277707937774283 -0.950636340419737
Ni 8.013643130038474 1.0829190021448534 9.74325621036205 0.6261178700498184 0.5269177681088731 -0.48272204742826547
Ni 4.743666009164977 2.8742626523118724 13.002578911407495 -0.3100920105319434 0.27151466447937755 -0.012767326967997367
Ni 2.8916657339706338 3.478656983206571 0.9568885280441964 0.04886510113181907 0.3411614782432383 2.118912449677267
Ni 4.959074200466495 2.416080085539112 9.883787712143324 0.20814519908379636 0.6384583938930424 0.23192481800189735
P 8.619165010567995 2.9650950933858553 8.673954680610198 0.7373674469561301 -1.8763360654987944 0.42199773296501514
Ni 3.5432415475355277 9.097190602471589 4.084666852430505 -2.2334980329353464 0.7699893467562094 -0.610155176072975
P 3.3326485477073056 3.894658102984861 11.213617903009796 1.1553051509191585 -1.286246549827443 -1.2761444283964343
Ni 3.9032995694484516 8.104438602271971 1.0545546592820072 -0.40316671630144113 -0.05206406768509098 -0.535259198095033
P 6.477975980672295 3.905665575239553 1.1991970961253164 -1.2408439533229274 -1.3055208246760226 1.484993595525791
P 6.531756401369233 6.647126910315766 8.593712888114428 0.011013834612000386 0.9542623672080984 -0.5245639231647159
P 6.914152845145793 6.579372267915138 12.778410953352832 0.6870887533062361 0.620676387319273 1.5811703372593802
Ni 3.5224650591824234 4.80790861171944 8.529297456230694 -0.7245867502516941 -0.2630793892278308 -0.8157773516246014
Ni 8.698546353301452 5.592387406831328 12.233465290622581 0.9610269396254417 -0.5499754212592851 0.8698065134558634
Ni 0.0522739404471353 2.1986478502209885 3.6243456382356323 1.8234189057847885 0.05904486987829831 0.07675257157070653
Ni 7.129413161085367 1.9304666391257757 2.982642353522512 -1.2342493308245452 -0.5009457695251437 -0.813884762587579
Ni 5.56686042247578 6.123296925050077 0.9314789197571898 -0.7432280195019652 -0.6099908825809688 -0.4521511166199439
Ni 1.6685331620726884 5.309621988164408 11.272568416048696 -0.784416577925133 -0.25913480275778594 0.03341174269122633
Ni 2.0871128584748733 6.7201958235362484 3.4822993382154492 0.12710145633690367 0.3295177233567228 -0.6465468273281317
Ni 3.450837930740892 5.167661640698355 12.939042413706316 -0.11347460958208844 0.6556305347969548 -0.09075325672517273
Ni 1.7632011203470885 8.412250410368124 8.679892800613255 0.4242965563015209 -1.29634610015529 -1.1637730791808538
Ni 0.9767814611096869 1.3403884917092619 8.086075254981587 -1.7638940109462782 0.32032011601785476 1.690312895125018
Ni 5.381655773851285 5.8186551950255945 6.9219625126984505 -1.3107077681936008 0.2951682993425755 1.4703668467515516
Ni 2.051077481211192 2.873569486552761 9.608826415702985 1.0943394098690638 0.8122531405214269 0.6608213349692749
Ni 6.714354746739469 8.295854016098106 1.02560066341341 -0.8364701040872627 -0.8005577064613696 0.5427161685937104
Ni 9.06651570707837 8.74983137726559 6.609166380683779 -0.24842101588470764 -0.55875882387887 0.25918056839405684
Ni 0.0554735935911944 5.740068682362583 4.421310659221652 0.22502320578605758 -0.4055915236928499 1.279378876173332
Ni 6.397596479245715 1.1519675539624892 11.53006655646448 -1.1810676045952435 -0.5699204969226443 1.232589169513303
Ni 4.248671719478331 7.292454989838534 8.964891137245527 0.25299552262926756 0.018247376245962125 -0.8591886287307009
Ni 1.7535337685600123 3.1441906411200464 12.588574109015449 -0.10287677946158412 -0.015713296970198742 0.5516738920076305
Ni 2.8314897038696265 5.900356332499547 1.3744016733983617 -0.38103311762719544 0.912390666674977 1.4133878582633466
Ni 0.2870639705944249 1.6488657389341623 5.880526246462883 -0.8334338883641002 0.7638557230546458 -0.20607674659054187
Ni 8.76089430278101 4.842779470507813 9.835483300943366 0.34827263536672276 0.6783603722943028 0.7329628901305313
Ni 2.7620067681762808 2.655712109569049 7.318963496908985 1.8309185565959434 -0.5344680696523053 -1.078022417876595
Ni 5.414031235906856 4.8933990553432025 11.936915115559461 1.899088785814278 0.05160821109459499 -1.1471537254566178
Ni 5.741861671126151 8.906653198606994 9.706219901742212 0.7076943453717296 0.4028574125911385 -0.34690043760954453
Ni 5.213844964675429 3.046537448976406 6.926589163085267 0.06610100539413132 0.5091164782613942 1.410951738018028
P 1.1066714821570771 4.975931991728089 0.30284319593484116 -0.3925400898255304 0.07941417756326968 -0.5603552218317124
Ni 4.589478217708196 2.4955076393231783 2.8838015373782597 -0.9626919860326903 -0.7344692994727287 -0.8687523611597361
P 1.0203307552021377 7.47605149390189 10.669254499517198 -0.5514743744023147 0.7222259633290014 -0.18630496328025334
Ni 1.3090019461366893 5.9828430578338265 9.079180307607844 1.1923637463343528 1.4296817103273636 -0.8570934367645691
P 8.32494849356055 1.4391230224371168 12.418595077345092 1.224719279846923 -0.04563065335492141 0.2276480450034144
P 1.0713015440221432 3.5993879740235664 5.515015320578281 0.7107493301479695 1.0315042197103979 -0.6605513691373398
P 5.288041427530733 1.100035575289849 7.932990983413311 -0.1562333407058535 -0.2848322075238901 0.4100642147522229
Ni 7.552003976680277 3.1232570351948765 6.015727765667092 1.2361902566010001 0.9640428436336301 -0.08676059062601187
Ni 8.4441545197075 7.770868754567232 8.782074675716425 0.3306649495872886 -0.0845116466908351 -0.015220159383864111
Ni 3.422815549652541 8.541096061671785 10.917446658561659 -0.2333345538652304 -0.5539372341205107 0.08813021728002886
Ni 5.737166628384436 4.774091364884916 9.32174488490933 -1.1214784321777007 -0.12618460094958914 1.5460423832079955
Ni 4.848528125203379 0.9056340033734612 5.682803024228832 0.2862049195017006 1.6737135960054403 -0.3635053931560772
Ni 1.3311093127472882 0.49040460814031567 10.525625933124218 -1.0904061362529285 0.7085721199909926 1.0432343636631323
Ni 1.4007770926430638 8.765654040993576 1.5583946682759295 1.720960959028178 -0.08107151066103457 1.183122430241743
Ni -0.00598895215872413 7.3462076839051065 2.5703020731733432 -0.9012637035238801 -0.2605638218948287 -0.24066348342647584
Ni 7.943753537099783 5.3658053834929325 1.3305630981291083 1.1616452342045736 1.2776402962156708 -1.0268731486962894
Ni 0.2444342764090622 2.942460920798331 11.02673024792218 -1.310214887717582 -1.3250013019981375 0.099197530837784
Ni 7.307325705924008 0.9139399776096424 5.153332518126 0.18341375777538735 -0.9767039840410662 -0.8688554623965036
Ni 7.466097633601048 1.247559733249038 7.389750508450473 0.02651630112297369 -0.12892745380204892 1.395013469521217
Ni 7.4723176410128085 4.549884589547742 8.023932482566726 -0.7089397877430565 0.12142266078457153 -2.7877746526731473
Ni 3.3042102671634876 1.5313417950293227 11.665781942551444 -0.10022571499198223 -0.0666314239763046 -0.2731424298907877
Ni 2.6630134555650247 2.1178524493389417 4.684611983372719 -0.22293829823257091 0.8904648131361633 -0.7695211488705392
Ni 3.9728287161924047 6.015837747967537 10.619353958629262 -1.3013031870502492 -0.981230154046194 1.2557460672457406
Ni 7.742014574567945 4.005675530964172 3.3643049658154256 0.1919094539512243 1.565766343999484 0.3397586843584407
Ni 0.24505720137125048 2.6559061959816 1.255286220910602 0.9899009423473144 1.5668338660320498 -0.6277561769841898
Ni 3.529378232353296 4.568017805806101 5.814947220324854 -0.3806718776330347 -0.013472580565138089 -0.31593921334133973
Ni 2.779798022660145 4.3173967939417155 3.2668430874212997 1.597078266738888 -0.3584377488251827 1.4407184277574994
Ni 2.1358655168657217 0.491120879424731 6.346704249211743 1.7624824753107324 -1.8607749778357436 -0.38076418023652486
Ni 5.918249251294747 8.07728498893504 4.951227564073352 -0.19968626968316577 -0.7704066367992861 -0.8224460218940287
Ni 1.8280167399290828 7.316872908979505 12.680313210902348 0.3216815151417557 -0.002276454739002531 0.5916725438877551
Ni 4.161526920242823 8.475541065280073 7.035467019421454 -0.09957008368585432 0.5255905646570175 0.26450712281329286
Ni 4.6029533600653245 7.185818369456807 2.993098990053963 0.4284709993941846 -1.2097503172419166 0.31486037845486414
P 4.513054382213613 0.3006241412846719 13.09705093482732 0.678540863736225 -0.47868875789915627 -1.920169517743977
Ni 0.9203411323397848 8.923695834071019 4.199712959801774 -0.6458559719086941 1.5986900913106983 -0.8652518042056453
P 7.727088405221743 8.893113360779015 3.3425534242945036 -0.06106395719085612 -0.4454719048275554 -0.3267666429741469
Ni 1.1443242461920187 0.5619134362922915 13.187532171916686 -0.5862320895984742 1.5316076958399043 -1.9271672892180487
P 5.231885758832574 5.798978529676947 4.783560933375392 0.27797738938558575 -0.2552028146932315 -1.0121119312267148
P 1.9163630264803853 1.6027471104279376 2.390583600476963 -2.18410148478009 0.4776037523650936 1.9921123266308656
P 2.8064617988606377 6.728449117174738 7.4063476693866415 -0.5067598051037595 -0.781667554425086 -0.31743096739551785
Ni 8.843686021049297 7.853281542220539 0.06859383507965856 -0.1720973043213036 -0.38755832034022286 -0.27923080217671264
