# total energy = -340863.6894179893 ev
CRYSTAL
PRIMVEC
9.36230777911158 0.00000000000000 0.00000000000000

0.00000000000000 9.36230777911158 0.00000000000000

0.00000000000000 0.00000000000000 13.70268379130533

PRIMCOORD
 96 1
Ni 4.316744861407148 8.917205102848612 11.34748048964942 -0.25891625898907666 -1.1671615360371126 -0.49252129290687435
Ni 8.368339799439433 2.75848232666218 0.07026973852909058 -1.478887482628053 -0.3741163359027041 -0.9073402487352632
Ni 8.460521083488333 8.642299654592685 7.982676375705616 0.7405571575380214 -1.0038070109054456 -0.2559134676070109
Ni 5.040235932648958 3.0586566440678107 5.486431358415902 0.20999047982265126 0.22329259624819608 -0.004817990213933638
Ni 8.841332959243871 5.126312991916234 4.164944400349981 -0.7247495010818035 -1.3621383160597509 0.4144407465533637
Ni 3.889205706686746 0.6432420486717161 6.0824705228790314 -0.06893590373976514 -1.6999211076387433 -0.7734443951843454
Ni 1.2016335004172505 4.136726404196884 13.525179532648561 0.2751255217590875 -0.3629716321397942 -0.9324614692829231
Ni 7.253251473686821 6.691072968376613 5.89867624687363 -0.4612865032623088 0.5392513499735616 -0.4741487039369576
Ni 0.9168639245080713 8.658430911185846 12.31658890119569 2.096748769096034 0.379992592177823 0.05632412851302558
Ni 4.457179480616319 0.8777856511361325 13.375792674580202 2.014598423548524 0.4833288277743289 0.7075989574444458
Ni 6.37326006279831 5.4368045726797645 3.582690298108424 0.7859677244623368 -0.5487844862749774 -0.6486091091737991
Ni 8.028600368648606 4.509889274359495 6.7725653054421056 -0.6305229410960497 -1.497318692750047 -1.0604746388008188
Ni 4.531300872634921 1.8785939011610888 7.801061644990342 2.304671310646063 2.345362103497206 1.5660995589691866
Ni 1.0376152274888855 3.0484330037893828 7.674380256155722 -0.17229656481630326 -0.190945033155426 1.1305091749214013
Ni 7.9407725577951895 5.436261558818822 13.414694936562732 0.9537216642132801 -2.0523586730164327 -0.6548944279618786
Ni 4.848271170497968 2.613263568091949 2.0646379397662202 2.72615687986135 2.327092358653741 -0.8759954158753945
Ni 2.8413855635353276 3.4582118603337983 1.565545474097156 -0.6063180617150719 0.6790877373786305 2.7927484517386545
Ni 8.304779090785363 0.1530653088608445 5.528224701092551 1.7406319550945442 0.22165274665192797 1.7115841457989684
Ni 0.4028778993564768 7.142710703753308 9.815629961854519 -2.7467123354151988 0.09541826630100986 0.07648286284908765
Ni 0.6981585383980653 6.793028501922471 3.321023153289948 1.1393463135970572 0.7971815909002852 -0.6340474093095403
Ni 1.1419581495612998 5.423079429229055 8.485620494864191 1.9885999426022332 -0.42955009139097633 -1.0401595813925506
Ni 6.698721973969539 0.06120796066692008 2.4148650279195896 -0.9373421944139921 -0.18725935677372266 -0.6948807385468291
Ni 8.807300969855515 8.99649448885411 3.362405490647712 1.5525315904767647 -1.7686914323349214 0.1201607633530124
Ni 7.589686009772261 1.836997166951332 3.7057812418452625 -0.3287525630559241 0.8291131495015591 1.0282448322328355
P 2.1864172241596456 6.424659133428867 13.545898320135887 -0.7612311409476051 0.6826877960250629 -2.064937538122708
P 3.144153240242354 6.745889281407925 3.5575730983474663 -0.07846389783485842 -0.2366440778544376 -0.48449353750639146
P 8.80360285821634 1.3766524851836677 7.5275418183106115 0.07206930716242427 0.4474681093219778 -0.24500787643810062
P 6.360059208592648 3.6664951252368945 8.260307191804996 0.35075195014515076 -0.45042076419239846 -1.2493093104814614
P 6.298885888465132 4.311670490499724 1.4905777294401212 0.0760375477815529 -0.044116787813556275 -0.04087874049223283
P 8.137306126224452 5.41821102909647 10.919257886448868 0.27144524469402287 0.6457006772777524 0.6976302762675083
P 5.52023209879796 0.8601910658108127 10.06932135653271 -0.4425274774872508 0.2945887726900217 -1.227054355738003
P 5.915433841868464 8.408026622827945 0.18762720487901638 -0.9349492687017833 2.788321269205236 -2.0505874400486235
Ni 4.784523215684951 5.7942481277988955 1.2245720911188767 -0.5709011156683587 -0.23768100375938422 0.05593769170788431
Ni 5.10472350978981 6.835299322304432 5.014976425807203 -1.6506687983708348 0.08848220130280891 -0.971688790214662
Ni 4.693643292440722 3.782147715309621 13.655889522592895 1.0598953692585813 -1.8887277542949277 -0.1784211896568024
Ni 2.158255401854233 7.604497180944854 8.293946900490361 -0.33006485410944447 0.11300255504167635 -0.8791218773195182
Ni 0.3214145854456205 7.56344346059604 1.048138461621626 -0.5224949564508292 -0.7896762836621755 -1.8391491720358522
Ni 3.0872304079229034 8.262002705774249 0.09905228185140764 0.3322340938466214 0.8230774848304405 -0.5642303885164025
Ni 2.7454125447677793 7.357987612693021 6.035388412442964 0.6175003035841365 1.5591334120639988 -1.1613865812265483
Ni 8.838505542243793 9.259715776791834 10.281576112467041 -0.3804895864188995 -1.1277699216133676 -0.9894144896291992
Ni 6.89374821081929 9.287671628322407 11.495071657053494 -1.0372280095680524 0.3277971411211903 1.211242842627043
Ni 8.473871734621152 7.461169608579974 12.152156814256053 -2.0920549631647907 -1.5132914140292195 -1.1394692123281667
Ni 2.2201308950777943 5.5059264922545195 1.5875656223891539 -0.6413526847217018 1.868365388588492 3.0371330927704596
Ni 7.182687758688186 7.200916172261537 1.2155515074116743 1.169253899789767 -1.6719845291294753 2.647824879618666
Ni 6.143799257318471 9.113794845125557 4.975897216204468 -1.4699806670567264 0.09425664189274088 -0.4494329463578325
Ni 0.8563085167050765 1.851705352736506 3.3843029927056008 -0.9720608288421001 -3.4083697931325236 -0.6751745183671533
Ni 2.9872222344300785 2.8248049161606983 9.638234823331082 -0.3237345410160425 -0.05611226961253562 -0.6945891754483392
Ni 5.137566486068861 5.353002554243678 7.025831651339489 0.6011020647317712 -0.6089411011602157 0.46101139522405116
Ni 4.05973078363847 4.594861581288992 3.5054755995440425 -0.19744221084399546 0.7161746149285989 0.03325644806028466
Ni 6.9283513009924285 6.644561022494535 8.850961156736851 1.2689790209962468 0.023701457381997894 -0.2235967577521762
Ni 3.612240550682418 8.851500425674613 4.002746160086566 -0.31326449472265405 -0.15009123236385763 0.09253143167151806
Ni 3.3373819139662273 0.2368823069896465 8.766086217810006 0.18593832396945395 -0.3020218319292992 0.9124382320834608
Ni 0.738578430498849 1.0524638478932684 0.30031381579404515 0.9498560106102867 -0.22356513318329238 0.8245540693759671
Ni 2.7501498725891023 1.4119202992210642 11.857960330474759 -1.4420078359928843 -0.03667704370605941 -0.7987538204834115
Ni 8.903096104772064 1.2899200643600832 11.994192209646398 -0.8144339502228296 -0.1907177476359683 0.2705903528928953
Ni 0.5143726884698171 3.147879438805371 11.26441434861799 -0.40840996697825144 1.8011415824438273 -0.19601807680295918
P 1.4189045809497336 3.7576278307956996 3.5632869148876902 0.6558722184941156 2.066910345578363 0.3116912366982632
P 8.928692654699923 5.613508772876691 1.5778915495872317 0.27758066816779936 2.9729951246399704 1.2705193689001733
P 2.3162817976963406 4.229244731331887 11.130169151192764 0.37598578501127505 0.016462516431397452 -0.2518495819502824
P 5.02031294133715 1.2290276134709863 3.493088329898999 1.1388650030852645 -2.0059304634608806 2.4251002400587978
P 7.168026384442749 7.5566838742581055 3.6592608698860327 -0.5900036408257645 -0.5878045762919167 0.5845215346652708
P 2.6243204537776843 2.120918517760488 0.20492594127320213 0.22071249422584568 -2.3181024964503045 -2.5182507933715534
P 4.959691997378525 6.540021491955227 11.039786366500536 -0.355281205474072 1.5741964770447083 -0.33826101676699166
P 6.4720511362579884 2.029851348357314 12.687384043678433 -1.3492416626027408 -2.1488640017340344 2.110164785391624
Ni 3.121374745006627 2.241991884134688 4.027589044224669 0.21502495692276516 0.8111848471579126 1.9345728376535003
Ni 0.1922531212357665 7.311803347589098 5.597696770984533 -0.13006928071597598 -1.5079772009051575 0.8699821198017791
Ni 1.3885051670449216 0.40870406359206796 7.077079988812094 0.059029957479962855 0.18475793050810763 -0.6939705680277339
Ni 8.12833703521096 9.062657919117525 0.05481537680051859 -0.781163618205474 1.2806646848642913 0.465403867864792
Ni 6.009262892116085 6.489240333649191 12.964219063602295 -1.1679462367219369 0.18019216551429612 -1.4498021352263226
Ni 4.520889986197547 7.086770913768322 8.8218293993281 0.8004438065913247 1.9082264864494876 0.5147070849752942
Ni 0.3948778072155276 2.989525362185109 5.47933379276107 -0.6626804996652006 -0.0032599016981943855 -0.6675601963550052
Ni 3.756335832298975 5.312735267762434 12.342966267606348 -0.9333323019236508 0.8338234104930349 -0.5181613620724819
Ni 6.754015764706163 1.5785881052985091 6.536920695563089 0.201330233044492 1.4662021738509006 0.634538490013346
Ni 0.854642025890461 5.9262285829316745 11.860686634549008 0.42849722464642975 -0.757499698929631 -0.14139704702396938
Ni 0.9753277927156442 1.5155891351212747 9.67142326877339 0.13628389416712014 -0.00690649731184617 -0.9095259435326722
Ni 4.827880063788797 2.7376418291715385 11.120755350551777 0.21481181247069459 -0.26020541011414544 0.3770851887230409
Ni 7.220605105874663 3.2710686867756564 11.412896807738642 1.9227259656172435 3.1391241271929813 -2.3164832156793267
Ni 3.3132552463860914 1.0256033863925276 2.1288764795156743 -1.3922315359007056 -1.4647405017037096 -2.1124880342081616
Ni 2.5418385207621643 7.062438275413347 10.500271200038304 2.3961100234740345 -0.6514013272069556 2.2501919486512607
Ni 4.827468122239116 7.986067403644121 1.8746645405156162 -1.5204948737561943 0.6008117871848621 1.6108748063023481
Ni 9.313652032876103 3.731628701626108 1.8159478899934667 1.14682153892818 -2.5175231711769093 2.282551338818572
Ni 1.9971394443895243 8.536954965569912 2.0666798591295215 0.46861234749976066 -0.24938595090113821 1.8517640325863851
Ni 8.592520263237008 4.479667744305682 8.937301296857445 -1.7163926229312052 -0.942562305162351 2.102761036728385
Ni 2.0575918668050988 5.355127798147711 4.909699145401649 -0.39353562096958034 -0.4114089017055753 0.3177662392477495
Ni 7.580464136444191 2.0750525711267724 9.254642342115204 -0.22773854783469166 -0.7825527852435167 -0.035729335080809436
Ni 6.190554623207177 9.124701933884136 8.132899287873668 -0.8127154248698262 0.6432673852459115 0.6418249963724302
Ni 3.485072321834539 5.241974944296907 9.325512204583715 -3.9963895707590398 -1.7545056277528428 -0.4268285786947552
Ni 5.468870477399192 4.881376291399544 9.771452039343698 3.102157063050328 -1.1857624389677515 0.8232106679741952
P 1.818984086460769 8.99044643792017 10.262050083012197 -0.3459445014541784 0.8442620893278557 0.028126840143203168
P 7.257689207653831 3.591212807032831 5.000164318403813 -0.40267872092142903 0.13195029978877273 -0.6425572465527644
P 8.624689153343855 1.0923285551327786 1.9303103540310582 -0.0020028893626417117 1.8393867419679546 -2.1397067607147986
P 5.009967591055408 7.8096253480697175 6.916539813286143 0.06534561528534553 0.7570165886456253 -1.3914306372659648
P 8.762034210930425 6.364515667175552 7.438159864337948 0.46448264160210334 1.2610667081277054 1.6243957236069186
P 1.0860651711160496 8.975195238274052 4.864548479095106 1.953276070489959 1.6903810293587922 -0.6155850888392947
P 2.822614136101035 2.4224410075105265 6.632016466075977 -0.2439537241419734 0.04515808459387707 -0.6073377612288379
P 2.97968557653252 5.548347109563636 7.144757304270583 -0.9054011227310214 -0.30448803408160463 0.4692515237456564
