# total energy = -381163.3139578993 ev
CRYSTAL
PRIMVEC
9.34262998820035 0.00000000000000 0.00000000000000

0.00000000000000 9.34262998820035 0.00000000000000

0.00000000000000 0.00000000000000 13.67388335525065

PRIMCOORD
 96 1
Ni 5.957365366814669 1.4853099968743702 6.773617867053174 -2.115626065616511 -0.20605463510335484 1.1528975699189306
Ni 9.369910443102007 1.1945019539971355 13.645837850742272 0.4737833501777389 0.5696862694246512 0.14097744298804754
Ni 6.87980993627153 4.013294868207278 0.7869306560977211 -0.48479332813499737 0.015665731561714958 1.0476422629228408
Ni 1.9327939442413156 2.366945958650192 5.5529500093169615 -0.03926280215536464 1.8417539566485506 -0.9549951316090649
Ni 6.756730129130956 5.919266121823074 9.705968579944983 -0.15045272946833443 0.01147611896039959 0.11003421644197178
Ni 8.140130718362286 0.05554193513365117 1.804788702583926 -1.6809299112482212 0.4996401633398428 0.01800903498291092
Ni 3.951241119988992 4.391605983323667 3.4860883908348703 1.3737046807411117 0.9777486232554968 0.10545919547677965
Ni 6.08812481578533 8.138505100748619 5.612855886906613 0.09796905774732159 -2.1596909171462095 0.9999207884771617
Ni 8.224513352193597 6.698656341277167 6.597771820141135 0.5103349240495275 1.0278360268301912 0.1881764692713533
Ni 6.111873781152822 8.290360208177107 13.685916799023152 1.1922408476032436 -0.22722818385717639 -1.1570846114170845
Ni 4.652844602366082 1.4972498779678616 3.2851919502014093 1.2898412091572364 0.88158499414803 -0.14853571495127968
Ni 7.434762156109862 6.399580070882139 4.4246088236701135 -0.3866214103482503 3.3246377049201907 -3.0573591900093473
Ni 0.44581722218143766 7.970281705623888 11.884942692253368 0.7061871646985838 1.0477214529002086 -0.31552192329826306
Ni 7.511353036551523 4.666690379972149 5.506172395352171 -0.2645906836660346 -2.8975954675527325 2.555654173720676
Ni 4.525084137613739 2.6561844396935403 1.289957472861314 0.33020806455552804 0.07312345945855149 -0.8957885393419217
Ni 7.8928313032255755 6.795109653021459 11.797826404894705 -0.4655972148225207 -1.145944021419233 1.059139464929163
Ni 7.24258425775844 1.13190633324096 8.745856395000843 -0.3502503279183839 -0.9478436081659483 0.00027947891363177673
Ni 7.988135471484344 0.7603798360041426 6.301117159432675 1.3804525409879065 -3.1224114424239904 -0.9106965668020057
Ni 4.767600126209083 7.4284371956245 3.4088033529869137 1.4601960768661368 -1.212012888023848 1.232239242373052
Ni 1.3950975619457686 0.2538756923680948 5.51619516877713 -1.9849618316290139 -1.7105485054456024 -1.0980194298238122
Ni 3.052480117489876 7.946691564965778 11.43293878051003 -0.14554423642312353 0.6022528905067627 -0.15024164189879285
Ni 3.502832252255649 5.860678489321287 12.213854651437178 -1.7277322163137407 -1.4726864960236636 -0.007488080846929039
Ni 7.9191401492030975 3.5710988493997347 12.427221634546065 -1.0607440904121215 -0.01028029888008552 0.037635550964586796
Ni 1.4142873238910199 7.082171301283286 6.9874912207060875 0.19594068659780448 -1.2701465589417866 -2.290177230794946
P 1.2182602619945913 9.320441217444701 9.34361093975445 0.2278244226802786 0.47901811621411694 0.6875980888424867
Ni 9.42895586447201 8.67338935142512 7.516998787838531 -0.8538412483758585 1.7841640740492242 1.1396386480264953
P 5.465943030728873 4.9600302755695225 11.266035498999155 0.3520197611139808 0.7824761663693105 0.514624809674133
Ni 2.3069008758740814 2.085190924207694 9.676692514691018 -0.9252158434641032 0.8522008845589581 -1.570813162394772
P 5.300307544104062 8.189796139248829 9.615734656967463 0.9427715929596796 -0.23360477680748154 -0.026979613912637403
P 3.2642308256150576 6.143330416240291 2.2710130313948733 1.03115274990825 -0.5639768777446996 -0.9631563272636187
P 9.034239091139526 3.9807918585638844 10.586689898247368 -0.20243092230783846 0.3595746906431033 -0.5163309937319623
Ni 7.703549620162873 8.320378078250181 10.064579825520108 -0.8661935992936244 1.254485455365762 0.2886253560177352
Ni 5.696612564530361 -0.4121164873767099 1.9827947655435507 -0.5461053967809176 1.7957795468009654 1.4383357864579356
Ni 1.5506523508398464 8.365549694124228 0.3443478524096846 -2.0899448588003233 1.1872670485377357 -0.5057907563222709
Ni 0.8756370590761888 6.608070201150021 4.492704450685865 -1.671847489330979 -0.08131345146851156 0.4605575955160842
Ni 9.4149419195266 1.7508929388498624 8.357381432747045 -0.7270665792507544 -1.4381270128812393 0.6134708707097694
Ni 6.48707380049133 6.571577888512167 1.9197581726530928 0.6618299787394473 -0.36510333377081633 -0.34572492924420456
Ni 7.101146182739375 2.786009625667841 10.156413206747395 0.5366540215600305 1.2212097240317679 1.822847349552035
Ni 8.981107554536486 6.751965387849516 8.958663754574909 0.48300204056252943 0.18424653808932787 0.19230874627217204
Ni 1.6136123341646027 6.072298400626977 0.8746747681899372 -0.5102346510262374 0.3488691313001411 -0.41127648989276916
Ni 3.009382565467751 2.77634934628547 11.758801305273717 0.8193506707981567 0.2721037042136281 1.8069188512472365
Ni 0.8183751457662374 5.588424909551778 12.06852817382726 -0.3408809708883419 0.3378144161478763 0.2937004565477974
Ni 6.036740350985484 5.986981503799306 7.2687221336076275 -0.543652821475367 -0.2532459480771767 -0.2741027369215279
Ni 5.4925601834951925 7.287615734183032 11.781704762629504 -0.09656215009746595 0.3773466699145437 -1.543948219683128
Ni 4.6685215354450165 3.1111144631414818 10.259760445141834 0.2059438205571034 -0.10256310487590724 -0.7512809717134287
Ni 4.270254562726359 2.6753274884889735 5.533314603922446 -0.03755636098721919 0.5658992915783931 0.11162444374722712
Ni 3.930052035231528 0.5260769534098072 9.85705105187548 0.006939921652942886 -0.4523894578829951 -0.5330899583578561
Ni 5.403721115171242 3.301489233909927 12.526165691438655 0.11010595022017168 -0.63195941643226 0.9111377681044824
Ni 0.36851163054756103 7.534662898310726 2.3144142188908154 -1.5539305277068205 -1.979222100931759 -0.3322880870130084
Ni 6.166724361669166 3.630891681166828 8.200255213493088 1.2295544964520373 -0.8798273880269751 -0.8750163397915769
Ni 2.1698912074577663 4.517591348382925 10.40211970347531 -0.33885751270041 0.5971394805395974 -1.3811801631825504
Ni 4.152621508854568 4.514489595235007 8.226043674981636 -1.7950364979873539 -0.05450584435736419 -0.46506859601256034
Ni 2.880743893498829 0.4280167093117748 1.5779935574283461 1.1982713700680394 0.931315528603938 -0.07666721094575184
Ni 1.415959654654506 3.2051760616150893 7.653983231153945 2.162608347903321 2.065309833860463 -0.15275052436357564
Ni 7.0193888279278385 0.186895575369998 4.180146765253351 -0.5590249330560629 0.9323583680461555 -1.7635024319348145
Ni 9.059408136261487 1.3804109476429764 10.922670491261643 0.2831671611166413 0.6473883493928206 -1.2388086680604535
P 2.8269677154283 0.9173406907077435 3.7885410876987464 -2.981938706986503 -0.846928066195793 1.0183028905287752
Ni 4.268423407253493 6.163688006930994 9.933925948268033 -0.3496471471167462 0.5572871244293499 -0.5466877516469488
P 2.1374722814840452 2.0383656628300892 13.672201818236575 0.8724290386803749 -0.8540276533550517 0.22838723716228407
Ni 1.8989269106232354 0.6772463117989672 11.480646920419193 -0.03686807667094296 -0.7894561972315695 1.0338506084553873
P 4.318247652849415 2.2665500570612576 8.271837510011258 -0.4655856448582949 -0.7096149594332102 -0.9864602920968816
P 5.294664595606044 5.676339057509331 5.188486540332631 0.32843965980119566 0.238416339263512 -0.37656479744319665
P 8.67251114420854 2.2933073492770313 2.347286262417771 0.973038619374337 0.2529029629154612 -2.0570486222929345
Ni 4.4610310665832404 0.2591103679367045 5.177137113452839 1.1451341239234278 2.1509152278361086 -0.2773808934521675
Ni 6.573726693403797 2.209457245353647 2.4513033673806 1.0722814016277598 -0.8542886203259222 -0.8591482624110688
Ni 6.511187128427403 4.278896495442697 3.305319712195007 -0.3542339951564803 1.9628763125838837 -0.18432469962543094
Ni 0.9808546919893415 3.641785187704395 0.8892249800952606 -3.926358377072567 -0.6623691390723689 1.7263921573460783
Ni 2.390984545546556 2.943479653704458 2.8967440815745045 -0.7953123989020302 -1.2517806548400892 -0.3919937304037571
Ni 9.091929831164807 1.7204546504284268 4.29513118353046 -0.33264701301432387 0.5562144601904615 1.1802934454333802
Ni 3.593409049752831 7.61387905777216 0.30108493583720375 1.7818336261438343 -0.4782154178071635 0.4591344899163125
Ni 2.947590410888446 4.288061615436997 0.6416378119556707 3.615042264325535 0.42336118897144503 -0.6750783591089212
Ni 5.725247725368821 0.6292102455780789 11.31258141574085 0.10150278193219293 0.19769752138791113 0.06327999100556844
Ni 5.220652281034338 5.782256453406759 -0.0701351231368073 1.5724614966314727 -0.9177323906028647 1.0782425043072013
Ni 6.974170498903974 8.319116823205094 7.831662302064843 -0.7315451838473982 -0.4075049386654788 0.2820109360250111
Ni 6.528022547621825 1.4751452154739644 0.05301475372849513 -0.17155480155427227 0.1639818743030208 0.38060142940641545
Ni 8.421484019716349 4.553130712764491 8.393111386779868 0.22563692811065655 -1.2143230242142635 0.18871203005984918
Ni 7.776749125927743 9.495195110913993 12.213676207204875 0.06848416091432721 -1.6597568767150317 0.9876684534723699
Ni 0.8566332154672133 0.2427570284484046 2.777821744767735 1.1240104545709353 1.8668224695814044 1.3226829382776057
Ni 4.078786704252172 1.0114144346003042 13.163300355751867 0.07244545955492039 -0.6509917504733627 -0.14907127573977552
Ni 2.201189017835854 7.266949836703531 9.074590844215345 -1.5455091364123448 1.179845045042052 3.7191835123218397
Ni 0.4200446431638279 4.9733341806377 6.310264528430044 0.6738033490512395 -1.2926362554038706 -1.402030010048366
Ni 2.595859078018522 0.5409924621467078 7.515494624414391 -1.17702197377096 1.225158938487503 0.7297538962749304
Ni 0.7989630292278521 3.258195486658567 12.300984018477791 0.7791836116609677 -0.8824997926528156 -0.877695943506269
Ni 2.5796402724016976 7.766705798716864 3.407476699532081 -1.6320434699601634 1.352213086526239 -0.7489263554383231
Ni 2.9398360280186506 5.869068171028606 5.223341089937865 0.9211056779504717 -1.1718088050011368 0.10464312733338753
Ni 8.560072592596516 5.763879500268342 0.5363884141006416 -0.3850918610776013 0.41420420506252537 -2.1859596210347516
Ni 3.6646092327054895 6.777424054500348 7.656527229293036 1.8953002653061228 -1.0242200273441586 -2.0203656650496042
Ni 3.096483904618471 8.12825623567854 5.6875969266154796 -0.6334385720809478 -1.871858489343415 0.6580111192139892
P 8.129582889133374 2.6737205561352333 6.7404038832695505 -0.449461999823555 3.677705190572395 0.6200001871878548
Ni 4.564715573919365 8.83640890166012 7.430115131965963 1.9299983309089408 -0.02700146828950834 1.3369183651506975
P 8.54175169523788 7.91767335629881 0.2997489397524078 -0.08546732573588507 -0.04309863096168707 -1.444484836778467
Ni 6.635743071102229 2.6484300568237455 4.91764836900261 0.3692399816470092 -1.2695006978276717 -0.5449232035473582
P 1.2189235887220076 4.364017197041132 4.040892062856781 0.059568346481936124 0.555747804966688 1.121316966899172
P 8.786706110253725 8.436591052367504 4.627569985525533 0.685125201821962 -0.42542758458217056 -0.11346663916228847
P 1.2799963607941147 5.370209101491779 8.273533197349654 0.7108028090937243 -0.9363559192413228 1.0487704629900132
Ni 8.892175059912898 5.0333138650040645 2.550644486046643 0.330291882518586 -0.9647645522910029 2.337685303678238
