# total energy = -340859.5400252214 ev
CRYSTAL
PRIMVEC
9.39789207916174 0.00000000000000 0.00000000000000

0.00000000000000 9.39789207916174 0.00000000000000

0.00000000000000 0.00000000000000 13.75476501134129

PRIMCOORD
 96 1
Ni 4.210077028938682 9.255626651296836 11.187093619957594 -1.226440633413404 1.5778474435337342 -0.7406636012088986
Ni 6.117426187515161 0.9204849841147844 10.203518707674716 -0.20670075332778598 0.594517469535718 -0.23154738005782058
Ni 3.5588031175329506 2.629144851096043 9.79170026351927 0.2448618377785396 -0.1857082102365189 0.2643741967798544
Ni 1.4380278330109566 6.198473607601208 13.760129297018187 2.379167739192741 -1.0450719310925034 -0.825158021508553
Ni 6.712735652421309 7.339001773376092 0.5952681141816136 2.3477308608396985 -1.5523187031350103 -0.940023340790581
Ni 0.7031361780737324 9.183347464390321 3.754170254327567 -1.3714837618303928 0.6427192260519253 0.7510899387485451
Ni 8.599315469811545 7.861609146238448 6.628311569761409 -0.19678349421407398 0.5203714823499231 1.2085352138878926
Ni 5.0222710440240705 6.656085159810144 2.4982782660496374 2.3052464664232426 2.489520001095764 3.6096861422199447
Ni 5.966524236642985 7.379929592772513 6.842555312305657 -0.4070112868585119 -0.09202209613526732 0.713951639135351
Ni 6.484977741268093 0.4743557762775012 7.354755459634237 0.23177106603285247 0.902852902387871 -0.9978500219910622
Ni 2.8264911839331135 7.593092577743723 11.060426013029748 -0.10628014871617826 -2.712232299360458 -0.5802177650835942
Ni 4.0703867631503 1.4682138619205554 7.723561631961088 -0.6360729243800013 -1.2446882667696824 -0.44746630954976485
Ni 1.1850929693518824 8.772809952906224 -0.11106710630831669 1.692822291810433 -0.5581949809555999 -1.0233857043683212
Ni 3.792162172282095 0.8952723196195564 0.33610714711263623 -0.6200688356422612 -2.1941005049743314 -0.4589843374916934
Ni 1.288150252360183 6.870808194843306 5.966212226630595 0.40578332798868183 -0.43953137097340433 -1.029181485114492
Ni 2.709618999773782 7.913513703420178 4.362667780992382 0.483151164545884 1.3305787960859148 0.8317791263694966
Ni 3.742804443815964 5.079494808043544 9.802044523177049 0.72505057726199 0.22435189075064588 -0.3970552040870646
Ni 2.3402724486604107 0.16648553528621646 2.2402243706511302 0.7104791072057183 0.42605956173921455 -0.5209384105969866
Ni 9.349690151719058 8.84561542176135 9.259184693185121 0.9543891225939499 -0.713283666534049 0.2963152684628252
Ni 5.611302717114647 4.092218066125705 3.809849944701384 -0.7154588198084969 -0.7418789616732384 0.6515458232046197
Ni 2.06500819375314 1.5895312489672593 12.377018985344757 -0.2079189420056032 -0.7005541347825225 0.07790853955202066
Ni 5.7329302345953534 6.250274787971603 9.11312359645097 -0.6690308673632607 1.4255620317320352 0.631903366383344
Ni 1.630515455715317 2.12911121467231 7.55634494068198 0.4716547338705103 -1.3786337426116129 0.49383898327703335
Ni 8.49452897468638 3.1003175613736436 1.7397574914089873 -1.2971680818359532 -1.1716409119647047 -0.014717508715832718
P 4.306574583373227 1.904962094023853 11.746101847669125 0.40410182652120086 0.9390720326209054 1.0398217384371577
P 0.11493809799818712 1.7367492261991606 2.9229154348105317 0.5978874144492154 -0.9087908651388606 1.2492476040055904
P 1.104618820674144 8.556028779538316 11.47323405520642 -2.114718466200577 1.0485143811151492 -0.3463329951418487
P 8.235880192728105 6.541195930850042 8.871273546334509 0.0007618178666890105 -1.3617583070125128 -0.03667832925764006
P 7.617686860949332 0.052927987613938444 5.232174840070669 -0.5415280618228802 0.6541176976968541 0.7258900424441499
P 4.875137647819624 7.2818343967082555 5.011410840098811 -0.9431762845972661 -1.894258711415486 -0.07434139102605261
P 6.190710948859201 4.549942393037915 13.135704223094347 -0.41520616396447846 0.13259384691004258 -0.4465800502900696
P 5.634665876476186 2.4810152783460127 8.55201118073419 1.7822899969549626 1.3215519099969562 0.8172955880413408
Ni 8.141910671225277 -0.037436502540905164 1.9063144506739436 2.1059993411600244 0.4599968379166077 0.6866799479035915
Ni 7.256779616797612 2.3293239045509204 12.671081843498563 0.7504407352003205 -2.0166671331520947 1.5261759833013717
Ni 3.0212812901626456 2.678098470208777 5.90822159462886 1.3403451314440593 -0.21122049557501046 0.6593159540683419
Ni 5.54140119686882 8.870595018536477 3.8642637390309535 0.33184739993116397 1.3796755536125658 0.14764559903684252
Ni 1.4717286735059196 4.925688908562069 10.106574753373046 -1.4554580479605193 -0.14345007289825615 -1.6242118897308866
Ni 7.726411072797137 4.956175670013732 3.664544438479166 1.4652151273472829 0.8184921794526033 -0.39164174638097715
Ni 7.982813758581878 8.755893747415167 11.759347236568622 0.6638079284014244 -0.2396034175930777 0.27898346205259694
Ni 3.0288559910658632 4.344307119510226 0.4906526606897476 -0.022488668020819332 -0.9138649372276584 0.543860823721115
Ni 6.117520166434557 1.8194036858068576 3.1495380806174587 -1.3278991923712227 -0.8240349636477035 -1.0215733337499309
Ni 5.0483689899399975 4.8474044687062285 7.0326182788896325 -0.6733238383116598 -0.24258512592922096 -0.2482659783640821
Ni 2.6748749932735367 3.0654325864943064 3.7958198318249394 -0.2337965811033135 0.6699045282174657 -2.149137567110395
Ni 7.0601099321801835 8.348325969783943 9.003896597384403 -0.09451015266444368 -0.41484955195600814 0.3531109372956306
Ni 9.163358148235055 0.9826811727594347 13.71559080753862 -1.2733547814664392 1.876715303215084 -0.13082004283907148
Ni 1.2387455344343545 4.855091944312721 2.078262040755384 0.34944145886384337 -0.6037127628817409 1.4807759579000177
Ni 7.348051943313808 7.309210455927952 4.766590116340281 -0.8686968253314522 -0.5183588227952686 -1.276441647921879
Ni 2.4894733810915417 9.389574805110195 8.869127067815532 1.0204564465366683 -1.092352204235706 0.21731452428789025
Ni 3.2046529576857132 6.637242386471493 7.704566612773018 0.8146308967249841 -0.5726003577476526 -0.5130806051154648
Ni 5.864096612394629 0.338553418384482 12.845217262823512 1.1229838130786338 1.3852813298351174 0.5067456640363724
Ni 6.933445144619918 6.556881012497028 11.822578133115812 0.6387162755401193 -1.760008045628311 0.5551744489617213
Ni 0.19020111559548572 6.896267084107348 3.8090379668378134 0.08749361213729448 -1.6507482454585183 0.8419097870455953
Ni 0.7745798923868278 3.4056174789194817 13.671301362195448 -0.07268097260449419 0.02178392864431087 -0.16009462343347267
Ni 0.264447281284933 3.706152665252005 8.117113393553776 -0.6305206271032044 2.2111890850255014 2.2293014783554965
Ni 0.32313523686857665 6.2333867761563635 11.66687385946256 -0.42824911319136566 1.4412110511232017 -0.2620074963198907
Ni 1.3162405513672786 1.5662526706331756 9.85750336309029 -0.6179181078478455 1.2540401402982275 1.3275544074372945
P 4.111793875035635 4.830215724348926 2.585648587832564 -2.380379243002339 -1.5946570588919053 -0.9470362817733045
P 4.2890757085819216 8.394986503263445 8.122188255201094 1.718895591858717 0.7359150307803196 0.299074319265201
P 8.82406605554413 6.925137408145421 13.69949785738146 -1.0051290721509785 1.1377337176942985 -3.34949795849698
P 2.522328411311952 4.338527415967448 7.9498280976635085 0.5209031864836771 0.03437976303145047 1.1998690535724625
P 8.901532878801236 1.4566732506188782 8.42102430267096 0.35293147429497285 0.3614518530611581 -0.7932958826926338
P 6.844277945898163 1.313665528975862 1.2044526267472042 -2.1719607356524984 1.7775807644047517 -2.7278386384391475
P 5.897271170940982 8.085391749101266 10.821189516661653 0.538796264714014 -0.08682975330105044 -0.011862298655224732
P 6.712942406043978 4.319825611007889 5.680580217335693 -0.23097068161874415 -0.4775412745582744 0.6971083423257672
Ni 3.2677691999512386 5.597722763262104 5.096552921702887 0.8731263218577155 -0.04294050811726798 -0.48750661330110234
Ni 6.2784778616819725 5.008672294387648 1.4952938875441573 1.0137849480537637 -2.038853182330831 0.7977503189195616
Ni 2.370665231192678 3.9216933168839017 11.740365374429269 0.03509632948250084 -2.917079544419273 1.633126418611697
Ni 4.552489221753513 6.0482201112728555 0.46479248143988977 -1.222594005973804 -1.010392377432447 -2.1716018096511824
Ni 5.317411840383334 2.1785817178417153 5.628875835252274 0.9057554207466466 0.04289294270878419 -0.13286664095545506
Ni 6.1298314048752705 3.248635091962464 11.039010096878068 -1.3674669273615159 1.0887182070275443 -1.2237355757774149
Ni 7.680605747484129 2.615395735188589 4.4867490880584855 0.694634683974294 -0.42356996254814144 0.15339381437452937
Ni 8.143649281234081 2.7574824634215362 6.8504918320485455 -1.6059382882326794 -0.7123151319731926 -0.7431071776533847
Ni 7.02157857522833 4.581115200601158 8.342526530668092 0.8156151150151243 -1.2196678334659445 -0.36765875320281843
Ni 1.4004080715772316 4.324740708492236 6.084695209468352 0.43286964268251255 0.8893844355877908 0.05909500638994339
Ni 8.235006188777733 4.343395523992097 12.581497378374694 0.6487232661541602 1.3227947812651217 0.4522670733725179
Ni 0.5568420136194816 2.3023049652249252 5.246878781799174 0.1466786071378829 -0.26794417351929983 -1.2434636503339618
Ni 8.472368745493096 4.5325844866257015 10.317269851920948 0.19492021575309013 0.22837566719805832 -0.9971447683939213
Ni 4.920200539669414 7.706731887075874 12.849536533958894 -1.5107995008453012 -0.03349298955112296 -0.9259388376730571
Ni 5.423758385570451 8.757218850178631 1.5322116264500034 -1.3382928769007212 2.7828360777209493 -0.49349856921847907
Ni 8.612754455284998 5.177655789351378 6.150484212201464 -0.3841526370927836 0.927930157071473 -0.008514722339230497
Ni 8.415116787797803 1.3572999412508522 10.467224495285624 -1.4159823584634001 0.06616605430411186 0.5314508800925364
Ni 0.5554060157311295 7.451908047136965 1.6402140801968565 -0.5479766456617013 1.3054652888477387 1.8126374988985687
Ni 1.8756030796049281 0.3707910071044687 5.869708093671691 -0.24019554265112183 -0.4700696487715775 0.39198858819743454
Ni 1.0152166746539026 6.2124106813474524 8.28954309549171 -1.9926255188218587 -0.082266045189768 -0.28883952891107034
Ni 4.131736201731204 9.114695863772445 6.037970770323662 1.2332921091175986 -0.43114366113034136 0.1896895634817701
Ni 4.973298629127458 2.7457820879568877 0.14345130214255922 1.1450780738745117 1.0671808471764008 -0.674732031513096
Ni 8.639763996719052 5.230302779996325 1.0915219184672893 -0.5455412967473314 0.7443888725792858 -0.039848499455505566
Ni 2.7739475700994993 6.705602652439246 2.5848225131310834 -1.4015975504966378 -0.8557981149919133 -1.7116581935700133
P 3.4047340770771712 5.616358782978086 11.919672453688515 0.8291545442624558 2.094243486175677 1.0395617999075515
P 2.3141839006364235 2.254037392223773 0.9251190846301403 -0.05208617917227804 0.11042322435027434 0.22368340392871153
P 1.28730444208563 8.254083909414872 7.539481363385783 -0.07674074449616461 0.6020567153355567 -0.5301527301064032
P 0.5490013523743762 4.597232585277361 4.151036652407307 -0.15832801845135314 0.33469566801323647 -0.37687718647729285
P 7.788352578570228 7.453402311955342 2.4734368182860185 -0.401500898563244 -2.6797826634721846 1.9182833564648578
P 3.1965989642935817 7.95943180343646 0.7343136845829462 0.28995153102832644 0.2836551564966534 0.407135471141202
P 3.6938414268112907 1.0509380619158535 4.380576403872249 0.07195746417490834 0.45106071176924245 -0.8184559268980292
P 0.16223204939440933 2.736196238178622 11.507208374356823 0.5335118763866231 1.3052184629442554 1.4296822245479959
