# total energy = -381168.1205616429 ev
CRYSTAL
PRIMVEC
9.22783124821751 0.00000000000000 0.00000000000000
0.00000000000000 9.22783124821751 0.00000000000000
0.00000000000000 0.00000000000000 13.50586379524443
PRIMCOORD
 96 1
Ni 1.8410815376557605 4.687765993232251 4.162007535518014 0.5143661566961077 0.25832490526198093 1.885658371340985
Ni 7.1261096851389985 6.3003295161195885 9.358037863851113 -0.8529914987810534 -0.22410069397178825 -0.6259486914618059
Ni 7.662828038110079 6.599984882521422 4.369376283687838 1.0991725695916488 -0.0008687757581985038 -1.3573162120807591
Ni 8.89610923814926 3.203460097839112 4.386974680795125 0.25488734033534166 0.14124869437156318 1.0511348494571315
Ni 0.6656754500792111 0.9657202309626809 2.717271503601231 0.23792037346369993 -0.4209785476718814 0.4964872195331579
Ni 0.77749830999537 3.8124692813584002 11.879743938321864 0.8734099145364055 0.5028548136223985 -2.033348707572834
Ni 7.3311151857081835 2.782615622732961 12.974799607476731 1.1249370801502625 -0.7938214161788006 0.378501095233961
Ni 6.462324094913793 8.854500946734673 7.613808875363699 1.7684947429430833 0.16766240847840155 0.646201785283887
Ni 1.6012317460283634 7.9069779991318425 10.632559164835277 0.78577026373955 0.8226902766943509 1.6274149700492169
Ni 0.6776780902750312 3.489550552202924 6.827376179085872 -1.5349442164123048 -1.4583651943049851 -1.1113706543197375
Ni 5.2886270016974075 1.8650000764330081 4.5272192611719015 1.0001321331570194 0.6215114816260586 -1.0931335624864205
Ni 5.326664122391779 1.4228854501379853 6.791855487992021 1.2193019654860935 1.1270548978242139 -0.684063336216351
Ni 3.116607749470496 6.950771662258414 9.11287930086625 0.3654067239438481 -0.20204679949554236 0.2668049177085341
Ni 4.007573318922961 9.287258552072856 7.857819496132556 -1.3194448909562826 -1.942596479288925 -0.8762175591885297
Ni 6.9456594437080295 6.2094722889587946 6.54665724533249 0.16595262487614645 -0.166403596370636 0.8192234011916729
Ni 5.400246849324562 6.716624670385777 4.580000610746786 -1.068672601230579 -0.7903938785544904 -0.0887879054686858
Ni 7.582204475881372 1.3537874492259374 3.4618772088622265 -0.4073229045616598 0.11488331700415699 0.28900279396181194
Ni 9.14221549941052 1.6821782823532145 11.815767383791519 -1.2283774454248004 0.15569392326261575 -1.400816192245923
Ni 5.271509374601808 8.939396994863792 0.3130403357291478 -3.117253295261819 0.6048008537395971 2.5676020901111714
Ni 3.4662133667987347 5.683301347184625 5.973090316340846 0.2037290722939717 0.3920004152719765 -0.06941284337618368
Ni 6.064115490031634 2.6608636163182227 8.6789082357097 1.6218498172566131 0.7138459667954222 -1.8642575370677057
Ni 8.44353025113919 4.003079365070908 9.67258879556708 0.04950324893645023 1.4093224299447211 2.119812850004349
Ni 7.87110941879729 6.5398286501568865 1.175287971335674 0.31234635378375886 0.06579838655204798 -1.066077586809893
Ni 2.167839044639684 8.120002485116702 4.549058769553117 1.47541829313253 -0.41607571105362534 0.5208376233530643
P 4.350802504810197 8.039388150719311 5.968525308187641 -0.8286534362563213 0.0015604025085844094 0.3364465892660722
Ni 4.928593934979397 6.522304998483278 1.5082945656884061 -0.09240621894756343 1.0021913296788934 0.4707047112524152
P 8.308259471843023 2.682871994012565 1.8517489106598106 0.8122742235673495 -0.7604693230809161 -1.3129981068896743
Ni 4.8764382323678985 6.342860590666013 12.667946532646559 0.24391978558024444 0.07704336333824795 0.2075553880185974
P 3.0058460901559516 0.3498916800991082 9.722466146626068 -2.1075024080681124 -0.32192731260397456 0.6238087623006676
P 1.2164865470397246 5.493014237568261 10.16301388716323 -0.4896678826184793 -0.3379270304663406 -0.4452986124744847
P 9.277384772562188 0.054199667248519455 7.385627676438396 0.25731934681560203 2.5954980451904914 2.369487278680184
Ni 0.6108935066745017 5.948509219274937 6.287763055430215 0.6692620095374602 -0.27691218134586504 -2.538657124942047
Ni 0.42668384676442345 7.629229504279849 8.730501040610777 -1.1752319717500728 -0.38687723511279826 -0.7617625879710429
Ni 3.21739412312987 6.103684430724858 3.1772143000033686 0.5658794940840512 1.4289582018977778 0.28727629818900846
Ni 5.489249282390361 2.1977279902799247 0.7032696348703013 1.5494298116229897 -0.645813548706533 -0.05143363318994367
Ni 0.7482663859449978 1.2509617248452014 0.3532201588556487 0.5591920547615467 1.0470732777932483 0.8268006993182987
Ni 8.341350474950742 2.1214322809395383 8.654692560764001 0.35235837540032217 -2.642149169390127 -1.4640861559491622
Ni 4.1073999981252225 3.18270670520407 12.567152776722128 0.6971366244605414 2.559022061751645 -0.4148618932511823
Ni 1.2975807286656698 3.0119549144887205 9.170346543184609 0.2893090123483211 -0.204215525012087 0.5919448237125354
Ni 8.498094417724786 4.69496370166059 2.59550288709012 -0.40792248581887164 1.533902662521668 0.6283279903272598
Ni 0.004197740466732187 8.64434631628983 12.458011524587093 -0.24185493263141578 0.5065484604239018 -1.798580249474554
Ni 7.584788268650518 8.66557032832211 10.038571045136052 -0.8218240720393136 1.471705105947001 -0.3613466949418615
Ni 3.7360905215361484 8.888339404179181 11.717579567431402 0.16194427504770173 -0.5094874884475676 -0.01980623609264976
Ni 3.938650646805962 4.315404543872882 1.68188483731729 2.14176081503035 0.45229766950013717 3.1521452220429973
Ni 5.0550890466917835 2.81650944716538 10.598943098125542 0.8384084587605561 1.0600216104238003 1.2696467364872328
Ni 3.3262825326867826 1.197218835246942 5.492240945303781 -1.0247514743675965 -1.5887430074003155 0.2702890196023926
Ni 5.985485139367697 0.7531875883870912 11.824734990266723 1.0348772499476886 1.5343058114973576 0.07642449880732644
Ni 3.167388505215555 1.3591395913905993 3.0778646996802674 -0.5388476867772397 0.7479992156383635 -0.1942357880915558
Ni 4.407073820189693 4.888323679105976 8.312629772755407 0.16155603847034758 -0.17785477563037114 0.8295913746895583
Ni 7.9849531737721735 1.6016931375942824 5.869189549611518 -0.7973232586844721 0.048368878221690885 1.8030220872959917
Ni 3.0298292237524276 3.2178278312018334 6.55546244197649 0.06972754640312508 0.9517622264940642 -0.976497010236583
Ni 2.9253424897343825 6.176528931152169 11.37698861851809 0.07706187528100922 0.043821882280956785 1.2965204209496253
Ni 2.144695643693181 7.414876210585142 7.088930752757236 0.6743407096119484 1.1502855862173802 -0.859506674191752
Ni 6.732911792662722 4.441401352694076 4.736195497557386 0.18020939190547675 0.3156887878934305 -0.7839586644521079
Ni 6.3251339267034 3.3210595801605782 2.7618004036280857 -0.424858599452578 0.15501155248361045 -0.9963191871688325
Ni 6.900627626874323 4.435661641614042 11.45583582321801 -1.504860509653047 -0.3545078176431572 -1.4956176508985404
P 7.60354844972079 5.933144880129832 12.569015875865311 0.46675523968636384 1.7428582733219016 1.7274766486595088
Ni 8.700931377934152 6.96801847899247 10.921111604594834 0.00487584003506257 -1.8673490315088355 0.01286862843255203
P 6.5550453440008996 5.667853957557654 2.661654441462208 -1.260933782094267 -0.2724150648064599 0.3886086159816081
Ni 5.063873942106884 0.7808258659687786 9.753340624651113 1.0551948784591183 -1.897243247965107 -0.408452904401045
P 2.9218082303394426 0.42984899290662865 0.21114754509470038 -0.26605646957828377 -0.35037656908360304 0.46444201817215497
P 2.798182974167072 5.014837246481 0.27780386183990435 -1.9385760452756227 1.4946930822017421 -2.6490245563537216
P 8.604048376922453 8.744883538503608 3.708372884605123 0.7384105435086639 -1.8903408644183186 0.5606637542110667
Ni 4.538275125874455 4.479041676641758 4.113953603927538 -0.6940654417343853 -1.1764992684982705 0.21264488672636278
Ni 5.1249806410972125 7.0650675809678996 7.83519746765554 -0.4404027178347641 -0.4885970181518036 -0.0577390065826812
Ni 7.4498035521252195 0.6699968434856097 0.8651802403995084 0.8959407486490698 0.2245858611383229 -0.0001802343316061412
Ni 0.2957390747903125 8.278001412950045 1.0190229530070536 0.6706354928462192 -0.8808116063171154 2.4392179104071023
Ni 1.3956172085921652 6.116751039871687 1.6213650283988101 -0.3837883117748293 -0.803635316945429 -0.02516904306645988
Ni 1.1301048180683464 3.369551833738678 2.5396966544090698 1.8982122967465955 -1.5416751073782353 -1.8899392581045258
Ni 6.821351328018099 8.745492575370621 5.193450226696479 -2.009718469748403 0.8094123286385222 -0.664692644999223
Ni 6.694856216305713 8.021855271214385 12.647539183685955 3.2228307614840173 -2.5214759851770703 -1.3610671944827593
Ni 5.4161187191921805 7.4045225838459166 10.532196348633416 -0.7274100786331021 0.09909417249070032 -0.33638231168704
Ni 1.9383336519201935 1.310859577932822 7.599331330808289 -1.0541785213794619 -0.7023243393090679 -0.0364538719516598
Ni 6.143760902140593 4.585909191139946 0.5165887617331603 0.38893077520771724 0.5092990265858455 0.030806443857895334
Ni 0.5232946267522288 6.16597229212394 12.858838065214275 0.8672966025498161 0.6438759653641878 -0.1706880826786028
Ni 3.7820912606582855 2.503566003665075 8.637688435993617 -1.114680949639893 -0.11708032465547577 0.40781295682420093
Ni 2.7122718645929313 8.213784934805423 2.261530138798353 -0.21751584166541893 0.9381711180731908 -0.7777131977630284
Ni 4.482732809169111 8.811370063152554 3.8947261697304616 0.5183824769443524 -0.11606499601708399 -0.3277611456769323
Ni 6.630224485751762 8.070532081418852 2.5892501085887836 0.19114275098852887 0.7553805957040991 0.08514053852408562
Ni 2.570680020843671 7.533186235918124 -0.024737970198319734 0.11630719393487711 -0.3680809283419016 -0.503101639525882
Ni 0.15142040688646982 4.1356648454534275 0.4083582965492477 -0.6848220687592464 -0.5797439107709693 1.6466900162287446
Ni 8.783621974378176 8.022372029768215 5.931680423299603 0.1028883494258099 -2.240144334607271 -0.40243395190047465
Ni 2.0338047947401785 4.851523087808267 7.898283536463662 0.7316565126142819 2.1438002140578822 1.6965658180132652
Ni 0.6965407002729368 0.6620738275156465 9.841696186741494 0.5161080790878788 0.11523735790946604 -0.7099029229872742
Ni 8.774449510047706 5.416321731481184 8.049589518241785 -0.2718890170996608 -0.2797666200755246 0.4047749413288254
Ni 5.2916075912132445 3.7405106527376537 6.439852480087267 0.8049373235863041 0.25975932371566235 0.33834920560542375
Ni 3.4113631374422693 2.426135271072528 0.8898490018629402 -4.455705323448224 -2.935263414417151 1.4071272220656155
Ni 2.3342537546353936 1.7277729968973423 12.016815067508249 -0.22142700379436706 -0.13686239237840944 -0.9505712915097565
P 5.760935092066178 0.8982860080373373 2.401477583006678 -1.6947110241927135 -0.27470720327474624 0.4815779065214933
Ni 0.8863248930824499 0.5305532388672685 5.349267695206159 0.42710420095364504 2.410778424119487 -0.44623089448076697
P 1.854960195958608 2.662801460895083 4.653134865077494 0.025539796142317307 -1.7876684876580569 0.20186193717824588
Ni 2.9358345339433836 3.947749288485887 10.651277820664616 -0.6942001675400367 -0.6272465843376229 -1.3254090789595174
P 7.289036274896359 2.3245460760884553 10.679559278089194 -0.018877553630793294 -0.9702363740388517 -0.09482716968423023
P 4.8175554407253 4.9760711271124745 10.907889045098722 -0.06834377868172102 1.2115020098257006 -0.63460662424712
P 7.839116527616458 4.121896921126401 6.410058581109606 0.6414758405631276 -0.6916028391265058 1.0570591853613667
Ni 0.6851037261369335 6.540059345939847 3.922535162191539 -0.49117737728447025 1.000540938559664 -0.75429867549383
