# total energy = -340891.891137041 ev
CRYSTAL
PRIMVEC
9.09168170179619 0.00000000000000 0.00000000000000

0.00000000000000 9.09168170179619 0.00000000000000

0.00000000000000 0.00000000000000 13.30659517185141

PRIMCOORD
 96 1
Ni 6.501870517082644 2.203814487230304 11.6142484510243 -0.7671950718405239 -0.20333415084839818 -0.12512273534397805
Ni 4.463933757563745 0.29949089635993087 5.93921271918467 0.1379229724324399 -0.01254209833106872 0.637571877523031
Ni 2.529842183351487 1.3600973587377796 4.824412562131999 0.45118952403762297 1.4919885387863854 0.08809756426988054
Ni 3.397379517193635 4.2596709508500075 5.1292130004477245 0.1943363182251621 -0.05979871732518733 -0.4331650624357444
Ni 5.215897637053063 4.63603928705549 2.4829972947774657 -0.7479585922084151 0.527253039961105 0.48192063457289264
Ni 7.371389837476782 6.365531662341057 2.6540400067099097 -0.07374669486484718 -0.3253201403356074 -0.013967260813369492
Ni 5.1350544057672405 4.526175408641425 11.361050578175519 0.154424826742205 -0.5592218795582176 0.7212468872451837
Ni 5.4863115178598765 7.96791323953766 12.701477174968854 0.3512098636181758 -1.1034151469180866 -0.7102559354513187
Ni 2.2249344631948746 6.144321961439649 0.3411744373854858 -1.3412522166393612 -0.025605359272930093 -0.29239150792838675
Ni 2.811411557274327 1.5546138829573197 0.19517021611444027 0.37510492506821846 -0.14547070287271077 0.9248528036977297
Ni 0.587277162045394 0.005498648929561952 4.420357328464223 -0.06973551682292506 -0.289606746094398 -0.1018992460396632
Ni 8.811139417232903 2.252209507488337 1.2243267340856407 0.045674619218979404 1.1108201811329061 0.030743194720127695
Ni 6.713452127348459 0.8669681945845576 4.734565838724906 0.24370304158374803 -1.392040760046138 0.8340872056773828
Ni 0.7406474636119607 7.436977227321128 2.2329133228188556 -1.1055098246635864 1.7063961738401259 -0.7390882863019788
Ni 7.637648819869559 4.276190536010414 4.0086778107482814 1.436658398755513 0.3796616912009655 0.09834983812550803
Ni 7.762623072822203 4.109912774316038 12.872054392812021 0.4594363374274475 -0.45759954132902486 -0.3584079240285118
Ni 7.658314211762572 8.670218355050014 6.9336671983013005 0.47698848737859784 1.1904711572973306 1.2318906007843815
Ni 7.045616708435672 0.6607488580268359 0.17133546407452688 -0.29371819715961023 0.02144865679207919 1.0535077205646823
Ni 1.8040168879767366 6.434346599093462 9.367590324217826 2.0454254362317097 0.34378374635743375 -0.45162018381713837
Ni 9.231056907493613 4.993551475972759 1.5590142567699983 0.18836518824339174 -0.4420050293248775 -0.4370196602951441
Ni 6.214527925451021 1.8980885157448877 7.042568267651807 0.7599180785631364 0.07182608080336662 -0.23038447009797094
Ni 3.667620656053257 3.9983032930671913 0.40971389619052667 -0.7373761887068785 0.9188351367487402 -0.3951230200613582
Ni 5.867107502922331 5.66084452629374 5.007590850438747 0.012114266765030749 0.339747371504531 -0.12707883062908437
Ni 5.710412373456392 2.935176616596627 9.27792998028007 -0.9000455148460629 0.005218310976145852 0.21255875477045974
P 0.06915314730164372 5.880872308609099 12.54983520204235 1.689863466292425 -2.1933746825519 1.3016052916717002
P 4.23913284249703 5.979571602225707 12.793585908716018 -0.6973004037319152 -0.10774413485621444 -0.6787396100105922
P 2.5030853648996008 8.329416676603207 1.3433277523380158 -1.2997181019513164 0.8415842853853763 1.2906745036918095
P 6.116183207410227 7.803381080678067 5.856405684709721 -0.40040560861653623 -0.24427896869187604 -0.24341893468442594
P 4.8522121964440394 0.9116774471904008 12.905360858566912 -0.10850775249511635 1.870017065259302 -0.21067413615323718
P 4.004767478564742 6.192407864529023 8.449408688131577 -0.736637510768641 -0.7330616204919246 -0.7006523509232836
P 4.6528225309774 1.3315676624068182 4.034412724207306 0.015534605300489375 -0.5442999681410625 -0.7867873921501547
P 0.21184435985917674 5.952805692092389 3.7072703879426627 -0.7175923212117319 -0.6933540174896575 0.5352861946782265
Ni 1.7717686939404336 1.2942008517247752 2.4660713114570867 -0.017382714252821674 -0.2598850506602492 -0.3309423716183913
Ni 1.9017342799987802 6.376078012801195 4.918849675493683 0.46739595859415634 0.7357011149973006 1.3028623040072531
Ni 6.012401663873604 5.625523343933708 9.327204166132496 0.5912768511112333 -0.5835316599481757 0.1111611309575634
Ni 8.359710159131811 1.9965150589185607 10.142752538046876 1.257892424164782 1.7392589860064176 -1.1661814315120302
Ni 2.4621273400522523 5.199541702158417 7.13800364763463 -0.15401576422924443 0.5411333974876229 0.23415602132526123
Ni 0.5786991606151003 9.032840068931593 9.264437015868094 0.8258463058248293 1.0446178742742203 -0.42155216078716434
Ni 1.3903362911777977 1.2035840629004628 11.395594421773188 0.5437965461420828 -0.6531239663250172 -0.9336408343030049
Ni 4.202229707567976 6.994566917199743 1.6030325415870734 0.8981508689265113 -0.6302210935849146 -0.1727809606518895
Ni 5.547998576370256 7.713100684066707 8.305591016244724 -0.3901394508038378 1.2209410437514137 -0.6838188243057126
Ni 5.616404387458259 3.2286560931942785 4.559079112908914 -1.1310071976037424 -0.405655801271882 1.040746307133956
Ni 0.5759516544866055 7.430994900939428 6.873667555864542 0.7528213196173551 -0.5136999838670185 0.24375472075728988
Ni 5.047419688452347 4.387900025755004 7.315420537418455 -0.1804166228202764 0.9397104375358526 -0.3730128184258802
Ni 8.356000753107901 7.256525534275583 9.117958208826343 -1.3048132570860367 -1.162018301273276 0.01973475942476601
Ni 4.403328609143672 0.22028507689986013 10.872139954206352 0.19058662137474272 0.7316351724580432 -1.3372207268824647
Ni 8.0470108679887 7.558978500445783 4.869748231588448 -0.5245958048439158 -1.340522280451872 -0.6328945266520197
Ni 7.154816894105262 6.120565397860044 7.179094411030873 0.46278777039818364 -0.4653426756095534 -0.5710150155384037
Ni 2.296331437473727 5.843523681289918 2.6976728042343043 0.47795573638787353 -1.9248178151492659 -0.8113938778449252
Ni 2.5247144750243162 5.058520631479787 11.477230447679807 0.09037119079540566 0.10540185987628299 -0.30667989952660085
Ni 1.2395871213678327 3.8156059547081513 3.7778491108927117 -0.5217357096873014 -0.5375312819586614 0.23355952539184294
Ni 3.9380072618157773 2.57729166874068 2.3851135249852327 -0.4159067895759289 0.960375422084372 0.6832624375816104
Ni 1.392354644455514 3.2779511899139955 8.170009498566355 -1.3369798145162524 0.49671553349388 -0.1632354830552995
Ni 3.7168793860472498 2.4916207546149156 7.0696605691485015 -1.2471369854204908 0.0367919720173689 -0.5510002629793738
Ni 4.115776908839132 7.0263059770759 6.136948607798983 -0.7740390913455508 -1.0179249383640663 0.3622514661443181
Ni 0.7800117167044281 7.397964822300046 11.287958005309756 -0.1204942354330312 0.303169058159865 0.733320530580266
P 0.41778821846953457 5.469310073583618 8.112791001479385 -1.3048723924587462 0.2009898189859377 -0.5916116087428327
P 8.280839822716551 1.4370311670082048 7.9277098242490975 -0.14749853193601695 0.3309629404436817 0.6032584489531417
P 1.6629867256166755 3.230438062754785 10.44722022082222 1.1443136849046616 -0.4617122779458178 -0.354791410321847
P 4.057944723255562 6.073197737603731 3.812140205746595 0.281502886040341 0.016301308263184832 0.8719369295353048
P 7.171754696611503 4.033679025515811 10.47089314093266 -0.3010784941794234 0.31639661259373253 0.33342117217618705
P 6.341847832212902 7.854549063772601 10.423189088463394 0.12266630338368552 -0.10995219825112677 0.10396281343691127
P 2.3043866672217295 8.497421857769503 5.804828575950784 -0.062154619151873605 -0.8971211421104163 0.386936627595824
P 7.175427735909689 4.138578845868467 1.9227497016268926 0.08793249944692598 -0.5913694108250397 -1.9670792949216382
Ni 5.624768734374921 2.8549243446038304 0.4660477726742432 0.8272938369046333 -0.24799087032582454 0.5266832835005639
Ni 1.0659450977142222 0.8708676167503797 6.987492679878161 0.07534077882484444 0.8960559340706954 -0.40537220859319223
Ni 6.56715788143976 0.6519117436757542 9.367656693492274 -0.19577716443674667 -0.41152023047245906 -0.5899172517595453
Ni 2.626113998025977 1.5598870581873892 9.15290117723884 0.4128062962737343 -0.4496707734002514 1.1991131492430447
Ni 6.533473201737334 2.06433900239497 2.763566583742879 0.656210832780457 0.33882563102121 -1.9054031580680795
Ni 4.307565928629327 6.824670666295767 10.648735521407463 -0.5420667079351696 0.24196626139829938 -0.0256755503892332
Ni 8.062584918280267 7.4483418291100705 0.0735971611851918 -0.23723723135374625 0.6664139985657039 0.7683019317514574
Ni 7.812954621225071 3.782375859077283 8.240667319144853 0.7350315997341019 -0.040020763367311724 -0.13142193808912847
Ni 3.0068645246812764 8.242054709731248 12.637166257197443 0.02798208703522278 0.0378414963278058 -1.35008781265312
Ni 0.20684666257647139 4.874932308340494 10.315750870655162 -0.6554042777187616 -0.7010187331237668 0.22639283244007463
Ni 8.467419309046694 2.415596114487606 5.404846415564164 0.37399832226760105 -0.12120720233965576 0.3368507666830263
Ni 3.5250267244870375 2.5710184085531833 11.495021959072433 0.9199283698129189 0.3597716371452578 -0.6305213984341528
Ni 1.2020748437828914 3.2479577328726186 12.659255406402574 -0.2562297132958491 1.1218769531677 0.9068088017118254
Ni 2.921548186131327 8.50260411618526 8.089824505016148 0.5025151708947926 -0.7292959828019053 -0.46515472796846336
Ni 5.517659635434495 7.888715602590878 3.6048625974702873 0.4884545790366684 0.08344361043763693 0.6215271653553426
Ni 3.0923172384526927 8.237363402112772 3.660617333846839 -0.5405428150914756 0.20406922924220983 0.024812688168305654
Ni 3.550747091255772 4.10307582987981 9.232847059567408 -0.3473817481213372 0.23024331653441635 0.644046172393465
Ni 7.430276658106368 6.189489434789622 11.295662296154516 -0.7698713331211064 -0.2338711430949908 0.29861409179933085
Ni 0.710335797720493 9.22369264553438 0.12093936473349703 -0.03890130505088784 -0.6684657388884101 0.6146890593875866
Ni 4.388290968056543 0.3582613434671967 1.8914524974682883 0.5653642450105295 -0.2363412019020381 -0.5916586599306842
Ni 6.167278457053313 5.702775361054223 0.41787731694755986 -0.0013457153946170371 0.10291920266374534 0.1506321924689922
Ni 8.179576674936357 9.059069569860473 11.273999546808506 -0.9690886335876535 -0.8943440935859114 0.3483528537853549
Ni 0.08950578535342513 5.027445264348102 5.962724716533779 -0.31985448923534593 -0.8604258435719117 -0.09731651176498723
Ni 7.829710590102689 8.846442416230072 2.514347230688371 0.28873514212272205 0.4172728166855201 0.28317153199201556
P 8.817221752110344 1.6070365180893538 3.2263704444824866 -0.7616432887843593 0.059745238379432596 2.078854662424433
P 1.9499565583096212 3.499242715948285 1.6410221324471506 -0.1906493562918781 -0.32761279302452606 -0.14085043049188
P 4.574715895802356 0.9614725863888313 8.345842617444871 0.7099042085388548 -0.12134347080720391 0.07010781256067926
P 8.598203146433844 1.8312010154558875 12.422078894571774 -0.4355183931592693 -0.10773307911262091 -0.20354858085204947
P 6.263122962700538 7.8835242524936895 1.4116562841338538 0.3181220799252715 -0.3148801759492061 0.5492256875774542
P 1.512373931028178 3.0265025565725687 5.9819799886368195 0.9487136694757274 0.34735835108256957 -0.4118958686443228
P 6.830143858517322 3.9307611917151477 6.252010200487239 0.8976214787856025 0.8459173655430915 -1.095375821553378
P 2.4410891892205613 8.352936856465602 10.320182156184705 0.21128862980878452 1.059369578662098 0.09394528129990917
