# total energy = -340885.5774162438 ev
CRYSTAL
PRIMVEC
9.11433751542233 0.00000000000000 0.00000000000000
0.00000000000000 9.11433751542233 0.00000000000000
0.00000000000000 0.00000000000000 13.33975424518065
PRIMCOORD
 96 1
Ni 6.622395688670568 2.2097802713133907 11.667856024623148 0.5410711767911198 0.8377340584013507 -1.6313014495878162
Ni 4.841344744859685 0.681783443034527 6.053593574825035 -0.42942719265986695 -0.4816473263068479 -0.13034978807087227
Ni 2.7831359082359506 1.7202036258320406 4.749019239028309 1.2031394967936182 1.5800056275273175 1.2252119032126254
Ni 3.5166031142019962 4.738051956565165 4.508116358416809 1.0457756420277473 0.8578591112859999 -0.952781668897514
Ni 3.6959003639443235 2.6587434283415177 2.4583437526979894 0.9552185604737806 0.38903773309922673 0.838380433736098
Ni 5.003971871087438 4.64771975637219 2.4700556765450257 0.8812036995492114 0.6069466964380064 -0.13311320974862237
Ni 5.493776375009392 2.985346602765397 0.45622454981328886 -0.6358152998432405 -0.1361424834932494 0.0541407477084616
Ni 6.137038981509201 7.689912482899427 12.42252591420426 -0.032699290005234014 1.653427334952578 0.4581569564943916
Ni 2.0518470289620767 6.743525235695555 0.12322402181101658 1.0867734245963476 0.2929208980692955 -0.5915632720034006
Ni 0.7710447085566642 0.2720019120188694 0.38384759473989405 -0.8415002103120024 0.30341614117366456 -0.13096042507167768
Ni 8.327761172850488 -0.2530231267840968 6.8082507043334735 -0.9172089139992267 1.924076823218183 0.3449682535838381
Ni 8.858899197897975 2.7930978792591485 1.2762779632087833 0.6818406175334193 -0.9185471731946762 -0.536410795200973
Ni 6.911958194989891 0.9516188770001354 4.9022668004070455 0.6591784000492132 -0.319244880675805 -0.4285267923327846
Ni 0.9874929098887995 7.87817824086392 2.267358276386449 0.05762536382295237 -0.7512084666042805 0.444753281493976
Ni 8.040459022261954 4.140616239639595 4.000058570534965 0.7051096153636889 -0.48876388274697125 -0.7494490607110125
Ni 7.798564501716948 4.126935618865742 12.507847051571476 1.2841940381737882 -2.1684426951969105 1.6890062604984524
Ni 8.649834521475164 7.4241383977791395 8.816216754804067 -0.6378156181027209 -0.763732310102904 0.2561448668915266
Ni 7.292928393341841 0.7995169878607541 0.21001074466819641 -0.40337240455434403 0.019907280446888297 1.879246297167054
Ni 1.8884178410233987 6.701872712753178 9.21786373949017 -0.1334993894434475 0.34710329764896997 -0.7443546769072407
Ni 0.414029723782275 5.116342539655614 1.2186689693878028 -0.46869436569060563 0.4963437519767581 -0.5188087658484936
Ni 6.46994016323137 2.3852221562407014 6.945503514615585 0.4147479933811374 -0.975733649707997 0.33382457826219286
Ni 3.710592676194457 4.580474173381194 0.08704830434699301 -1.6384655714364234 -0.10278704796125523 0.9170078537320142
Ni 6.269579679239626 5.830332406118846 4.426863861365015 -0.97723903060893 0.6489790909187081 1.111287350577312
Ni 5.317040254139451 3.0398229987449565 9.521889788185259 0.48891583494380314 -0.39499934999930036 -0.8913726696624132
P 0.5717086761138751 5.860291233889435 12.29238319870275 -1.1090360926492902 -0.9658207614696591 -1.17862917035708
P 4.409616800278831 6.455220507968364 12.223816948190011 -1.6581681920716733 -0.42977532002790503 1.4256347939514995
P 2.6721323903113974 8.60814554118229 0.9830742790086103 0.252942557904145 1.5896966295628363 1.162138114680592
P 6.766593624222284 7.862802353291975 5.583274613309757 -1.8936796989835645 0.9990898079354341 1.1388706595122193
P 5.178894238770172 1.0834577707335007 12.72045629389632 0.8629478386628171 0.37510286818568944 0.4252663764139579
P 4.306861757904136 6.603383180386586 8.218489379074525 -0.3928843605388266 -1.2776755203289802 -3.1705129259169076
P 5.123205635886601 1.370167489376465 3.627319530491388 0.23292677690385047 -0.16288581302536465 1.0894054629025562
P 0.40187484312670524 5.778881970230505 3.2984678489756303 0.46846553750925124 0.8912392294083424 0.9284600614330139
Ni 0.9971541077704011 0.07136344072958901 4.54362672923427 -0.5024426657856443 0.5353116485995233 -0.08444659778085456
Ni 2.1581657773478153 6.916724993567324 4.4274243931289 0.5024485793229153 0.04262734775222336 -0.3717385796991469
Ni 6.305736256594639 5.833978141168506 9.198680793092615 -1.2500896402909114 2.6358443102180216 0.0978549007669605
Ni 9.087322727434483 2.619232774740816 10.32450291653694 -0.45094809745077824 -1.0777195419241956 -0.05573560299940723
Ni 2.3972075102164623 5.973445735493288 6.9076717220052535 0.8452259959030216 -1.1020730310678954 0.5111625621571454
Ni 0.9806844996835575 0.2665615638910128 8.80115622331392 -0.15504112016996524 -0.060746940171069574 0.41226250795512226
Ni 1.6267634365092296 1.1895486606786354 11.64281802773584 1.2788474291498941 0.060600130180560145 -1.252408004011443
Ni 4.2815694709971135 7.123000682677143 1.3149728835921226 1.0617203382824618 1.1517251468773841 -0.1262337090199697
Ni 6.009629655861173 8.117110601681077 7.8449227571746745 -0.5851411705271407 0.11114981810365375 0.2533022552364089
Ni 5.655847526642071 3.2361822885196974 4.604229782964785 -1.9595356782464255 -0.44489649194005965 -0.7554394739664925
Ni 0.6668377521984417 7.374501715078006 6.145051395714593 1.0014750203381593 -0.1336192028507634 1.6108012727519356
Ni 4.815833713849682 5.082610376108625 6.708362121141574 0.8749831725607964 -0.8673894193739384 0.2575854559927951
Ni 0.7583457019449326 8.08724291728673 10.911932002184953 0.3469377186053832 -1.4517662009312289 0.5234454932895566
Ni 5.425090726673779 0.3406292285936879 10.393575924221578 -0.5523799169357195 -0.1495243041167941 0.04957883936939203
Ni 8.344185209249211 7.536828068164161 4.3128088632038954 1.060253266818632 -0.5032906156082364 -1.3589241799978273
Ni 7.419936688134406 6.282613182042164 6.9360318949565665 0.16605624033354627 -0.49198007569142366 -0.8238698988247488
Ni 2.67264279321835 5.715017806498069 2.2377038674925065 -0.9916886303753566 -1.0943952028076636 0.8767772883467416
Ni 2.4091381781664776 5.390374214663382 11.147925900552083 -0.18586427619840895 1.113810888330114 1.4906248256696393
Ni 1.5998670261803556 3.3599823364685597 3.777391656641871 -1.8859540482045327 1.5846611240214579 -0.17446374767095116
Ni 1.688057357031655 1.4077823607513424 2.4755780537114997 -1.1434775621566113 -1.0543327875691388 -0.7675655678060651
Ni 1.3197105162891571 3.5863186826891384 8.219249514832379 -0.6276921565154737 0.6678602440939272 -0.2647835164031311
Ni 4.084581291926306 2.796807414672179 7.1501887518099885 -0.04128420346076761 0.46135566593734734 -0.5796019858764663
Ni 4.303826683475293 7.2789287707511425 5.976316751844895 0.3726590346308872 1.1149722556280668 -0.7190308534304714
Ni 8.455115812472771 7.357184473592116 -0.08958026733898257 0.5033009000208816 0.7849295130058095 1.2773500186687614
P 0.19550709920688258 5.416669078709062 7.797739654161962 0.541777458829525 1.8633049433464492 0.11331597251703711
P 8.683393512607294 1.9030281242349152 8.241554121866205 2.0192413216371743 2.101357985733271 -2.763980378467027
P 2.057443232263306 3.4395413895897873 10.471133468800543 0.006196101508382877 -0.6180620896248775 -0.11473162191764112
P 4.285798523654719 6.663200578213899 3.635683758129073 -0.26494138213723406 -0.18432315696353416 -0.7034846781657561
P 6.843555091120628 4.281031725077288 10.468998890928967 0.7987363369819147 -1.9785495003447666 0.16420813138121396
P 6.970818587366669 7.837601209761193 10.338923621525874 -0.41650817060535367 -1.3754008374966118 -2.0612307786950823
P 2.6790228295552567 8.986317637883625 5.9398594013482855 -0.29480088870082777 -1.0675222896762195 -0.3799257434956296
P 7.056301959943595 4.130380838487672 1.311376365965632 1.1207821774416247 0.5175417262106119 1.1782802716580931
Ni 3.1289429920339193 1.8055229403317319 0.29730695899856635 -0.5732996978075224 -0.8484637861140292 0.20799324688696438
Ni 1.7591400761624203 1.5983996178228672 6.961631335041523 -0.08351508710552069 -0.2029546560217924 -0.3530474310475468
Ni 7.4280849059703975 0.641482576361812 9.06462984961787 -1.603814042800825 -1.2511070258118324 0.9502830708453763
Ni 2.9759223776620236 2.126147109274168 9.084119037759594 0.31904330618796023 -2.007262809119059 1.1397332646228306
Ni 6.927224710510348 2.3806103014028803 2.601252009475888 -0.9890038844543418 -0.04022182363452428 0.2581927505594908
Ni 4.162226334146461 7.1010624720158075 10.134224712825034 0.12547883313181615 1.2850743838962129 2.3215912263298533
Ni 7.5840221083820225 6.014524055165343 11.518718118079143 -0.41704501694543017 2.478796701140989 -1.62221131436109
Ni 7.391992128978754 4.195429866111248 8.135636404335928 1.3125612764625718 -1.4562661456841113 -0.04003027644900847
Ni 3.9013466483303447 8.668181683112584 12.283792935491986 -2.40596531900156 -0.968825352623938 -0.11274518761523164
Ni -0.028371110156461814 4.869726792221297 10.025012162243627 0.557315406564124 1.5405685045776178 -0.30512283945212615
Ni 8.89925748489772 2.797089959138528 6.086996710783791 -0.6060396112427047 -0.40680945526035095 -0.11040908328288726
Ni 4.033905574736018 2.404562780679153 11.475991014730877 -1.0436297993293382 -0.19542620885523115 -0.5948866799496787
Ni 1.2828612492747085 3.563332323201026 12.556457459856132 0.0782677226636523 0.07521299499772853 0.41572938345780014
Ni 3.3963029719008078 8.77952243152923 8.060547022385586 0.15177196250039024 -0.5847151387333155 -0.09130732945642984
Ni 6.164290851005416 8.010345250751755 3.2642644741734737 -1.8507548745955802 0.9269058295720165 1.5065934331837536
Ni 3.45407875810031 9.13457145367809 3.5772681454283553 0.7788457687055749 -2.9741678047918327 -1.4183976527731121
Ni 3.450123135571428 4.687476497088744 9.146669825440389 0.7089055920710113 -0.20077487476165423 -1.1658217341797665
Ni 4.821593975228147 4.587947930232998 11.376168966203634 1.2087231615289828 0.07427942743986563 -0.9269379683615325
Ni 8.172534888773548 9.450474395731215 2.6304124212706017 0.5301190486549903 -0.768649030678231 -0.885494099394449
Ni 5.258034032360688 0.6705910364320677 1.6088410030050961 -0.4941917386307617 -0.7204465028310754 -0.5432085348490967
Ni 5.9250394883714135 5.611451588074824 0.29178275896456757 0.8122140597533755 0.274326937117192 -0.29973714966018056
Ni 7.977898208809772 0.05278295204899179 11.527548999803182 0.8064622448712627 0.6489425812538179 -0.13739563917406014
Ni 0.6896554964405075 5.080350020377836 5.550391906029339 -0.0988943977750684 -0.7409543929764401 -0.4339065685874592
Ni 7.3930402778055315 6.165949660453012 2.3616570363134555 0.973688337143194 -1.4639910251321948 -0.4935152813890275
P 8.772978337115088 1.8511402001406152 3.9723919986768506 0.6709088011122639 1.202815023574664 0.07884467821304486
P 1.9411260555038725 3.540254820336672 1.52351986563788 0.48362836129261877 -0.1068751019876998 -0.9748921276433082
P 5.037166288714602 1.1290841448800082 8.332890722065361 1.000135218480813 0.6524145989628184 -0.33564517641069935
P 8.847579190568776 1.8768152892278527 12.393325399324 -0.4353466434680954 0.6296731915012446 1.25565710707636
P 6.816868310557109 7.948112553454041 1.317504846584112 0.15570832144031893 0.47513266511678176 -1.8376147376691965
P 2.518975060875139 3.6679831478015443 5.906416162303984 -1.686313801267954 -0.7577115578301209 1.828172104199058
P 6.864937327186889 4.27682090109493 5.846120261751403 1.4403348191658354 0.6540081687021833 2.3485158186348394
P 2.683826085483185 8.832895992656267 10.144629640656767 -0.6717204983802818 0.21053015437620518 0.9782957540082183
