# total energy = -340857.93009253906 ev
CRYSTAL
PRIMVEC
9.46240031647193 0.00000000000000 0.00000000000000

0.00000000000000 9.46240031647193 0.00000000000000

0.00000000000000 0.00000000000000 13.84917933724030

PRIMCOORD
 96 1
Ni 8.8814183170642 6.672969802885921 13.719592758483053 1.0973720260478004 -1.2157664415290095 -0.5203475710905232
Ni 1.6878177911946168 0.7243401138273267 6.968851488117392 -0.9639723954070109 -1.727663053638702 2.4301930812006725
Ni 0.5757104084749413 1.7315056930505552 9.150872464696917 1.0432824432922483 -0.08220331027263261 0.24178345596353198
Ni 0.3103922759821925 4.601158348010163 8.815570420112655 1.4665783262433967 0.32761690678958416 0.020228411231732902
Ni 2.091824431359472 1.3105235068754004 2.697154991270333 -1.534680164117641 -0.6525256706193858 -0.3948414842651974
Ni 0.8597650396605521 6.667443761152356 10.004411245006981 0.2265825798533775 0.8307645690620532 -0.3594584767802132
Ni 5.732889802564153 7.3452638767352925 6.341816074561923 -0.005045018623075182 -0.464510152405929 -0.1733347762728305
Ni 0.4788324624533979 8.557643368438548 0.9722625697396213 -0.22100251466243875 0.8220996942982034 -0.14133534054809854
Ni 3.8911187596484806 0.1676141189312393 9.984787173172666 0.6091179930577122 -0.1220196709386221 0.42215894113322777
Ni 4.1953633142020825 5.488816651064896 7.578104212923052 -0.8168389601198965 0.21209492776016375 -1.5959477526788708
Ni 2.4660150484036727 5.666539452160463 3.956488805388477 -1.2448237639062818 1.5926878509806763 1.6142406374507876
Ni 3.9390174296061935 7.659879221939557 2.894035367868939 -0.6298086886378443 -0.9715977731627525 -0.15866894673053963
Ni 6.065587794605476 2.2611351586517183 13.691963496055251 0.18242105484481486 -0.47105823793709195 0.2418024821269255
Ni 8.12490888117934 1.2896210647701876 7.936673353429682 -0.9962893623721616 -1.455517697553861 -0.01805068685412375
Ni 5.118628629317438 4.9633790287650505 5.209743027359677 -1.9660341414865754 -0.38253001388769603 1.0646346837157794
Ni 5.993228820056556 9.413347145920941 2.180234475416346 -0.48806145736330786 0.8787112721446609 1.1644731905716719
Ni 3.7986616470137893 6.319076034332295 0.38679926534895215 -0.05342700947088864 1.7897562234250208 -0.2491003013399194
Ni 3.956740505234561 0.6218925990311666 3.6733841991858287 2.7594986885465898 1.9982300094928298 2.2597919336348697
Ni 5.984665347849577 2.42821275948999 5.118269058108748 0.35195882596905836 0.6643396325351784 0.46306390687770577
Ni 7.557373040261979 7.699848400505613 1.631003647741417 -0.25195602562115965 -0.8454070015655764 -0.44262080853200547
Ni 8.644593364140134 6.062900472940523 7.147256528269447 0.09857480965212057 0.4934692586424404 -0.15121711843818475
Ni 6.206520783611831 0.15093569228812112 7.166091435924688 -1.6390990912553645 0.4271353113018966 0.3192690490455211
Ni 9.165687744735004 1.107611796371017 2.6330614233211898 -0.11988488398380644 -0.16081916030432306 -0.10480844926665821
Ni 6.9276692298420155 2.196847611497886 2.864577969716953 0.06825507562265665 -0.012568837803946095 -0.47946651660544526
P 3.7260661124591525 0.8535577051105205 7.812848384036827 0.1382217346197813 -0.34978572957713955 1.6142689195855617
P 4.287650103632657 3.059544102749291 4.186800788235126 -1.3537462353413139 1.0451961153751934 -1.5383750964707248
P 2.8822187224633304 7.596679850812026 9.811436947222784 -0.5604742639080799 0.1325856193799265 -0.1606065300728847
P 8.197504415733977 3.292688181984392 8.57113201996457 -2.2144448729586377 0.5208872456440771 -0.313258324075067
P 3.8330574718451373 3.5012773326259996 12.850736244682759 0.667240094011425 -1.3286941774686922 1.019775875529876
P 1.3225218303654003 3.7106897120875044 10.664505446241481 1.0784170822118524 0.652604089265805 -1.0238683004316949
P 7.683913718520471 0.7540842227062429 1.0067094915322048 -0.17550967243696225 0.0479076223145562 -0.2437688618246769
P 0.7775916635944186 3.885687341917203 1.5882932118291042 0.14853237251717002 0.28113033319227065 0.9680874460166491
Ni 4.824224971001692 4.990072459810231 11.71556047644552 0.87045957365883 0.28120078141888993 0.48271433411878156
Ni 8.479834051357894 8.521033341953682 6.463467530622243 0.044154840140343314 -1.1541507255997414 -1.1355529079928959
Ni 6.518212247145425 5.618233898992916 8.129578575692207 1.7310787641884704 -1.9086831143709322 -1.4521634363696476
Ni 1.223658672775874 1.60951642930207 0.5389584459866451 -2.544403540507521 0.001131028280649665 1.084014630904288
Ni 7.781546764080266 1.0261499928020823 5.516764796380404 1.225961122673824 1.2929620141744054 -0.9506425110673241
Ni 6.4119968045781945 6.512534807008201 13.097071856076699 0.35622042945888976 -0.009700258006899424 0.30483179057426857
Ni 0.17709828268047187 5.155929411019 11.734977321714824 -2.8494474470925963 1.471607146916556 -0.20397127021176484
Ni 6.553478612797814 1.783104161497692 11.310652069538868 2.147313883638095 -1.9105065407329163 0.5761194266445046
Ni 7.322554116186398 7.960707850010596 8.62211164743675 0.9279134449009244 -1.0007461125919346 -0.21296087530488483
Ni 2.4093636582344065 2.126769075404085 11.644375785764982 -1.8593076492615979 -0.8585008586350571 0.8234371821627045
Ni 1.5277234417251309 6.481394047855527 1.8089242130017635 0.23507313382289194 -0.7431094916462299 -0.2067449763021601
Ni 4.2420224097298345 5.155144031800018 2.975246417831813 2.5710314275076946 -1.1517138340234747 -2.6555546441627556
Ni 3.7907794676232762 2.542017047040644 6.453855624469923 0.22760562180125318 1.3589974564379241 -0.07497773905847088
Ni 7.273567270202383 4.647505184330368 4.908841538806877 1.0704744303260079 0.0076960830926770685 -0.18121057947648145
Ni 1.6178811911042466 1.9517998327750725 5.177612501143081 0.20593996390236144 1.7744856704191956 -2.2627733848606963
Ni 4.578316113858066 2.466270533209848 11.106639881887887 -1.2117719756576357 0.8887833116686823 0.23645638732366375
Ni 1.5466198549818577 7.404347103763337 7.443836538637798 0.4584541760198363 -0.21189078216915766 0.48141361302948704
Ni 8.344275705681445 1.7726482092449711 12.795616817110519 -0.05908292220508534 -1.5068127482834113 0.6973672524141087
Ni 5.891356619194302 6.859691346598987 3.8469700389014045 0.671118860240541 -0.6161802992211323 0.17231816208285808
Ni 8.597707171006892 3.2093244359694877 10.69598401308232 0.013873415547982557 -1.288660044364942 0.4133585692327784
Ni 6.189195128793069 8.087466163474348 11.398622111985109 1.6601718527652631 1.396161467082731 -1.5952139598366397
Ni 3.098860375699567 1.0110290772366093 13.746446104092099 3.1969163556111004 -0.8417964013961825 -0.15004880916169644
Ni 5.762308404875202 2.0883990424766803 9.172547038660792 -0.44419612343892534 -0.7518478999604923 -0.8007929624006273
Ni 0.3364857908528737 3.3973991029152586 13.42430058078583 0.10108369211690334 2.1043533209161693 -0.7744869775162468
P 6.346460220594173 5.7824160053612035 2.0188920353566933 -0.52684757699257 0.0802983799404359 -0.7456055185952063
P 8.19178912599584 6.602058575571993 5.024205229915222 0.23922649386963318 0.2359308538374969 -0.30154797761667423
P 5.78566160863965 0.2663003296364886 5.005965507234367 0.6179754434483422 -1.4093926210610244 -1.1167193202261607
P 0.2596425848355706 0.34993280781788855 4.6403752657580375 -0.10093662501607778 -0.6353087925204671 0.056658886144625005
P 8.826801342944107 3.1668761085435095 5.055753818517752 -0.028010626280313047 -0.3209058133179957 -0.5596101161355717
P 3.6278369356849494 7.115384325579096 5.483222480049685 0.3183300821710195 -0.4199449642010445 0.2808480260651615
P 4.553373226855195 0.23627802619084842 12.248961654777844 0.30138934055162286 0.30049176843801795 -0.5429187715228198
P 1.7967867922284015 7.232718088415058 13.566129659093844 -0.45678244474436813 -0.35077020497759587 -0.0008338087552050156
Ni 8.122704141926052 4.662105667883262 1.4265628133600747 -0.1355840398866181 -0.23136920260874347 -0.8618754315342447
Ni 5.17363356184691 8.60350762234709 0.1975058412537233 -0.49334430302880194 -0.2917412759388976 -0.7171665465282229
Ni 2.3409031925797144 3.516587496196047 3.1611996146463084 -0.060416039194212075 0.378736865393851 -0.24546964656586756
Ni 2.7878407425822114 4.326417557369669 0.6380799271024148 -0.4302239775295494 -1.6701518467961105 3.112438904592311
Ni 5.452414797385063 4.613355381904966 0.14626789025530018 0.8109421350194873 -0.9819945430160444 1.488992432272539
Ni 3.9966718341997027 8.005720487898554 8.058435519572678 -1.0878435177320749 1.8996384876701606 -2.151178251689508
Ni 0.4262111085415379 8.083085072168458 3.2636556456026744 -1.9778020806557808 -0.5650613690581301 -1.4597384205034278
Ni 0.29075022558744346 2.858250462684017 7.052029771087813 -0.07675385712228718 0.2880262889811555 -0.9078871223776687
Ni 7.7382089710327895 8.618514989109817 13.206051265750736 0.4208332803432688 1.3388952863714103 -0.11647740096415424
Ni 6.242865862890293 3.2673857237728305 7.376474657649659 0.6158069750421136 1.3554416207658657 -0.9947760110514288
Ni 9.01252933463316 8.62785437813555 10.71535922379062 -0.531004279473421 0.1201409658586705 -0.9210812524704395
Ni 4.152990685977935 7.345084091130947 11.653683002629938 -1.3920405029358218 1.0807644993981065 1.0546181800200416
Ni 1.2255890024225304 9.319404436450341 12.577630556801783 0.13600518658443675 -0.49862072093639287 0.31078595127517444
Ni 7.595345652379779 8.464164316579156 3.844296910836795 -0.12208497695891879 0.9769654652325691 1.6271306060395783
Ni 9.41927060846411 4.8645821079771245 3.590911811272468 0.6284575739265886 0.042953106522758286 0.19296154936482252
Ni 6.784550426382828 4.799083373594018 10.588473167923778 0.6609815146962229 0.4607095477129162 -0.15413763451908938
Ni 5.2299632304084005 6.7615189442261565 9.327561025447487 -0.244844611387359 0.11802237685377093 3.305548806609539
Ni 3.066707139722422 2.6320139356158716 9.213817297258297 -2.2740828963362447 -1.5988245600060336 -0.6293451187378645
Ni 4.420038545232491 2.5345512132601944 1.6998340932450513 -0.22376927877429847 -0.190033319974434 0.7906661583792706
Ni 0.9546615590742042 6.789007216890549 5.233382941851055 -2.1936071102776804 -1.5404422634123986 0.9379834275424169
Ni 2.240696374157712 4.957228468616391 12.451990699045064 0.3170686989600926 0.7762044744279858 -0.0273843055502238
Ni 2.1204103424503944 8.435909589496239 4.5007338943829005 2.602749327436266 1.9225974104591792 0.769828652808629
Ni 3.1370222358219406 5.61520593091973 10.516692346028833 -1.4332686563476735 -0.9233695342839838 -3.256752353932127
Ni 3.689635871578632 0.23946307010783105 5.779705973935702 0.6823370975538636 -1.6877852436071579 1.8709601458988616
P 7.674668953497025 3.972665724819474 12.693880874811558 -0.7404147184228862 -0.1537365424259288 0.3669331878907035
P 0.10650972321434385 8.762703043794849 8.21626078546732 0.34672740236679 0.7828338068190454 1.7211375938153584
P 6.405505598021301 0.07735606810969894 9.583286176588372 -0.45681561197514875 0.6989153136275188 0.8210180311982505
P 8.042604923990051 6.790729373732174 11.169210949640231 -0.15905049843967448 -1.04210616359596 0.8536455874252846
P 0.24486515439839962 1.1218810959159065 11.147329149111348 0.021963134534652498 0.7621238279652036 1.1940249360868598
P 4.375300316951167 4.121689066021373 9.119656952582437 2.8852351462151664 1.4032926788108735 1.1923305791035723
P 2.1279140258317586 3.9144908882133858 6.861645332246215 0.16147659138266385 0.5103174405480309 0.4446869470324148
P 3.615479040986259 -0.031956418052387775 1.8896100997519443 -0.06956608112459632 -0.11937040624123313 -5.0723252813099355
