# total energy = -340859.27727101033 ev
CRYSTAL
PRIMVEC
9.39705491125831 0.00000000000000 0.00000000000000
0.00000000000000 9.39705491125831 0.00000000000000
0.00000000000000 0.00000000000000 13.75353973148900
PRIMCOORD
 96 1
Ni 8.067061426794918 7.952417358465096 12.560736781954642 0.9616296062064472 -1.0481171456767304 -0.3804811017784673
Ni 8.85889485087231 7.027812947385075 4.561993822829515 0.43765575121724626 0.44230122040905767 0.13390742351514356
Ni 6.284956972826948 4.482113218957016 5.9604813697618155 0.22949461129384993 -0.03694469554514927 -1.2789767556389071
Ni 7.320549997926931 2.776143702825784 8.783877222849048 -1.0020674025065193 -0.07034152583804014 -0.2605820767272738
Ni 4.981857989272451 5.4501038319615285 12.90175496025648 1.6611221324936745 0.48100095097210066 -1.2522015444275918
Ni 8.385377260451019 3.4920113360524976 1.0676877259994648 0.3740587431918913 0.6719740091519847 0.24211847070544754
Ni 8.194250563257555 5.386880447394065 9.348060416915146 -0.6438224864184332 -0.36070571892375297 -0.25270755907520354
Ni 2.6759053194754383 3.1661684615167105 12.716674328109196 -2.199870060468257 -1.765273150681992 -0.7250636898881127
Ni 3.950766153412631 5.919759232867776 1.8880449701595088 1.9072936902225732 -1.5482599596846045 -0.03651172177278873
Ni 0.47852246179772423 1.800466299010305 13.211650093123207 -1.316264950566404 0.7813366534482286 0.12488130875713334
Ni 4.8215066464871965 3.9813911549443426 7.761259650990853 2.5104953177958507 -0.5084670176028534 0.41059463333439605
Ni 7.619254178254806 3.3924683347559554 12.548523429855601 0.5708499507154492 -0.9886200187523619 2.2576340067516023
Ni 0.22291881292899368 8.8594492771044 9.20469425064679 0.37857951388038025 0.24067428205975322 -0.6856887876349158
Ni 4.39390306572652 8.331438166007315 5.764315032089229 -0.4553588249239642 -1.025329972578886 -1.1172602803312954
Ni 8.580770220515118 4.580359426693762 4.7625485850848905 0.2874670740435759 -1.3538133411338233 0.20397409842524228
Ni 3.2967217435909912 7.809347199422345 1.1064844063688508 -2.6441790553359623 1.2823762682387592 0.2491542945063064
Ni 1.1461963598739189 1.330096721940692 10.846440535581849 3.2157550855841586 0.08336133513647578 0.3980031698226307
Ni 6.211669342588891 0.3538188463246985 6.445775349234824 1.1787284149391055 0.3491059299012955 0.3241770278700997
Ni 1.3364209398083946 1.2613290750523607 3.8795158046511236 -0.21193243404037046 0.04433867401637525 1.0790729706282964
Ni 3.0682699448068664 2.253723839323475 2.7209999059591397 0.951714146864948 -0.08605610835981953 -0.6209196136783307
Ni 5.442539202862716 1.0634928807451671 9.83285917160119 -0.13434708215572347 -0.1902626623764207 0.30065374793717903
Ni 6.913441393643905 2.355155648631025 5.036284790859296 0.5567155681965962 -0.10921094920972804 -1.8011045585583045
Ni 9.232042499176323 5.554495713525134 11.273776300281263 0.6807242445407888 0.2782211299652757 2.3279117692312425
Ni 1.1005548648019556 7.102350385909022 6.784635024053437 -0.012149233768024237 -0.8411893639398029 1.544110199182289
P 2.9346814140382795 0.5218231505237071 5.344694249365125 0.4411429384348983 1.500305543292513 1.769580005587462
P 5.036990509673358 2.53575764446962 11.54367568858853 -0.07444243538029115 1.1697393240666178 -0.4002228031817688
P 0.5867577387668144 4.343497263880523 13.313688012464139 0.6324872639112721 -0.9174804224930585 -0.47113408548034985
P 4.525142332799824 0.7613512577783534 2.025029596525997 -0.8248885698972502 -0.38196822784695506 -0.6216009560160713
P 3.922490415576201 7.001999237901303 8.88716589018135 -1.870591192595217 -0.1239207446160769 -0.2657307108077488
P 2.4433376106971774 1.0833300633881389 8.911220471010095 -0.8227599535900216 1.0650722854738301 -0.2918639175596909
P 0.8809569710326145 3.2479416322221297 4.964215958626352 0.9599545324968695 -0.17820110322619634 0.7871290917602897
P 6.928542460677186 8.133733530467058 3.999886438164569 0.9465583136956215 0.31851648715021275 0.6657069451963502
Ni 8.62624256860102 0.35130231505431114 5.152942648028715 -1.1533012331152526 -0.2985169040998343 -0.3589954211008656
Ni 0.9789851670984379 6.430648910153634 9.310788878536739 -0.3741538740088589 1.0109333375375815 -0.769398764360062
Ni 3.0530185248970874 2.8086857035328476 7.237772282065408 -1.1832396725458978 -1.322183372933368 -0.4885062582102103
Ni 5.527328828152879 8.123688078906026 8.133265557138957 -0.31344575749552467 0.7254868934684603 -0.04750781577297625
Ni 1.3985166778021216 8.558245480204741 5.2071035129652525 -1.3897280527525615 -0.5093789878941614 -0.9867472272096813
Ni 6.233874583036709 6.9817015995740555 6.08466250898901 2.618379834884671 0.44592853274899974 -0.6705992402916451
Ni 1.2313806614648894 7.788664281849073 13.481837971012256 0.490141222710472 0.4057848706505786 -0.9277797475365377
Ni 6.065610920125741 4.433173357656875 1.0979189909358478 1.5457341079389573 0.9547835298188911 0.5227343261551449
Ni 8.761080907655497 6.020862145257985 13.6825571817263 -1.3525591570117481 -0.15476626924202377 0.0160753082953078
Ni 7.502495772599228 7.77140189221613 9.342242700300147 -0.3157795478350239 -0.17105035111402803 1.3442465233809946
Ni 2.200498921043138 1.0160659452647887 0.8804767815332986 0.9305621953776813 -0.671968866945662 0.6754905069456754
Ni 2.3912591331001383 8.629625508322228 10.037677377610766 1.217707367305464 -0.5657144292610967 0.16805655859302668
Ni 6.588199930614111 0.44228929797263156 2.5540461924846616 1.0911818380766884 0.4720136598718258 0.9840905063131246
Ni 4.3489381585987985 0.9737885958044713 12.871456036525673 -0.15387949576169627 0.6305993028599397 -0.8757930700566013
Ni 0.9835709298316307 6.028718083055012 1.4817792816903506 0.44780878049084816 0.43435162654467774 1.3123692150564237
Ni 4.749684956794997 1.5598735054489565 4.487298513785245 -0.04355500177281531 -2.9733435091183242 -3.126393052779558
Ni 2.1940055561893748 5.371196762964353 5.617702183393992 0.14722085279459807 -0.7826386600891038 -0.3043538224965855
Ni 8.906368771626596 2.612992037715753 3.229400303433476 -0.6127617604578867 -0.12749586356184495 0.045154485049451264
Ni 2.828983341860095 5.3337213084971955 13.50325291915298 -1.548754639932836 1.1114909819476857 0.4797624505793092
Ni 3.539645006738061 4.592509818525766 11.109311866618308 0.535199291391375 0.10150149638061227 0.5442876268458885
Ni 2.908181719555484 5.080733799679532 8.775610633758086 0.5148790917767843 0.6527017911859339 -0.9153014125638689
Ni 6.864332385357704 5.861600860827344 3.920226665079426 -1.9387709348952482 -0.33365668522576086 -0.30016420989527015
Ni 8.476650853540164 0.9063731850991449 10.603346246037761 -4.1653059062492 -0.872315395920646 1.0579788689621585
Ni 8.609280884721075 2.721029976534439 6.4789215805643146 1.1013253542685937 -0.3063911646415885 0.4892968724323058
P 6.624613517891 6.52565313399089 11.195367275187488 0.6832313272333588 -0.35126359967424664 0.15524886530539717
P 6.620319063856023 2.737286881305799 2.633032196741997 0.7394320427946427 -0.23924963379808475 -0.39182789424985426
P 4.714737310063963 6.1105852243082435 4.568664792018642 -0.6337363058270247 -0.2046852655596539 0.09202595279000925
P 5.157225825597955 2.3265134256581317 6.286743352940841 -0.29965513146933553 1.3605288054807858 2.4423983650176133
P 1.6216309494705627 6.769638264328227 3.923555101882904 -0.027842990354197208 0.6215536477179037 0.45620677474655624
P 2.3552872073979607 0.7067684650821423 12.525114426690322 -1.8295389026395974 0.1397433134706303 -0.8488656495381381
P 1.2215137539446999 4.2974329013434085 9.77794184375477 -1.0596125479108396 -0.4426817436769279 0.3003624419490053
P 7.173927752176912 0.47404946372190493 8.636081284956866 -0.273051155728562 0.7480812338292084 -0.04140427397839966
Ni 5.2200357397550485 8.698769037401805 0.38437055082911814 1.5297181921266751 0.2457313848676865 -0.13658265635446157
Ni 1.8245039651404433 3.784457077896138 1.4337791258683232 -0.6363889129585234 -1.779227813089871 -2.3613553936016687
Ni 8.63676726995589 5.4227490054936505 6.818578125628368 -0.27296605221392345 1.0790292618745547 1.0562073788840325
Ni 0.7626151616464157 0.6029836332573967 6.911455795968651 0.5565103941643255 0.5768732740913936 1.3632832282974714
Ni 7.732234967888369 7.030434725669011 2.010217019074497 -1.6883627133771824 -1.891509687915439 1.0910733375232822
Ni 2.2757129475113267 6.466244953664566 11.356228878047357 -0.13089023395537458 1.3722306672987465 0.507472772010384
Ni 4.82037899991346 3.87852159625528 3.103183762140688 1.4791677328726331 1.0898708325747488 -0.8013537200001037
Ni 5.1125334330588865 7.952511329012907 2.6976745365814114 0.6580489144304603 -0.9240411064297118 0.976457929468531
Ni 4.7951948931000254 7.6813405191937525 10.638569226473882 0.10450120243888454 0.1582727397333855 1.3750712220713353
Ni 2.3873593553659678 4.947023107198791 3.1225623685103407 0.3602894573219408 -0.34395035384228506 2.6334927792667098
Ni 6.50815581798842 4.102227882374932 10.836606517753392 -1.4993933158908888 1.0114529574864775 -1.2698336556870584
Ni 8.744354150145082 8.538173371192242 1.0566612219192835 0.6829310223841205 2.8237230457432982 -2.0010476814472824
Ni 6.088201439819585 1.7012334005215406 0.45876139529847965 1.12494787878354 0.49826693714139997 1.0402421138040276
Ni 3.0535165688004877 8.771774755996427 3.6218842713606243 2.100543460251776 -0.23102647455734407 -1.528096340252536
Ni 3.8347971003586676 3.080194807324124 9.53695155477618 -0.3067143523089621 -2.8224138400135717 0.706579515040996
Ni 8.808056784506382 3.2443425602409555 10.63389325201479 0.6852591562966649 1.189902429278054 1.2475002822971806
Ni 4.388640715049086 6.002603667818244 6.950447935077485 -1.3746346487545487 0.8584550929987861 -0.2432027049085618
Ni 6.375619757355319 9.188703282525738 12.05299699743142 -1.64997511473792 1.0610896466769983 -1.3566019596225538
Ni 3.912040890659581 0.48561629845200155 7.407876828008 -0.19935048361030183 0.8735940055227535 0.5489981449476803
Ni 1.2150579773100616 8.360756976924451 2.461305719144182 -0.6994902122943824 -0.7137366949110676 -0.6244798202257632
Ni 3.5305580547647053 3.371776020127901 4.742577964264026 -2.70457812524931 1.319893548457927 2.7386262159729546
Ni 1.0648648507432126 3.9861554617183774 7.462298931067454 -0.2762038424249308 0.6470618192913372 0.18741233741181917
Ni 4.421746539043018 3.2649503013759804 0.23120701524595302 -0.487451848803767 0.1600077201466212 0.6555978817868063
Ni 0.1822211083773847 2.1811221940844416 8.941602088822975 1.8090839772193552 -0.7834593562181863 -3.391141087959063
P 0.29779360571958347 0.864580723665534 1.9522597440063811 -0.6756242043100623 1.5561208504899202 0.01602234357018531
P 7.76575426229267 1.010775403423011 13.112349535840018 1.1435554665823984 0.026700649219637888 -0.5365300943876566
P 0.4257899491879182 7.972235746998506 11.333466392251019 0.6919465956191696 -0.8355257378961224 -1.171449107668873
P 3.6572679414335028 7.708554389839914 12.755582833430477 -0.17742694406433315 -0.8930819390440361 -1.0853680596083888
P 8.644463457821637 7.866058425026483 7.470358784953231 0.2831072544129834 -0.4480368373412542 -0.8757802145407949
P 6.78201418547498 5.031286497421211 7.921516083522818 -0.9279196155485115 -0.3836420160049522 -0.1611624025763547
P 8.759708937657452 5.193977706846966 2.7959160457907664 0.021507535054472636 -0.315079950664838 -1.9076287049644887
P 5.919496115333904 6.69734672189697 0.6881970657181892 0.41236663763315434 -0.8458893405186336 0.9188701037517335
