# total energy = -340871.08256390726 ev
CRYSTAL
PRIMVEC
9.20591565761249 0.00000000000000 0.00000000000000

0.00000000000000 9.20591565761249 0.00000000000000

0.00000000000000 0.00000000000000 13.47378811313046

PRIMCOORD
 96 1
Ni 7.986914150741724 3.097652458274784 6.754436317566027 1.1889670619479782 1.5021423393909354 0.791960708820978
Ni 2.7174297385943667 5.742346258943749 5.1337017623016745 -0.7493526443424643 0.8136219958444955 0.5218652932866302
Ni 4.40512259925128 2.566121312351877 1.8131943441344012 -2.9051599101635515 0.8300184349246479 1.04847247213362
Ni 4.040770877796834 2.1544419795982916 4.05558319574671 0.10760503817518888 0.393642835971406 1.8175670749897022
Ni 1.0120431084535124 1.1770775546234518 0.8647410966123807 -0.8256107927752554 1.6453944373457725 0.2061880753574255
Ni 5.24167334159013 6.768483623942482 4.3475193451332155 -0.31896617309312164 -0.14093553400651856 -1.4635487953884536
Ni 7.901750226966517 1.415602823785226 10.760867289572538 0.1744922869160414 -0.5896141186968297 -0.20566202765062644
Ni 3.4552102141313386 0.9721078472561454 0.15700044376170008 0.4597942349874985 -0.7891042132087894 -0.6742023842618712
Ni 5.947895938984046 4.164166968412211 7.254219943487726 -0.31325960962664756 1.2144109559423795 0.9110565212445858
Ni 4.635298103105075 6.481360327150256 1.9335018501182164 1.5126681786229237 0.03765817667240611 0.7124943378635342
Ni 7.0453331190988715 7.1504002320646505 2.6233867093731353 0.4840083703398568 0.05870779825385373 1.801625206948465
Ni 0.6833928476836 5.758695964772823 3.7496199929977267 0.5870522715069244 0.6189236662942245 -0.14182667836222027
Ni 8.0613071534471 5.644220406222971 0.7283186356433211 2.042623190896224 -0.4439464693219645 -0.963528623001373
Ni 1.6624778582549793 5.1677682524033015 12.41018068874217 -0.8121947764796658 0.07683561820281606 0.6526722234995792
Ni 3.146738399423784 6.872860293249938 0.3136225243986395 0.3084452189571398 -0.8544174325943027 -1.3528617758538313
Ni 3.650357209719578 5.783846525766647 7.571608607894629 1.0454941062315866 -0.7618713456347653 -0.34254113219958426
Ni 0.6280036162298892 6.998226449770396 11.008070975223653 -0.11175068491244626 -0.13464301612958748 -0.8901665651694541
Ni 6.666656993213096 7.4238803621684255 0.445598528208103 -1.4981540441671488 1.6600078163835732 -2.3681235655634376
Ni 5.3074404015241985 9.322922629595544 2.6938681186062294 -0.018480061082058498 -0.7404591985075764 0.019859715038404505
Ni 0.2991342546724025 8.61218913363392 2.9986050934180324 -0.3741975827626007 0.5630885616024753 -0.495759597338514
Ni 5.958952243432648 1.8810078790717375 7.847794356547484 1.2159140228504672 -0.7035795518724076 1.4634973733252277
Ni 7.559962204266046 7.658861353884145 5.281643585266185 0.17167950005759464 -1.03166877031272 -2.150163951492381
Ni 7.536993445232522 3.294576195543774 12.693143832345118 1.1088473736772517 0.18227578751620221 0.4575892569163797
Ni 6.463629734004537 3.7916956295358935 4.929721690844631 3.453428118923743 -0.5312978994544398 -1.329452910011588
P 0.1888114845794736 1.8823427368111607 12.336101607753445 0.7035191309481175 0.12876213186877825 -0.14915252259967215
P 3.6468497559353 8.449925668012717 8.13819495923788 0.7384691646607411 -0.9067812909079996 -1.1729706865197218
P 2.8363057247265937 3.8071523615668705 8.872947609185221 0.7313389813738631 -0.4253648496650352 -1.3819442950420846
P 0.30467161281214805 1.4761777474087103 6.407365019992073 0.42375919574081217 1.310566614630046 -0.15760322447018665
P 5.059276538892243 2.479769825484357 6.135949776722454 -1.2746603876517404 0.12537367501251956 -1.5858438314756496
P 3.154508192058772 6.453098166736259 11.635841681792801 0.5738074906818763 0.8510641998513536 -0.5063378870749925
P 6.550818959177488 0.16066071574235316 11.885982975062191 -0.5826508000051192 -0.007180062688206988 0.33337489231928397
P 6.294563096869995 5.959292862304088 6.140126500559532 0.07355669034122815 0.2791906929673966 0.3293323468187941
Ni 4.875204259583494 7.56969285689067 6.458687078002494 -0.630647639599372 1.0188988722415613 1.0110027573229363
Ni 2.857258388277817 2.946509738510291 6.418332947652411 -0.26747469008204905 0.48435264105315295 0.6904070190461916
Ni 1.8553786104748102 0.9482645262554124 4.82422189985297 -0.8421805242084786 -0.23102801721924082 0.47791511295792527
Ni 0.44270695016704875 8.697527969802568 9.05989581647877 -2.691308147613281 -1.1374277564181057 1.2072234370550048
Ni 4.553107690018378 4.543864950912303 5.153737516674646 -2.7554581999286287 0.40143507832231506 0.1675683061026985
Ni 8.960467326722624 5.03294762072155 9.02274902706948 -0.1579886328340634 1.5871247550706022 -0.11859984662379575
Ni 6.984150605056063 9.06904189347268 6.903201149371258 -0.26708079707774 0.015463642853237883 2.3079813488559027
Ni 1.8296296649771073 8.425686492647879 0.9804999597751679 -1.9175837592946718 -1.3521230979155938 1.7221670635211372
Ni 1.157257218671877 1.4178030375764137 10.184849477856602 0.16880809204707053 0.13149161498479936 0.5906898682595118
Ni 8.587977576015417 8.94874819636203 12.707088953060142 -0.1109659842276218 -0.10216818343033372 -0.31631665128541653
Ni 2.589596396734838 8.491913848354162 9.915266211760398 0.08620703211538702 0.049509676694353445 0.9248258071145363
Ni 2.5219237123037996 5.8211396892315 9.628611496064286 -0.6383419229198362 -1.5988885804747497 1.5716035195065514
Ni 4.581912999443588 8.333065777362792 11.625265005538846 0.016033656424094968 0.711642017165568 1.002240437749274
Ni 0.9051256064834295 3.986511212168138 1.652816249996188 -0.07756786838315029 -0.357216731933888 -0.07944914456626316
Ni 2.098598896513177 2.9058656218237133 13.13818264089421 -0.5480224112979724 -0.3726253531794744 -0.8674300428038868
Ni 0.8210811220262506 3.1303794876792654 8.302897992451825 1.0296597103024914 -1.6436643420285435 -0.49892333977847625
Ni 7.80302598974186 0.8192371771627577 1.392920368722019 -0.03011713110035458 -1.0389413927147333 0.17776273013719707
Ni 5.736905562916168 2.3933815149550597 10.864925434205622 -0.7121256416702059 -0.5196454028171761 0.030735738520959965
Ni 8.061380800770653 4.748328332930173 2.8990062942261665 -2.0786140071685364 -1.1493422484675044 0.1589610240496617
Ni 1.342296119102277 3.4801582449853874 4.3520063083207665 0.9499477989931446 0.6512115797936526 1.8352372385759554
Ni 5.196085648309963 6.092198663573424 12.679790651993164 -0.5291885664209208 -0.7149800803998654 -0.28716934029749897
Ni 2.070226265113849 7.4290080570709 6.6590694777039054 1.182244912732796 0.5389304762990331 0.25359973187216966
Ni 3.940932724803416 1.8342050049529237 8.864337316470168 -1.9404043567336133 0.743367630403623 0.9689423378177765
Ni 8.427601323060292 5.960940721168616 6.901314857296721 -0.8420738234272853 0.1957321701314242 -0.9239043237415314
P 8.027714767990854 2.959701815341971 1.52007247283867 0.1370703946241575 0.6525637229461729 -0.7246070619666682
P 1.5190036660555872 6.0640377682293165 1.650404300149782 0.6663890588650394 0.18951678534933167 -0.831136093468859
P 8.637836814061737 5.431904378331115 11.955076132246285 -0.5040750591827448 -0.5369784947789848 0.04463435087992313
P 3.8573338066537413 8.675654714706916 4.554261191223549 -0.2852309856242055 0.017977410414027103 -0.690642017875133
P 7.422665181329779 0.028820959481465347 3.4735962684566912 -0.5575079821909044 0.6450576443771149 1.253965064085918
P 1.050827630220342 6.748469963766577 8.542138561243622 -1.6447637457403093 0.43236236402879086 -1.21509564071423
P 8.610200655897954 7.797806235684943 1.1186071032705343 1.8885848009591601 -0.04814982023234934 -0.36495318134619725
P 2.2200617448852515 2.4990378065092735 2.6664354111737643 0.19576122359714673 1.1846537792846048 -0.7295065561508146
Ni 2.9928799346032227 4.8112415590765085 2.9871658228869467 0.5983952073235693 -0.5400944147001473 0.26727697224894614
Ni 6.17481254877056 4.326135844739199 1.2651441035382447 2.20755508781734 -0.21660644247727212 -3.7823686296207573
Ni 5.762654508413871 0.4141492798672904 5.134914181365689 -0.328964164846098 0.4909524057578577 -1.39395597479098
Ni 5.296540597638149 9.153009048240127 9.325976231748418 0.19922758487919237 0.47317297028724964 0.9572574452806805
Ni 3.5076747262483954 4.496767487499271 0.7575059905594697 0.19119648704459977 0.07429871071357526 -1.7630861703330025
Ni 1.4037732224393027 5.068215482788657 7.0182806159742555 -0.13827984155122636 -0.6053922074666929 0.1073309585781958
Ni 8.240306973346039 1.3159027595234734 8.321087960778215 0.8018705117355223 -0.472653864558986 0.6539611175143317
Ni 5.857153230449595 1.9066463535841087 0.44863003616391045 1.3163945341657328 -1.209906640314123 -2.4659347575766564
Ni 6.43157473642749 4.723619655877675 11.006858556159639 1.976183314105435 -0.20935207490770397 0.9299402455229663
Ni 4.533692414346353 6.837969873716047 9.742531937912847 1.3710690428904775 0.08831456537669306 -0.04929293269785705
Ni 1.9670923943913727 8.553390951691188 12.235438604736219 0.16213505090226912 0.40197552420681737 -0.7540492784871852
Ni 2.412796790627085 7.377546989737271 3.2514004521100137 1.0623960241932475 0.22994815389150075 0.3051981727747518
Ni 1.897716615603139 0.6790089907490251 7.823823993913619 -0.5466455855551037 1.2007033765482997 -0.10252659521101697
Ni 6.788543313695609 6.043839989744525 8.89861462203547 -0.7739573302650219 0.6064525304104073 -1.1683005347375621
Ni 7.188770487636486 6.892367628076408 11.02339053911451 0.25388718120560144 2.0902731886740193 0.8147321981895388
Ni 9.278458057999583 8.602587363825519 6.656482615464057 -0.4322214675755524 -0.21707721146610354 0.30026242603603126
Ni 3.73898255770184 3.958718553441801 11.637485858291154 -1.2895432183008437 0.40034570191287827 -1.4068315452020674
Ni -0.05854317808492752 3.461028352692135 10.541609080844136 0.4430288426037015 0.04201593942046958 2.936722515461181
Ni 6.355441815703141 2.2449453343311903 3.015959164622079 1.4039711929351368 0.4518780654642153 0.03444506905174713
Ni 7.759509627436661 1.7901639054673997 4.932780816546771 0.6809754413196466 -1.5606233663459637 -0.21331954419588423
Ni 4.984994007172198 4.399101930550708 9.469095075611659 -2.181459419171553 -0.8163157406265747 -1.8695097866055803
Ni 0.13808596988984437 1.9061860578118937 3.1678088986926944 -0.6811147951109884 -0.41254070131717335 -1.0443399380224851
Ni 2.8732122397427866 0.5702696381125155 2.653473482228192 0.4314000001155215 -1.6291419800426523 -0.5513992981900051
Ni 3.6544722539231795 0.6494267020603162 6.451586555420306 1.911515441613405 -0.03557095512607422 -0.8373098263797385
P 5.364784048826734 3.837587118025721 12.800098157976977 0.4015410077725601 -0.8331675220765908 0.15437289045834704
P 2.987917946178746 1.14284996100155 11.244226641750064 1.2879794733581496 0.2740235469441603 0.844776567070429
P 0.7495640473056733 7.609443999779152 4.828736480786854 -0.07334071767568015 0.08268487789474148 1.1127783333005417
P 7.472588860784209 3.263423377680267 9.220840995008352 -1.4372692928666344 -0.08938877227747831 -0.6791705269004238
P 7.209962504989261 8.373765129542035 9.032328702680818 1.8952123335780071 -1.0651283355227463 -0.3952556889844806
P 8.67842569525565 4.420422830719704 4.942131264863544 -0.43530884825162447 -0.4676402133944785 1.7766564528182693
P 5.308618758701068 4.509213885179963 2.9144068701729338 -2.9276796885326224 0.7793738732949029 5.54131455253314
P 4.782601956129296 8.48360090670796 0.7921699445734313 -0.9631666116762638 -0.3847470761436729 -0.7459693296925282
