# total energy = -381165.4419640373 ev
CRYSTAL
PRIMVEC
9.24637976227135 0.00000000000000 0.00000000000000
0.00000000000000 9.24637976227135 0.00000000000000
0.00000000000000 0.00000000000000 13.53301142048239
PRIMCOORD
 96 1
Ni 4.272123217169441 7.616973265307652 12.864953827998903 -0.11587859103789075 -1.1022874610715467 -0.4208278810266301
Ni 5.725478394728376 2.0119659491982906 11.410371655879162 0.8438504557117338 -0.7413048343373233 -0.43455448658410323
Ni 3.679920348774933 2.496855337014681 1.613459937304095 1.7008670164917803 -0.08989245138677422 0.330459775555018
Ni 1.0731810376787132 6.789940096530373 13.074688529757076 0.777954367239557 0.4639072287146075 -0.5781595970029849
Ni -0.019435889727313617 4.937409469200812 0.18533628014853454 -1.1686278361699938 -0.23688961820634039 0.31274230367059686
Ni 8.241769621470372 7.322956889689613 12.197303276727153 -1.2248606905207937 0.9741434224027418 0.40056938788791013
Ni 6.019476277587398 1.5898317391075314 1.3717466320150387 -0.11088679425025419 0.07167875659222495 -0.3149956184811478
Ni 2.267831762963382 3.3377210895369935 5.453884489418965 -1.397895161944386 -0.5722262622376855 0.9598789420639275
Ni 5.89695250271745 3.0458868594830104 6.312134360055607 0.17691400898365658 -0.17143678791916925 0.3278143675123709
Ni 0.9026232458989537 3.180051826154428 12.719839298713268 -2.919021498636992 -2.4578833480270896 0.4827837539041363
Ni 3.0594512982222914 1.854241207538673 12.822731160610317 1.6127907923781386 -0.5908536475308857 -0.678644993414257
Ni 7.490972851742427 8.71397297660081 2.3780476820692837 -3.2827189531992174 1.2454847945290486 1.1149285468743249
Ni 2.9538114123352517 7.084825631822231 10.716331012851596 1.7473371350288616 1.149503713746033 -0.14157702424525942
Ni 8.523007500607369 5.7033240694255 5.130215899354436 0.4222538148398792 -0.6987929291170416 -1.2896800009890241
Ni 8.718818079463373 1.068132514466956 4.549446179222451 -0.7399218379468676 -1.5648194067051824 -1.5357268602146004
Ni 0.690666639144836 1.1556402501374108 6.3117829976342765 1.496968765609796 -0.1400554453944104 2.158871506568708
Ni 6.484448963942023 5.490379949339852 13.44504671315085 -0.04155288374112198 0.4311153789955672 1.0489951774063095
Ni 5.374892669276034 1.9675278492794184 8.594693756300465 -1.4986731498954124 -0.2786065383291524 -0.7246682542219068
Ni 9.15785467129606 4.993211369535892 9.289884648938916 -1.924603128035298 0.15934231864848042 -1.3277541821529262
Ni 3.7308956390064654 2.496337539762193 10.566547986552012 -1.3931949282552392 0.1601542730268145 -1.0266754308631865
Ni 1.9061873676186198 3.796591165415867 1.1602810080128338 0.11262897375234152 0.7418848752105094 1.5430917852201038
Ni 3.8709413030454245 0.1882507389696807 11.086053045335168 1.9276606839146995 -0.03409899856623805 -0.7337097955988847
Ni 8.243017882704047 5.141403093922027 11.568274852663297 0.2852703235025732 0.9757120524414422 -0.41661744248970833
Ni 6.3282313821423255 8.587112649741274 11.425393324029015 -0.05794006684989376 0.8555764858994104 -0.6916180086351572
P 2.6819308692610697 3.768593128263486 12.176881722944211 2.2730572832852083 2.506047309326826 -1.6611730403362681
Ni 2.4207206481399424 7.817693671682782 6.440156956819387 -0.4261014707207436 0.26640562538758633 -0.5977925407425639
P -0.004976401451589052 0.43183551147130034 12.762617673510325 0.49099148652590924 -0.49641368598274505 -2.3042139113936706
Ni 4.376782986828558 6.803892883209021 7.690269315673215 -0.4350694785473088 -0.45412212430338567 1.704755038692277
P 9.021415095265498 6.875580063540068 7.615309841634034 1.1295275277344226 -1.7928209783932736 0.7730376466642299
P 1.2427966233865346 6.816726857967113 1.6807865250588339 -0.833541617586558 -0.7788375411754587 -0.13100233405320666
P 4.8926847315171695 0.33818817980706045 13.27413848358771 0.23497517479244695 2.272447674725667 -0.6151012072243407
Ni 2.284993043331552 0.6914738480759465 0.9511510194745294 -0.7473633818265774 -0.5324741791507281 0.6299238740594699
Ni -0.035886123511263975 3.4578592984936947 5.826908404025099 0.03292940373816909 0.16428320759352352 0.4896156892243052
Ni -0.015557958161359606 8.892603782329624 1.1764057692380774 2.561216241189486 1.0873406099537275 -0.960813795173371
Ni 7.93864556203625 2.011244731596611 2.5564538007760382 1.8001931024876285 -1.211408935891262 0.44771390678419665
Ni 9.19755862490647 7.649548260316846 3.323490911473085 -0.38813681855151216 -0.4123134157977157 0.29784481773347415
Ni 1.6684444576906046 6.417662364750592 4.1763279515453275 -1.2790014382292554 -0.18813353184855988 0.8937128877598157
Ni 8.116767816892086 3.020940127568504 11.48733389571993 -0.5153280063887448 -1.81303190612351 0.6459097079647651
Ni 4.133769640580576 5.414596622886445 12.097266696822393 -1.1446556416251126 -1.5632631179616563 0.18367626740815463
Ni 2.1613689493000665 8.43402034421552 2.703218808803979 -0.7178774565523185 0.09234528380264097 -0.2478070364497926
Ni 3.545154367435449 5.781576179207734 5.541091717755386 -0.7942466766416774 -0.587049186183131 0.12236805541697633
Ni 4.843235093904576 7.8312118785245195 5.4517735409771255 1.3189309274343415 -0.5946964183157436 0.7022333222571584
Ni 8.680972648134214 0.7566867134749939 10.39082146862688 -1.7825039127379816 1.0026572135717184 0.5370108906788171
Ni 0.6056887129079648 8.09188580963414 10.720513150303386 0.6893852626498966 -1.5682045211273314 -0.26387180322213905
Ni 8.181418502417005 6.86895965581183 1.0733206580092947 0.8680147116627632 -0.7726969754953597 -0.4238460990276636
Ni 7.255273391685837 2.6643535018150075 9.423171209557006 0.4760806308523478 1.2550518693921935 0.9852205061525099
Ni 1.7374686807231432 0.8423433239678044 10.43959519589739 0.1369338690462932 1.6130754134980931 1.3418204304380053
Ni 3.8766740583408263 0.1653936888241435 4.287352928858241 -0.5399069812796895 0.4784241913838599 0.8664913330397012
Ni -0.10095197147612278 8.040115330764861 5.7717611473592365 0.34488674961362537 0.12674484432843333 0.08492122342442794
Ni 1.1698796745808282 3.1929320328100648 10.380766955549108 -0.1718353089091686 -0.4418345651852842 0.12371428503222565
Ni 5.788436992803199 5.304749634322941 4.4764219724144425 0.07422054917747219 -0.6482051888671612 1.2487004732528688
Ni 7.217363235700115 1.1986174220939065 12.992136853503292 0.8886064197711858 -0.33550736528125447 -0.016319305985313826
Ni 8.640233100018825 5.061893476526608 2.4644698927854156 0.7436327111395515 0.310827088925755 0.7577352119792047
Ni 1.8636817610170684 6.361980667349125 8.825458423613256 -0.28784862575271075 0.3363424595880401 -2.2041699733951914
Ni 2.309163079367327 8.64035330295244 12.44104616231837 -2.5400673750260125 0.6971847040896573 0.8486882434200094
Ni 3.5126903289803595 4.598631370381096 9.73652823719342 -0.30062392314050806 1.2870479626828157 0.8287359686677986
P 5.410750129010821 5.378618960218045 6.524346166884166 0.21763796906558 -1.7445210057363054 1.5224525117031973
Ni 6.706935347680661 6.284856615866955 2.836749473841099 -0.22416908531587845 0.7054047780066045 -3.177159484699148
P 0.5287209252394913 2.1101162676832734 1.2940585513828367 -0.0868210115503021 -0.004034060860057568 0.730487174896529
Ni 5.930359671882427 2.7507331791853997 3.4230670216783112 0.7039050535326264 0.4150601253049175 0.012851659151687544
P 7.517315786962748 2.7075803260182383 4.95770989541219 -1.1759074005505425 -0.15004906627201256 -0.9104199161018515
P 2.7402477848225195 4.736873990415855 3.5509943807331514 0.2460797693460407 -1.5249585659545029 -0.597986401920925
P 5.739985964177546 4.1205288251241 11.13784386623937 0.12504765913166851 -0.4071416417887891 -0.4395092594862172
Ni 7.263678350659257 3.590729772033893 1.2195234861631055 0.24834002613512715 1.3659108957283057 -0.6209736068447176
Ni 7.133073240098693 7.4902423877612385 4.584497354664078 -0.5824551390545453 2.3480329654611496 -0.8140176886210175
Ni 1.318709399153064 5.559847998588809 10.857764558454813 0.2624430411954125 -0.7362194493946159 2.474082326384455
Ni 5.4328027441391 3.3306476092128285 -0.07968622324403496 -1.2728351615175433 0.42865483327021653 -0.8692799515284318
Ni 7.023734802408168 6.734221413610872 6.607398072269372 -0.7036350877006915 1.4502857597309602 1.5124745745548789
Ni 6.946046721775966 9.225482691022782 6.523953195755045 -0.24039865980086342 0.09182592096406121 -0.740108500036377
Ni 3.0990165561400724 5.857683128943948 0.7573163919195371 0.2657014002317101 0.4428522078165212 0.4291186602805126
Ni 7.392267750486921 6.890124618507273 9.09111153008832 0.3565081359026376 0.1271852742999616 0.6457006772777524
Ni 1.7291007072677584 3.768676345679064 8.244364155560515 -0.2160755096744666 0.5650336011439882 -0.8642763276662534
Ni 4.2417488604833204 3.5130324450221817 4.615974804425588 0.5239373453243106 0.012157461298140352 -0.6757933828980749
Ni 6.234778224447767 0.5326894713246307 4.084303359484866 0.3439390409883754 -0.23967180893716786 0.5364244220477279
Ni 2.3415254076478202 1.3651909489433616 3.1691337012305407 -1.070594757953956 2.613654918605176 0.6221025782428382
Ni 2.407396615267888 8.816302658623728 8.822887005471882 -0.5299503842876099 -1.6595697004048902 -0.3104463085475686
Ni 1.143000449349001 5.30964096908305 6.508444243405082 0.5028126475305534 1.436850460161661 0.7245155306941264
Ni 4.7514092990035515 9.219222892095384 2.1001745604355055 -1.31640070481332 -1.5239324386828335 -0.09220258757718959
Ni 6.792584561069865 9.231788721847725 8.865665380268942 -1.7976811346990524 0.6973363991761733 1.0627063563448151
Ni 4.972379276502763 4.582949510734319 2.328300311036509 -1.071980068337257 0.7004188947562389 -1.0080575586516831
Ni 5.842500573790641 5.048476979859466 8.996474835816647 0.10685659004493854 -0.6969738736304318 0.2524885010858619
Ni 4.096109136841591 3.9213248249883983 7.660604156295413 -0.4914344876005988 -0.17301930191494072 -1.0948310047935015
Ni 6.117025581404315 6.202822736865658 11.316344298017112 0.46604664365511345 1.3523141308804776 -1.712239262884464
Ni 8.904476133618811 8.971586356093045 8.139889313491574 1.1336443781162735 -0.19403832736876905 -0.029294892309375355
Ni 4.231180248704862 9.073259545170849 7.5996113385041415 1.74787321003799 1.6682587435384562 -0.7571436011417929
Ni 6.330293324772768 7.9715256875692315 0.322018111322224 2.2211114863455363 1.5273874871109696 -0.5378390430070673
Ni 7.64420385296081 4.6656121435422095 7.296985658925541 0.2252065254414573 -1.221893894582986 0.41973027708707716
Ni 2.5668596762751434 1.7106171946298423 7.714993209841562 1.957326072189616 -0.16677306389491278 -0.6010619555224551
P 4.131679958811607 1.6362485642412679 5.939962961640176 -0.32702041085616584 0.18092801523905616 0.8010657564460397
Ni 3.722370477099432 7.069125279416438 3.3439392797566025 2.86147249657793 -1.495538975141805 -0.4590789540880287
P 0.6090849081015149 1.7127068763988114 8.613463906703153 -0.22011548407179513 0.42361547107409625 0.49458228920096114
Ni 7.962713887897428 2.064864486367634 7.418972219146034 0.024441935092448228 -0.2778362358220312 -0.7251657626836157
P 4.939203266825502 7.035745849389985 1.4106674172810623 -1.3148235901341874 -2.182732115236389 1.9965742190569615
P 4.97102930509449 8.134641068482429 9.687348593862477 0.15515142049558442 -0.493866236970543 -0.6927451802610649
P 1.46782576149007 9.24122927532612 4.6716361597921345 0.535792959111316 -1.1360499022339725 0.14799552617709352
Ni 0.5823175640617433 3.3762784920883244 3.4851703296485788 1.0228277749823222 -0.3789152999532442 -0.10836737026251014
