# total energy = -340864.0962845056 ev
CRYSTAL
PRIMVEC
9.28386941567127 0.00000000000000 0.00000000000000

0.00000000000000 9.28386941567127 0.00000000000000

0.00000000000000 0.00000000000000 13.58788131773680

PRIMCOORD
 96 1
Ni 3.5431238446901103 5.661795725470657 4.589157856721493 0.1355614141787988 -0.3932088337577809 0.1932574833386865
Ni 6.606058102203443 1.1899878372318866 13.38001405768557 1.4123043953911805 1.132749891326462 0.4167786506579209
Ni 8.80424632608414 8.752442333731677 8.117482284886682 -2.5075506333452298 -0.8602404670339829 -0.012300928854540106
Ni 3.3401041843382018 3.3830513650949205 9.561805443282125 -0.09926695062313873 -0.2241189488042334 -1.595496524074065
Ni 1.4605012295555517 8.060069906910542 0.5096844408871302 -0.2482685494672434 -0.9574338229575446 -0.7925757166971575
Ni 4.120042069200275 4.446769291935079 11.420600461136537 0.23118151207796958 1.7520597373155116 -0.3981389240695466
Ni 7.919215037381588 6.26829235851755 0.08112802286222724 0.7068643932712665 -0.020016552331242946 1.385842601655226
Ni 2.4236841325274643 6.021276440144437 10.06340270536312 2.5533653776864993 -1.4871888034048968 0.8177496448596239
Ni 7.271080249191183 2.8250815184326727 8.271881391771013 0.3612960442095842 -0.5614973058559556 -1.8202345945195362
Ni 9.120129989129397 0.24777905245400358 12.363097045871934 -0.33247963419852417 -0.5518716098407335 -0.4332972171382344
Ni 5.442714970715565 8.17440076100025 2.4249885162058726 0.5680693026465184 0.31150534593970225 1.6952093039853708
Ni 0.8491918385094617 2.404355116026061 2.467124286759795 2.4628959707503326 1.4670881760002799 1.2505508961980463
Ni 2.8321558270657508 9.187363772752432 5.18600483570904 1.4328127997571776 -0.06754185160571592 1.6572801330397653
Ni 7.328677376172308 3.8440326260750584 13.465930700486041 -0.12159261070353254 -1.3274875587551007 0.7208938747811391
Ni 1.7599988627617231 4.163611269220007 11.252491864017998 1.0359280598097063 -1.6595838414722774 -0.06800696416759254
Ni 7.781498115776493 8.435221793464422 3.78677993065599 1.04002279870437 -3.7970766252548933 -0.10635933869354586
Ni 5.050016570622947 1.2526168215347022 1.6712961306951277 0.8334601136163451 0.13282370353266157 -0.4129903872600823
Ni 4.685011953538823 7.605355257908524 5.43796534302963 1.5116369091449322 0.2806742194914585 -1.3112297021353416
Ni 0.9429904865979686 0.3164109868383788 6.873620152382153 5.52267919682014 0.9553568858238578 -0.018407555972910234
Ni 1.1771760971877292 6.978684776226882 2.62327618822408 -0.5069994319183914 0.7216173832107249 0.3527946916067924
Ni 6.1803741134319194 0.5538997982308287 3.8936484103634568 -0.9080619573926362 1.8170140306997093 1.1051758383629355
Ni 0.01855845532483376 4.882229195392472 9.484518157272268 0.7508449126172746 0.22312136077765446 -0.2706055224015469
Ni 8.541967726093207 1.3109566580836045 3.707222738529612 -1.0836065968325919 0.955266897213213 -1.766110816091939
Ni 9.18450434091649 5.390242539752103 6.957932542516225 -1.1585082312374888 0.2704872516561277 2.158070350823651
P 7.893981479816357 6.511910380618081 2.562810345537416 0.20157860160987223 0.575858459673634 -0.6509696389861758
P 1.0219312297830918 8.702411560472283 10.462016787163085 0.11474704853660883 -0.08583756459111024 -0.5314971599494395
P 4.279771045620367 7.392875334437053 11.615613712347807 -0.5743019138197915 0.849499169357079 0.024601857709080212
P 6.022715439932005 5.081720985297439 4.843482037241533 -1.0740906869223565 -0.6619860447013374 -0.1842974459319213
P 4.3996443698596135 6.190521382901675 8.855303895320986 0.5771028736036964 1.0857077023359947 0.7548604615345709
P 1.026758841973644 5.969630273575127 0.15854064111164887 -1.1605257758881498 -0.415745067187084 0.17409042349193243
P 5.899676316160109 8.695179426056054 0.4960213700009082 0.47666787081438555 -0.7326001074744738 -1.029467391786027
P 7.1284800121779535 8.464428847217262 6.097480298572301 -0.9743210856311866 -0.6832364694396814 -0.1832759466459424
Ni 3.759438006305231 4.994350488518044 7.234364401708116 -0.8904768973210211 -0.49122931356832816 -0.7206930716242427
Ni 8.571936057153017 8.69815954819676 0.9490101476448032 -1.4647312457323292 -0.3949178460290876 1.0824655412496131
Ni 6.7163690407575585 2.7473755299039793 5.72990126444887 -2.5719670519480866 0.24059432075143725 -0.6857183553212707
Ni 3.292589339739653 8.332393653805664 9.381263887998996 0.6599700427125731 -0.7534882637773926 1.6108177278121678
Ni 7.727874484982976 3.3253149800698374 10.342918666035207 -0.03640296410906634 0.8399030410282116 0.8683137309604207
Ni 5.075797876494415 3.104674535222414 7.708024643397171 -0.6205660869936538 -0.7883660494911842 0.06195998664256427
Ni 5.789486067910758 8.159444447079135 10.174157412883984 -1.6621472313240793 -0.36484056702773293 -0.4418312227511745
Ni 5.213663340013065 3.6713526515668504 1.4814864883930976 0.043503579709589596 1.2971817086827078 -2.3507704189969707
Ni 3.9323686452925637 7.856753162731523 0.634017736080879 -0.541493351930203 0.3711796218718833 0.04645931990380386
Ni 6.880712100367466 7.862499878012199 12.238428602985726 -0.5759929283689693 0.29340349413266886 1.3304325003160378
Ni 4.551491340991671 0.36710091483917534 11.889667972535849 0.44266940238175373 -0.08509940087350505 0.262244037810729
Ni 0.4522330706586816 2.445148439036226 8.249705940851104 -0.14218791835638092 0.9174282290988844 -0.3045682525002368
Ni 2.6938633055456287 5.439391345399762 1.7538965752754734 -0.13919618271790868 -0.5948303727904466 -0.05579782369591035
Ni 2.2731647547478095 1.2344668564721462 9.91597392777238 -0.07970445511017886 0.37083200872447747 -0.05315987185243102
Ni 0.3250542694333864 6.772230084124004 11.221497665367695 0.912680430001254 0.25616929237155883 0.5933581591202942
Ni 4.658627196143537 2.9155806792663292 12.913718709747986 0.4212942791400873 -1.7976356261730977 0.29829810322080885
Ni 2.5570933386394508 2.4613673592225616 7.19887309662492 0.5491246432232156 -0.43839134383169015 -0.05296523934312169
Ni 4.763293541982544 1.1503178624429848 9.194607047812179 0.3803898276162417 -0.644082167837723 -0.4788458523023108
Ni 3.2952445264444568 0.8596612582542416 3.1343030766549678 -2.747003641403372 -0.8181540793868942 -2.775485550893149
Ni 0.33720128441438313 6.121913586578253 4.712087430832143 0.07276067680249404 1.0727732536625136 -0.8191758357831892
Ni 8.379797091969046 4.330117470446067 2.1168559558873308 0.13275428374730686 0.489901338785524 -1.214869640746353
Ni 5.993768334527888 3.2587403511882056 3.483253098044627 1.1975483758590861 -0.3090237171684291 1.5586765270322382
Ni 5.733819985805854 0.7414339640945816 6.691841057281715 -0.48019413880008915 1.3023467978234151 -0.6925739447905234
Ni 7.508162427095275 6.3985079134880944 5.8058711693628835 -0.21186712802007385 1.7983190253933674 -2.440567482456461
P 1.14549953412203 7.384259903450838 6.397025279513419 0.17742668695401703 -0.11639049767730278 0.4220967204367247
P 4.457835664494961 1.5359512377721218 4.556736727314097 1.1579099355318574 1.2453724373209003 2.441082988640299
P 7.088754334171469 0.6546669188390056 8.775787552220836 -1.0365800915714083 -0.4974585823074916 0.3966600255311749
P 8.593827421663251 2.3364157583136382 11.874300383191578 0.823268260685008 -0.5858531089925008 2.4729502696625407
P 0.9785012878073179 0.13605975088199157 2.375813715723342 -0.5868275570906281 -0.3622447812760987 -0.2316229704907624
P 3.203519894823968 2.6572477238542107 1.3338896727626461 -0.17777558565300353 0.7070682817519565 -0.2966312570413472
P 7.666201739248675 6.207306619133441 10.358599121784902 -0.15112095917995264 -0.35478164012983415 0.5301280475160547
P 5.0742381864020825 5.341780740454638 -0.1600056357340895 0.029754862664929396 -0.9495801312410808 1.1743961061123387
Ni 6.3298908332950745 5.16593496641378 7.10525269883268 -2.7542852626664502 -3.0952747341081985 -0.1398775250556494
Ni 5.0619092075769805 5.9176313199611235 2.4537815093746764 0.31572426911705626 -1.121160643826966 0.4200817468892249
Ni 8.031262059550382 8.36814583562454 10.290170504144708 0.1760200364144775 -1.1805765238914376 -0.187667905066051
Ni 7.634952234184447 6.440452436328314 8.22047846258515 0.3279640057163577 2.331215122572863 1.9474877459429558
Ni 9.220488619475297 1.8271955109063687 0.6126137747244986 -2.0620411904115197 -0.27307121033322007 -1.8248291558687542
Ni 3.5884755476725076 3.6455342102169945 3.1750936145042536 -1.3057581374978091 -0.3685308713951266 0.5167873645430906
Ni 1.3694636042852566 3.728791952764823 0.056538765847042316 1.3360485609512345 -0.2728719498382204 1.164385258843556
Ni 6.0029965009075195 4.615429350907693 9.47530577347095 -0.9648815374848415 1.4920605296749012 -0.7567211688923935
Ni 1.0349286472191936 2.239854230633 4.996848777826655 0.6420975333075264 -0.2394967168118843 0.5722247195757888
Ni 6.440851642720994 5.083884126913589 11.763994086572263 0.4720864220912902 0.9384822215557064 0.12763701712539952
Ni 9.143386082470421 4.743565319088462 12.172662599146012 -2.2637411480906047 -0.45307234288263254 0.22379961779160162
Ni 3.290639727124238 7.289165227166559 7.230260931346146 -1.9636149905221214 0.887679279971226 -0.7266552027449484
Ni 8.566077935437175 3.9542971452811866 4.325892381392374 -0.7559891758223755 -0.4855019241662477 1.8761995399209301
Ni 3.04827502741933 6.084100385708794 12.935595220066865 -0.27805375114947595 -0.16015144481333707 -1.1825017659386086
Ni 4.056586820503307 3.4085077355304856 5.489436044463552 0.6705976976297483 -0.03247046182387956 -0.019200227077534677
Ni 5.464569199747411 8.07651163996721 7.765420310408036 0.4456516249385292 -1.3614927120559521 0.807936258313628
Ni 1.4728302083806537 4.481918022230138 6.0050148141579545 3.7063861034468557 -1.9367101957114774 -1.7909214473777155
Ni 2.4141960177991098 0.8392181774011731 0.555839198589687 0.25429521527729754 1.3700208041316213 1.1807865830197148
Ni 8.447755017420663 0.7898010679221549 5.885277962801787 -2.714166026048061 1.2770440573925683 -0.39138000807915824
Ni 2.25175615145663 -0.06843882989675314 12.081936911894182 0.16488330307136764 -1.5841762139652393 -0.490597079300968
Ni 9.034430588877502 1.0565879149894972 10.003330498747378 -0.0003846370329283699 2.448212914816861 -0.1572178161063099
Ni 6.7350017670391695 1.160233035172811 11.122306017430164 0.07685490147652571 -0.08419180145757113 -1.6414963878429472
Ni 1.1950661139015637 7.264052359906091 8.884885089018594 -1.8111814831783324 0.5152794125389965 -2.500409394314758
Ni 0.7016878615749826 8.799975746069421 4.616835857151671 -0.06095905618187565 -0.5943608893531958 -1.255846854489663
P 3.481581073130169 7.394193643919858 3.2505612620730586 -0.1224906970377697 0.4592759005901832 0.07786148836416913
P 1.273106321735757 4.38288698523664 3.5885191818596147 1.0824840531923745 0.23024665896852606 -0.21923128169462888
P 2.8070243920660882 1.9917892349954023 12.07264283004041 -0.15015705260478657 1.0905228643364508 -0.470240627131803
P 8.545347054626593 2.9763714573888964 6.407773215346115 2.8366947754126177 0.4724713162345347 0.5776374059509278
P 3.1070419219697043 0.39513077392708834 7.738787673694503 0.4608756409771353 0.4135118069811911 -0.5181881015453592
P 7.158893968978432 2.440664330020771 1.6084656864220526 0.124088894762825 -0.09253451699531161 0.4898964536895175
P 1.8086184878423406 4.365869652264944 8.198057917507874 -0.15933563378026108 -0.09416639617177977 0.8222899559321387
P 5.338865605401113 2.7752178548260282 10.492222785284586 0.21002107595027056 0.6035243010200186 0.8110141259080031
