# total energy = -381164.2409761408 ev
CRYSTAL
PRIMVEC
9.19841334329989 0.00000000000000 0.00000000000000
0.00000000000000 9.19841334329989 0.00000000000000
0.00000000000000 0.00000000000000 13.46280771779702
PRIMCOORD
 96 1
Ni 0.2580504470079261 1.3470340403344543 8.908716630893823 1.0187628608843293 0.15601094028240228 -0.9383325833517195
Ni 8.193670614364198 4.084297869855541 6.9490029561105 -1.399378688468448 -0.8846862587811731 2.9804551804624415
Ni 3.5350606117713146 9.124117714799532 6.140750337463281 1.1429995940789284 1.5137516414950898 -1.9646714568110941
Ni 9.199977029276514 7.434599152102827 10.444486474821469 -0.10303207409252578 1.2102421692766705 -2.2122380951153064
Ni 4.029401739287016 8.913538439145166 10.001088919679708 1.1672191287479252 -0.07954607515544365 0.6209466102615242
Ni 8.588503306811148 2.101736256278794 5.2583033171462015 1.3701187631620662 1.3525591570117481 0.07740923131809894
Ni 5.38615850247853 7.6423361180477976 0.2754437267150349 1.860293924434267 -1.5482519892648046 2.662341585177602
Ni 1.9441858332932536 7.443098485991118 5.9287508267955475 -0.6788481105639986 -0.06407086233797998 -0.00395538510332222
Ni 5.927098791767044 1.79012160894804 0.27911113409735244 1.0917580222951326 -2.2466592529076532 0.9675012344958757
Ni 3.824442694158348 6.517333377924984 9.661987573728835 1.110439914975352 -0.17782520794401635 0.025293484459466116
Ni 6.365826312476896 5.5905012539161625 9.844381991193687 0.9543328154347177 1.1861681590466022 -1.0012029976236951
Ni 2.5020236078120597 5.107832912876913 1.6451822105954497 0.34029604491914944 -0.19338269606264116 0.9713846287106818
Ni 6.111950105424063 2.5826752956178294 5.124160096482665 -1.4377377478626208 0.06002266041053534 0.845488505535789
Ni 5.778618004294333 3.0787641216603427 7.876226932525858 1.8846587264318768 0.5816868934299531 0.11781334616675838
Ni 2.9667826381581257 8.051831081293377 7.9623893897390685 -0.9527772980221397 -0.2987547311422532 1.7999118238017837
Ni 1.1772497276612228 6.233801486396123 3.6216434364722896 0.48477275930970704 -0.06830495502398559 0.7504780161961592
Ni 7.784166452705319 0.6452705326086099 2.0075472636208636 0.78315493760389 0.8993657151702188 -1.9569527480105973
Ni 5.090079975209813 0.7833893074999798 8.118288697537436 -0.03877454966503644 0.42408032652565675 -1.0862239798507811
Ni 5.0225636215950376 8.468647981524974 3.902315541306485 -2.1931157724635586 1.84919087254257 0.6157429545733976
Ni 7.106022630648687 0.838634977773868 4.067518124315477 -1.0762815239260883 -1.8000203243551904 1.1221931988565383
Ni 0.37517936259227225 3.3320148366088427 12.514326313144599 0.24159910786686778 -0.3277112662756034 -0.18581542523834452
Ni 7.446547890978248 2.872011385938367 2.8755215004532717 -0.37008716013865295 0.4103074411112805 1.7376569316266202
Ni 8.057672073738253 5.73602935071989 13.457166435817696 0.9116270490360752 -0.8943641481905693 0.3528132035495537
Ni 1.712054675279294 0.8838543775518292 6.87377281310317 -2.580053428500647 -1.3253208901210853 -0.5577522369912266
P 2.233751883946267 1.2747529086307894 12.193090125503073 -0.08523695489263385 -0.5235465376437951 1.0881348237202484
Ni 1.0263221622509737 0.048478397609802354 1.3927814290357792 -3.910218019867279 0.033451594790226254 -1.0093701068155196
P 4.652971375240588 4.685892496437765 1.7999905865765538 0.08070230024707392 -0.047404457425892554 0.4814737768434611
Ni 6.6313201155263855 7.444432255919474 2.89506904855501 2.291707294286227 1.7654371870636822 -2.678479628390045
P 5.799903132668255 9.077812902252287 1.7967729816045583 -1.1787088745550798 1.1288497849411077 -0.5133163752753547
P 0.23682234879645775 1.4459537769520692 3.23680941928137 -0.6348956162424485 0.42457217856041074 -0.35767438829659687
P 5.456167626097338 0.4699432560813916 5.649115383140151 1.3385942101912238 1.844885303188681 0.9034221446277796
Ni 9.122351619446121 5.196303251986846 10.764107421087688 0.2528566830585581 -1.0778570959433242 0.3832213835277658
Ni 5.6115564219576095 6.1096413036860096 4.2341602590057645 -1.5289710295480057 -1.7554031998664477 1.3840199466241905
Ni 1.1560013929404969 5.856160628405035 12.986183759033514 0.3645760005124366 -1.1295781784666998 -0.4860529115737113
Ni 4.220498775574066 4.4989071508953735 8.597173731186802 -0.1043929589957944 -0.822706474644267 0.2953397919234333
Ni 7.39289354620509 2.6443598552010283 11.74615118124119 -1.205366586351924 0.14950142129865865 0.9729051791202663
Ni 8.094971639665761 7.887473832466565 0.8313617923783364 0.1790498243797368 -0.4212569981442487 0.3331041551564005
Ni 4.449180528600896 7.044669213944253 6.001020000561923 -0.2765254874304076 -1.0603954488234513 0.2808128019518519
Ni 8.911606772352373 9.037422669456308 5.815878936885985 -0.2873207782736987 -0.430702974048497 1.427643339741096
Ni 9.17038573369358 6.678737936082811 6.582356961535726 -1.6277684967338932 -0.04092887700387789 -1.0496564651393923
Ni 1.8419270726480963 0.31536668011542274 10.188949034326836 -0.6512871702265944 -0.9445978475351411 1.6449480938369736
Ni 9.177431718280628 4.162226827324802 3.896042223436556 -0.6488145403163857 0.7058220680496812 0.222436676005804
Ni 3.187498565268007 1.9120281803998946 1.1104214153612144 1.0634684313218201 -0.36470712677366224 0.06080170466840497
Ni 7.530097078973207 7.374809465659225 12.084525852541441 -0.6716024847451788 1.0915806161770039 -1.0868443870435993
Ni 7.9380743040244495 2.9578693756713794 0.7721203313673558 -0.693640952602457 -0.22864203348556753 -2.103586103732842
Ni 0.7940272724802915 2.649915696833634 1.3985699905248496 1.7689631979390694 -2.227465453588022 0.2919865591804842
Ni 3.9269038198960837 5.530582789686375 12.892078471936605 -0.5839229818493235 -0.1002182587928145 0.9718970495707262
Ni 0.8251776991174081 4.5228506207127115 6.030489877089311 2.5210201285865743 0.04001587827130528 -0.6892363957768581
Ni 7.610031290541654 1.3704715974203465 7.397678560803238 -1.0482711547560915 -0.9870236207995193 -1.8969694254784295
Ni 2.6430352836859696 7.338245772795637 0.6924537936259109 -1.2873999467055957 0.25577411381566917 -1.531743707197136
Ni 5.906862282509209 0.24281143569544686 11.629321214089062 0.9997541809923104 0.48714588752757393 -0.32262125334720565
Ni 2.5043508063767104 7.258127592961211 11.533022105420336 1.7962899107784807 -0.6016869907009638 -0.9325727980498069
Ni 7.354333797655616 4.514544453503701 5.050451371034994 -1.4572382797893937 1.2383363564097252 -1.009740602781061
Ni 0.7770681578808962 8.226251394269312 12.355666561515196 -0.8435828038726441 2.02415212867523 2.099831521786416
Ni 6.985100289419828 5.275400407945082 2.624803108685991 0.644288113200942 -1.968838957925222 -1.1571419470175814
Ni 3.9508012976469264 2.561141810084833 6.5983511625800535 2.896567283398534 -0.45353437012071574 -1.6315814427220803
P 8.04367208869715 6.464709255441314 4.293383323190147 0.25446542230657465 -1.5318825467678459 1.2103738097585284
Ni 0.12873731316770387 4.702550822922282 1.7473112736130911 -0.7509361867795004 0.25996886862330715 -0.6969628178868384
P 8.115760053721536 2.9041782372450253 8.716683196132932 -0.07179651311701184 2.2549898842605356 0.2430993465614781
Ni 6.873808686915037 8.044886279252621 5.591521357951024 -0.13407094567620137 -1.3203231797961776 0.6736434264346076
P 2.0679596826448083 2.898833959118297 6.744705276898032 -3.601505663291681 2.3823476795826197 0.8193200746705375
P 6.52024927494077 7.793925969215575 10.115536497787392 0.078273121980291 1.0142276920181372 -0.7220498427624533
P 0.7316767477742436 8.510887095394054 8.411319790480189 0.2830038960658997 -1.3791348506177474 -0.2082567849609962
Ni 7.767360951608018 8.133825737440803 8.075207009010166 0.06913619267602933 0.6141000196533359 0.42176247702575753
Ni 5.1723689805828075 1.8741123207813521 2.5779657080087333 0.07872537902636119 -0.13237813135481072 0.3394928322915637
Ni 4.766121057231779 3.173710143732783 12.649384775931384 -1.5941281829716287 -0.4574995254160508 -0.44326666964612055
Ni 8.54736800253795 0.8569720146854558 10.881852630363069 0.4493984935754712 -1.5569659720990348 0.461660855882592
Ni 4.810521798226128 4.5121252708060595 10.924192926778437 -1.4536796159038579 0.5252138980438891 -0.09905354906075199
Ni 1.4530457536056103 0.2876408227495297 4.5014247566153145 1.1780925811273195 -0.6592290507814905 -0.749186036857613
Ni 4.0597197095205715 6.857509098549181 2.3658061449495964 1.0138337990138282 -0.5475817242161279 0.6000985631679213
Ni 8.488203808198682 0.7297561190774091 13.132699765425555 -0.43493706673450255 1.0783515190812396 0.419845976729335
Ni 1.0771617925546333 3.712819948774793 8.7412797532945 -0.15901373166446808 0.21584025373520893 -0.2572057040558732
Ni 6.337357223316442 5.879772955343608 7.377766755534858 0.43382429328629796 -2.517877983413167 -1.645447402070895
Ni 4.491713991695544 2.3441236451211567 10.167852473425542 1.9825581072835274 -1.0744624684394786 -0.43032399344252337
Ni 3.9576725123812917 3.7798303896581222 3.9407658287377005 2.2018495527921305 -0.10114154193803225 -1.4168886723277536
Ni 6.294740974502102 4.467246212320162 0.3886697555366086 -2.064633119508412 0.12029497493803154 -0.1764797496597154
Ni 2.7785371099937697 1.726799731797616 8.636027828961844 1.0880924005180874 0.7506248261866686 0.06192656230146755
Ni 5.10851359546104 7.1710830079126255 11.678380031578032 -0.8286233543493341 -0.5519669977680172 -2.294086593151681
Ni 8.899612041410457 8.092580052208017 3.3950377653270487 0.4797776200879608 1.700970117728548 -0.7418157125354709
Ni 5.401933781286342 7.644506943586365 8.039490490011419 -0.8506937038858123 1.742661069709431 1.967807174226598
Ni 6.739530249576006 1.688561927713608 9.653882851771073 -0.7658465282324294 -0.635054510417816 0.3938503239965217
Ni 3.337515487761654 1.5716224994432215 4.134670220763611 1.9013616410088543 -1.3863125993131094 0.4821368643487568
Ni 3.968673814686914 9.133067770939475 13.070461461361756 -1.970680124899019 1.904575519960462 -0.899587858483354
Ni 2.7778472289963436 5.555464497660212 7.249762555907086 0.43241584297454566 -0.18071692766951458 -0.7465635116331013
Ni 8.40926302526653 5.916042298981627 8.526871178183754 0.246412212984795 -0.9643680881835327 1.1827635042404276
Ni 1.6191139073060394 6.1104047719898285 8.9840681929567 -1.5083245569422474 0.8833500564682528 1.357487447551301
Ni 2.928563230900716 9.185747083902937 1.9936806555725972 4.439572165331787 -1.2803679795594787 3.626708387809554
Ni 1.7481216538247342 2.98833452051772 3.6012606724430007 0.40120085082432194 0.17042685859741616 -0.4623416839997005
P 2.963977122101926 7.716650099090544 4.12944736169243 -0.07965303304695313 0.06390991128008348 -0.8815315152022755
Ni 2.4349763732755343 2.8135738662497207 10.732980910325148 -1.5779047791342309 1.4168904720999662 0.8312872743347426
P 7.131060711648608 4.768558636756018 11.678609072069177 0.06639076872040824 0.19719667049209263 0.550636966102684
Ni 2.8825987596455342 5.332246602132998 5.000343014588605 -0.01148743181430925 0.8293067535696041 -0.35124071685611125
P 0.5991404899140463 6.714519763815982 1.6110137845549262 0.7097111186914422 1.7779823707185445 -1.0844283214029389
P 5.177152155498295 4.6241711432013695 5.768004875029928 -0.31347506807156333 -0.6349593796008485 0.9671039990574569
P 2.4373311670800826 5.1047238491818465 10.838394726731869 -0.1635679266940538 -0.09377790248410946 0.1547881236188947
Ni 2.5061444969700184 3.552096073201092 0.016579220130145865 -0.45775792128375997 1.3652557786428101 -2.58475391930011
