# total energy = -340856.69299527217 ev
CRYSTAL
PRIMVEC
9.37837168414355 0.00000000000000 0.00000000000000

0.00000000000000 9.37837168414355 0.00000000000000

0.00000000000000 0.00000000000000 13.72619494008180

PRIMCOORD
 96 1
Ni 9.210283095520914 5.303750519572236 9.271427265171429 1.3975503770104576 1.7111401162830144 -4.7336788561790675
Ni 8.5229328588757 2.3403820237825954 9.002736917381313 0.6306131868170106 0.5713492589493709 0.17480827549456346
Ni 7.871586190997195 5.606643788772145 6.196580879082424 0.7838373083828952 -0.17375900829444269 0.49079839667849673
Ni 1.360726699531015 4.1437772435942835 11.912429240865825 0.4672427208457437 -0.24284197913503341 0.7159015637728703
Ni 1.3607829697609188 0.6106782970527787 8.933200042940664 1.0728676131485329 0.45818009642284313 -0.4678196763951363
Ni 7.6235751526966835 0.7378884057960491 7.220212325840904 1.5077545433713904 0.9998133163650201 -0.8268665195592275
Ni 2.2643046729528074 4.431787036984667 8.81762567990431 0.3842405688208996 0.45426353497725636 0.18933012325982235
Ni 5.541295295110661 8.10502323975265 7.021456495449422 -0.7072030075576079 -0.39213025598162143 2.2749503865428626
Ni 3.4708228074327616 -0.09910219106921256 11.000886216401165 -3.4126617356396576 0.9662159400255489 3.082915184101581
Ni 3.320346834298646 3.6610912114804366 1.0820071210977311 0.766419370016764 0.16953725690361124 0.732330655863171
Ni 5.598071957083484 5.040049465500247 2.970320682694242 0.9549905036233746 -0.9141171624477806 -0.7254758377248667
Ni 7.903144411601514 3.025678397036326 6.462772828664817 -1.316430529609991 -1.0323809658883962 -0.332335395311176
Ni 2.0361664041799497 6.403233298403723 11.826146346005837 -1.530069661928823 2.011512328424032 1.281284320726161
Ni 5.014033862541441 3.122247489922708 12.487982722575556 -2.0168085438259653 1.5350115793151304 2.295185225532499
Ni 4.2602472411232695 2.8401179355572603 5.725044793023994 1.306141746089473 0.28852765409760633 -0.6298225725949153
Ni 9.501697237820471 8.456412068757889 11.228974779804275 -1.1630189746236486 0.8877906087381097 1.0085638088641404
Ni 1.9724497471856723 2.123197693097656 13.488896001847584 -0.32501340772846604 0.10754487436121478 -1.0642734437216186
Ni 7.752565276379241 4.416622210025623 13.125207438422565 -0.2832229540552412 -0.42223401734553734 0.8610714475757106
Ni 0.04743861732030528 6.945903395594903 2.2521662465254164 -1.236541726403148 1.3335216807643229 0.32452721212066693
Ni 4.972665865190579 5.265486763237727 5.1212708531803965 0.017964554898220672 0.5573457455814271 -0.9677871411674107
Ni 9.068453981048666 2.3084580466839024 0.21129846463701363 -0.2685031313465634 0.5745443688479008 0.20212238992848416
Ni 8.17487335180643 1.916882895155779 11.604509164461184 -0.2745524228644368 -0.1818132460574869 -0.7440227474891186
Ni 9.331582954449969 6.955966388376013 13.53934038728191 -0.6697752017284531 -0.7695990532963263 -0.8101774889393207
Ni 0.3438064155257164 2.6938153378076684 3.924785700692271 -0.5154958994251768 -0.15368614880396755 0.3180894269151231
P 6.578365010607305 3.527955847528308 11.285018990951183 1.2030081134220765 -0.032462748514395706 -1.251614304465554
P 2.422433397353825 3.1716715085214484 3.2435276542712943 3.133574401019345 -1.0518796980429561 0.5555300325289271
P 8.630690349141265 0.4422671259740269 2.90951413442315 0.6306959763388041 0.8604878071580987 0.6375901323554761
P 2.7025934936726435 7.267937921333717 9.80022862636568 -0.021764902480917354 0.7974865237352137 0.4770375954489785
P 6.007109636625051 2.185123081106666 3.4031625451594008 -0.43484810656512213 0.5366200829983016 0.5883640483398125
P 5.978665035408737 3.2175692593795575 0.7348329323122788 0.5307355991930666 0.7541302682367657 0.5142666550037659
P 0.5667856420535708 0.8187806126312628 12.493472821339825 0.22246341547868143 0.033587091926826025 0.6185356868271864
P 2.8211830031946685 8.981291394927851 1.6554204583967913 -0.5650443997772656 -0.7373448212483108 -1.0131095192532937
Ni 7.213355798327139 8.436211056222463 5.8151981418641885 1.954612272802879 -0.5871998528283824 -2.900904477321307
Ni 6.822952943255341 8.82064926692447 10.95171916518565 1.1654900618719606 1.2965785278810702 -2.1983914190402007
Ni 7.639462114272825 6.759245664632715 4.149085401948532 -0.4395331707456172 0.28533537241255374 -0.34029630202946554
Ni 4.486350403247944 7.361158935540829 11.241575559954041 1.9815435499760843 1.266956077028947 0.2293675987976824
Ni 2.5074389579949985 1.4864437715075076 4.959206026197617 -1.0147642812478974 0.37178794487984357 -1.247195092351936
Ni 6.063679974421561 0.9323714500635102 8.759550113457879 1.3591746054457365 0.8782029650496747 1.2454495704157391
Ni 0.8280004898009823 9.051807371368826 4.714137920921069 -0.8032141702476103 0.6681654340391718 0.7605366859837418
Ni 6.259434725884845 5.7648194050314165 11.185654205475755 1.0552311310136924 -0.03484821802743676 0.5015160402063169
Ni 3.9851139520091814 1.0096942486484999 2.744882447119596 0.4783406305311182 1.4123031098396 1.4008948680026583
Ni 2.062679060836238 4.147838078518999 4.984503245887985 0.49429278298500035 1.2870466771312352 2.3800419142675784
Ni 4.102831272967699 6.07815080187846 1.6452899413397972 0.018987596846096334 -0.8462354110041427 -0.4549603039339649
Ni 6.4442355392602115 1.091539298043416 1.3827902566762518 -0.5816868934299531 2.2505840418833563 -0.5430933494274712
Ni 3.676781227251915 5.451206657034854 10.865380937932926 1.2012322524685763 -4.183868756853053 -1.456473119488595
Ni 7.998212965023797 7.900837332175462 8.041861782360089 -0.9948875969286287 -1.270093079996032 -0.28105577120059333
Ni 1.9163295712283925 6.342067558498413 1.295339754545763 0.845696250671221 1.4821723240269118 -2.524278744733188
Ni 1.7982840072621031 8.427751764993609 13.04770926428771 1.4614602882905412 0.8625629445195725 0.2581441567097425
Ni 7.651063160004636 8.604468422006144 1.4779675992096817 -0.4083158646025484 -3.6830517995962895 1.8894306938992231
Ni 5.414752926428915 1.236557058876874 11.367362031880749 1.8702482074335016 -0.42072812222397216 1.3801982588852553
Ni 4.867834426880006 3.022742966709684 8.279763873858402 -1.2160047827920606 -0.46196527449688823 -1.4252792103842935
Ni 3.641893684711628 7.079638975332671 6.031221430138783 0.43924829251534675 -1.2453495545027649 1.2622201050058584
Ni 0.5637611171962476 7.548585692978367 9.256245557143414 1.8526135250708737 -0.13306178768539664 -1.3308233079965532
Ni 0.3977873849094906 3.880104324637246 7.240018508929836 1.0099072102659123 1.0090698019662816 0.33174712690787383
Ni 5.7882934692729044 5.476321936315201 7.227514326008071 0.8290349879654562 0.3626559006715883 -0.8750505354636221
Ni 5.817854096715643 4.755444021019037 9.27708242327675 0.8837568049883683 -0.5555282327567143 1.6381264429294498
P 5.812649100449552 -0.01360239024205183 13.247864347729461 -1.1245591279855536 0.5052937620811944 -0.15485857184551396
P 9.323836419466561 6.22289658993405 11.224225572400403 0.0256377551727623 0.6156876758554299 1.1034771105042738
P 1.5510232386936418 8.542233547732666 6.960677144456116 0.3616284878483385 -0.7545377880878296 -0.5478115808387469
P 1.230639306365336 2.974144244816198 10.104057857056318 -0.4457660390292065 -0.40092317168290303 -0.8362860131009145
P 3.736390157463224 4.718483858343964 6.844704200624613 -1.4159669318444323 -0.29856498372895035 0.32076620241633785
P 7.604208815238164 4.305873019203511 8.064469285061062 -0.22622031141795235 0.9386012636320739 0.6480545222219097
P 8.702828783877795 0.18694658480902704 9.185679875332692 -1.0610482519161017 -0.3347833426310363 1.1594772800189774
P 5.492809113676982 1.2907546686457774 6.6811707206413455 0.3696462159464924 -0.2531330766483963 0.19594248637001738
Ni 0.5358895344877852 9.029243009177446 1.1551856172503139 0.8081478601038017 1.2275778323416406 0.3709474512564192
Ni 7.372797494759242 3.7131505525129995 4.246816475082424 -0.33979365136143413 1.7669412824130346 0.608009847595198
Ni 3.042240601371312 2.30567267030367 11.421127298716558 -0.6202724670126349 0.1931908917668092 -0.9786276834263405
Ni 7.896738983764144 5.299464603727906 2.283572537508996 -1.120097492669774 -0.577655917893689 -0.44686929939571424
Ni 5.541754835321541 5.496269732816058 13.399113098687588 -0.6852774111291102 -1.2014747074966856 -0.13605095222070762
Ni 3.204045647459371 6.609829447495118 3.61553483335041 0.7853092649427313 -3.163334405890597 -0.9246977661771042
Ni 5.166122915599463 8.65151033420563 1.6848901156345186 -0.7238521860785146 -1.3782053968249426 0.8188629325284608
Ni 8.603971368308663 4.218654162852793 10.85744777335367 -1.3908755360934433 -2.680230292532565 2.500758807234377
Ni 1.8585963153472074 1.7693611090916068 2.002981036094249 -1.5730505363657232 -2.4426845287994636 -1.0619993029754613
Ni 4.061285086555475 6.285637896276663 8.448322285372068 -0.7475189335678352 0.6948869091944162 0.48866566660621
Ni 3.640533820822289 0.030624134787917846 6.445395643833392 -0.4624604689657519 1.1522103140439188 1.9326573657983426
Ni 6.196834095116991 9.429296208677725 3.7379863563181583 0.43719038154505346 -0.3033348943137679 -0.3956914909703185
Ni 7.819845714600753 2.7729312810522555 2.191785476327263 0.653083857115701 0.22927709596640516 -0.5349941173591044
Ni 1.2988950952385112 4.76646360770851 2.6699923981407765 -1.4866966942598268 0.006040035546492824 0.8288704373631337
Ni 3.913397543996929 0.9380997594677059 0.02065773923480941 0.39179832656349944 -0.33218421444529245 -0.022581484844941754
Ni 6.643422774747622 7.55046136730849 12.645586258164139 0.4778752608589254 -2.369082072821965 2.4738995209496877
Ni 7.931823472109094 0.08855902565959131 13.240905595964705 1.4016170908806633 0.9192395712760105 -1.5841183641441106
Ni 4.436466844438324 8.894982240627243 9.175192980152975 0.016821442432712965 -2.9893149448459164 -2.739804552551772
Ni 1.0581054031089738 6.741098515488775 4.252292506289218 0.08991019199858709 0.9173364407160267 1.0406987417254723
Ni 7.79952278323387 1.417203253611018 4.833048170753545 0.5096060163033029 -1.4541845805647344 -0.6833369995732876
Ni 1.6738517722017447 6.103087892097444 6.860324816445877 -0.45781140022951483 0.026580578702005836 0.40310321005335736
Ni 2.4632199356623494 2.630820815430488 7.217397876508554 -0.4978707301442458 -0.7023801322476678 0.17980007228220005
Ni 4.177989543375727 7.614140510816165 13.676149259409588 -1.1984168945069684 0.5187020650673002 -1.9784422853429413
Ni 3.2640015774217517 8.496382688732808 4.436745382076347 -0.4909248949540319 4.022237899280712 -1.903172468965348
P 3.417835007606788 4.791466346529049 12.959312484457673 -0.8525253577779124 0.2040283487019454 -0.13691998508922226
P 4.251103328763921 1.5479283760489388 9.753010400779164 -1.98846136014184 1.3471976355895183 -1.753320092085174
P 9.397409745065634 5.052110051442938 4.769619429768942 -0.9251680209453034 -1.302792884221898 0.18746915879168358
P 0.04415993859125031 4.794645614518607 0.8679335962893004 0.32015068031952604 0.09778599520223805 -0.8339617358431121
P 0.6060969625014534 1.8399521125057852 6.139411263337442 -0.36293486536458786 -0.010415796016685287 -0.36758496254208956
P 6.110065400605502 6.725549175292056 1.2880274381697785 1.5933113434972883 0.015255383497173728 0.8099903126291792
P 6.405277783423558 7.278244751777742 9.455028584812682 -1.3923773174499505 -0.30607337629085346 -0.5006704043765701
P 5.390809943604895 7.63968719519244 4.483881077992337 -0.36339612127172255 -1.6586335617438661 0.9742580936037349
