# total energy = -340890.8233966245 ev
CRYSTAL
PRIMVEC
9.07552490845094 0.00000000000000 0.00000000000000

0.00000000000000 9.07552490845094 0.00000000000000

0.00000000000000 0.00000000000000 13.28294807163835

PRIMCOORD
 96 1
Ni 6.649001969988569 2.4205333052368196 11.309394841442323 -2.6415503594638636 -2.2196102192096614 0.5993791685033935
Ni 4.8226614455266175 0.7671096684731459 6.033659585469844 -0.2152861810039518 -0.7412469845161943 -0.2882373765506972
Ni 2.92593114821994 1.6664569983910993 4.7514830095488065 -0.6298667955692894 0.248095771334805 0.28754009337335645
Ni 3.8663007592409677 5.048533114758119 5.120257897348263 0.09613663252427314 -0.03377272557507087 0.02501889064184078
Ni 3.920399964492052 2.998589802345117 2.5443089470580555 -0.7005921871093096 -0.744827245668285 0.1779501635576548
Ni 5.118478186871877 4.859217660717251 2.0086206314283963 1.1019748149271344 1.4674635570618275 0.7108035804246726
Ni 5.617350727292418 3.173030470711346 13.749710976339655 -0.1456247119520718 0.2518891769389662 -1.2136679071287677
Ni 6.023026700237137 7.9039565083067505 12.027802519454323 -1.045936593085644 0.6424016948115066 0.5224707880811131
Ni 2.2087740775697253 6.665537576760499 0.24116937437681807 -0.4167930488356241 0.5032170820578237 0.1082007627776588
Ni 0.7658300194309712 0.1887536790358288 0.3419340222517155 -0.30082626895930126 -0.5844505722180192 -0.15429807135635362
Ni 8.19011689092241 0.15084793325958262 6.880195527151498 -0.6713443459877857 -0.509548166482174 -0.6439538697899748
Ni 8.773881893332321 2.3577760490195327 1.596557303902951 0.5332460243197462 1.2435986332499291 -0.7215978428266991
Ni 7.085489350721818 1.2915924332349114 4.710452560473123 -0.5839633481689556 -0.7030866713963891 0.45039659582268243
Ni 1.090170228681554 7.488143173800975 2.346326366525863 -0.4430028744617725 -0.11704664320406294 0.3877814920946225
Ni 7.986716221892498 4.186721249191443 3.612696100342251 0.6143350184822775 -2.546321583465841 0.55875882387887
Ni 7.8920675703971845 3.8609371238939807 12.462752506231938 1.5182158479140306 1.2982420316264225 2.2227330811093586
Ni 8.53042185641476 7.5968861158104515 9.027211563819847 -0.5324289277350895 0.20825858473320907 -0.4142648830971317
Ni 7.079254464963137 1.107368348787376 0.4941696033024222 -0.5348593915534531 -0.8331400112727652 -1.4461789366514384
Ni 1.7684023720843436 6.82998609196762 9.055995499296166 0.2167033730664526 -0.5106087465362045 0.6045393725480943
Ni 0.5065141325731024 4.919243183872875 1.293586326104172 -0.24837833557223027 -0.9265235065319333 -0.8747314615613064
Ni 6.2834670446575975 2.371970170310037 7.052275651433545 1.7869421510149934 -0.09412140186645726 -0.4160245461007157
Ni 3.391106263863217 4.584120343225075 0.13781366407964513 0.9767816313565372 -1.2575589520847632 -0.25724324216202793
Ni 6.379985254328002 5.855828300918109 4.6455253461992125 -1.0572026529177663 -0.6280631667016474 -0.2128839993203624
Ni 5.401679948297827 3.1334702567053947 9.209732172202019 0.05883815318413093 0.036327373676124534 0.20008684755569411
P 0.47735265525171605 5.6504037897860355 12.483274991189877 -0.31464594845121296 0.5377554821543254 -0.5119922571472925
P 4.2185128136931285 6.272313224282898 12.27928895078961 0.3077183680934442 1.646231074314455 0.5360791228931671
P 2.694378200262187 8.615994982788267 1.252795470891704 -0.057212444655249856 0.5809564430218317 0.07824921072089104
P 6.59477570738578 7.997997099618902 5.422166131155278 1.3235054341789014 1.0677338914663934 1.1622646129561274
P 5.114076557187801 1.3811678661871345 12.633252581590279 0.867318714037003 -1.4087917542522317 -0.20361980040961705
P 4.334570628950781 6.454912789733631 7.583301869808133 0.7490677661121938 0.3812555180506466 0.23430720219114487
P 4.8850829073143975 1.3900346542311386 3.727872682110576 -0.09286567508248522 -1.2404184357497345 0.266506926852141
P 0.5997769513823151 5.468993118126259 3.3831134488884427 0.9311646048483705 2.446955388260676 1.1054656016892124
Ni 0.8779336283930527 0.01128904569901421 4.4945113308299005 -0.547075988224303 0.22079065576194878 -0.11259683496282544
Ni 2.124961603069849 6.63297459262346 4.607203941372387 -0.3068256810758458 0.5133981363558836 -0.84589422561464
Ni 6.294021880374258 5.943089474964272 8.787799211106611 -0.6317154187422539 0.49414982964923276 2.4612203828201227
Ni -0.36459833113840107 2.5274248401214483 10.341851293101584 1.1403408162998425 -0.26881706304255637 -0.9972311574601406
Ni 2.372850496246852 5.771943222217259 6.9309231748198314 0.5565142508190674 -1.2298707421408754 -0.20482873311605365
Ni 0.7003491981246303 0.6626966594992824 9.24127960507793 -0.07808491722888487 -0.8868151321987179 0.39887348824272595
Ni 1.6054694695725644 1.3242370970980468 11.433231289281874 1.0555784870507818 -1.8584931237801023 -1.1605149772548722
Ni 4.36255954842643 7.2209960163155005 1.521003557263918 0.6365853452400456 -0.04669431873274539 -1.5871666640521311
Ni 5.918939502615146 8.149131819472334 7.661830573582094 -0.9437987486726133 1.0445456262753883 0.3168604396040285
Ni 5.141902117211257 3.1569123380950193 4.906694455286953 0.7660966965700226 -0.16605058390659144 0.19039687396143987
Ni 0.8694924824772611 7.451051502628155 6.624459027401669 -1.6826821180526377 1.7690277326284176 -0.397232095984561
Ni 5.424695480006726 4.614605032109219 7.069185169840494 0.6117364045171658 0.0750031929797676 -1.2912884831267244
Ni 0.8392827820043062 7.581521251779235 11.26367416098369 0.21764311127190258 0.4475856087364485 0.4978159656469104
Ni 4.977317469127309 0.5642117835349827 10.516521572253396 -0.3739019058990528 -0.3948988198656941 -0.49571434592287533
Ni 8.434121459347278 7.185928187244843 4.528621692000208 0.6312233095971838 0.06117117219268175 -0.14287388867981202
Ni 7.406363616928383 6.527389933356372 6.900266050958372 1.271103009317785 -0.76388400518942 -1.3263418751864318
Ni 2.739783052446582 5.239854259850907 2.344679158716255 -0.8371324202616099 0.5581916385214902 0.8322655790876118
Ni 2.3740938431885397 5.560619619756011 11.345086159088849 0.6958315324958726 -0.08220228183136812 -1.014645496281846
Ni 1.542548853903085 3.455923664283154 3.611673288661024 -0.8233667339360853 -0.3977041505249731 0.1786047664225182
Ni 1.7770967251510337 1.1512757393266722 2.4185330594999734 0.0012755242783139323 0.5701264422858632 0.315229845979141
Ni 1.350828385704938 3.535035016769935 7.758942322595464 -0.46339583629582776 0.3144775411941487 1.4559290740596667
Ni 3.6418720985038324 2.8865070670908155 6.987215934492856 1.7362639079338353 -0.3175343257426015 0.7327309766253832
Ni 4.49780302379158 7.46504596236598 5.4551211779775794 -0.7621158575454036 -0.5138475651884764 0.9440679431735999
Ni 8.290455896669092 7.166542865584666 0.3611305729893591 2.1173998696874823 0.3871505433788429 -0.9933354219501602
P 0.2345614845356313 5.855746621192013 7.805126762387823 0.10206276820072101 -1.030522829633735 1.5125933595209304
P 8.706087720672432 2.0016705942901174 7.815687043419555 -0.6974508132668505 0.2640378964863581 1.654647066292292
P 2.3783956420962755 3.7122981734490454 10.1156828541986 -1.2050449413464472 -0.38390401141708724 0.09103196430785612
P 4.223858297989872 6.439175829172419 3.457405697535545 0.3868240132773596 -0.5411182279789712 1.1788348586099826
P 7.148110474062278 4.263091793091438 10.421270305889996 -0.5540069110161814 1.2881921035895878 -1.5811132587691994
P 6.523423928878143 8.005448105743904 9.858816451571107 0.09961636354275748 -0.2250725709667543 0.49184432144450774
P 2.453876784534334 8.594132042769838 5.830590173106879 2.15700848521804 0.36663365437241374 -0.9021203950972204
P 7.272581301107844 4.296507876589927 1.4745668178731743 -0.879005406346312 -1.8043402918867828 -1.7882459574280813
Ni 3.181988014006568 1.7278347747898717 0.2509164883576375 -0.8493821841632404 -0.8119482076864983 0.2680043373332739
Ni 1.5485931536342077 1.0157599982078682 7.069902136325116 0.624227337895325 0.12455143622154034 -0.6366578503491939
Ni 7.108241692202185 1.0587870628103495 9.182913995467084 -0.7001658982051683 -0.2045831927641509 -1.1596996804424287
Ni 2.896272332121879 1.825060875419777 8.953305024990422 -0.05984885383683241 -0.46308036193793795 1.7464457335628436
Ni 6.362097394312923 2.506723567318609 2.6424961457983605 1.0813028884000797 0.05726206694626267 -0.21967916786532488
Ni 4.183753552476612 7.016234018517317 9.955370963341997 0.4357911872046817 0.5897259616843455 0.5578080299298265
Ni 7.741059907895459 6.390549165569784 11.061574922256245 -0.9800237924429187 0.07490806216280002 0.6939535987468695
Ni 7.898556570859276 4.233206088865332 8.246638353828503 0.28302395067055774 -1.2190577106857714 -0.3341562505699987
Ni 3.3023657792222 8.552956385292203 12.342529024943376 0.761476681299508 -0.15807013680427617 -0.415557119545994
Ni 0.2575661256143846 4.79442748687268 10.470496861703182 1.1151599461588406 0.10042934636235608 -1.4059478570455335
Ni 9.196683382181888 2.532670493641852 5.810506036012323 -0.4820286209056666 -0.3437310387426274 -1.7343160401788453
Ni 3.7602623237177886 2.581369761445462 11.441612536731864 -0.09051362991054089 1.2421652432375125 -1.074919096360923
Ni 1.3618006955772008 3.3452839375232197 12.427287169160946 0.09448598429472758 1.5754174939360028 0.8496431511341109
Ni 3.3059869137458007 8.388290057482159 7.965425947509253 0.3636941121281156 0.9468786731495176 -0.32315887101823054
Ni 6.040959937877825 8.151210114725227 3.354197010745345 -0.3576293939912744 -0.07179162802100539 -0.45408227220438574
Ni 3.4673225238361423 8.654820079259352 3.5540654853978495 -0.22702738070027997 -0.15913225952020335 -0.417986554923093
Ni 3.681486765660515 4.81755192488304 8.807032971497254 -0.17818336261438344 -0.6969612752249416 0.3762549795122617
Ni 5.057771999332117 4.782538548963114 11.009837168641855 0.34321476122784117 -0.3541139246388482 -0.11371500772766867
Ni 8.161656044140425 9.027007364504607 2.3487576997059945 0.2695799093505099 -0.1945389211542714 0.4808119748897461
Ni 4.869863251685129 0.6602408224013218 1.6201872486625968 0.13701974389188015 -0.6619996715480921 -0.17202505632247148
Ni 6.312109401942017 5.855310995986166 13.126846796599978 -0.7721112781952186 -0.8985185366785752 0.8894762239706487
Ni 8.01367053150426 0.1006384980757043 11.190977389653002 0.5107020775809591 -0.07817696272205892 0.5788368255756676
Ni 0.2847210043313397 4.8939406198332795 5.7765154717736245 -0.4229320718538264 0.9928178588837933 -0.7804107991998495
Ni 7.619057623683023 6.04063321897344 2.4330774960601795 -0.48729269751808335 3.3695559055891193 -0.11328846171321133
P 8.876544233510188 1.7555968061374756 3.637256286426882 0.39344177570419336 -0.4371785544705116 -0.03943943694254498
P 2.0808000978271424 3.1263641205350203 1.342693992538263 -0.9507479262969367 1.161488139801419 0.5888134771724053
P 4.849243658608387 1.2106387491484039 8.259045504222524 0.5620382659610902 -0.47447317715591186 -0.2648423946655245
P 8.85886511057291 1.7674585174716757 12.450744678943275 -1.1946332590948199 -0.10615365044064298 0.6216310379230584
P 6.499999998538761 7.866656100056129 1.0689589113668694 -0.5812053258078441 1.0328334800447825 0.8598332042932352
P 2.257291834870899 3.6471540541247234 5.7625418857435795 -1.4047744055627227 0.6073110217559605 -1.6269164331462433
P 7.1625042569054616 3.9203273602910773 5.535243543962929 -0.841837539046763 0.07900485793999297 1.744282150252622
P 2.555422835122219 8.640090501986661 10.203111017907004 -0.2418896425240931 0.45520327318270637 -0.26063786966587377
