# total energy = -381165.1182568706 ev
CRYSTAL
PRIMVEC
9.27591438460847 0.00000000000000 0.00000000000000

0.00000000000000 9.27591438460847 0.00000000000000

0.00000000000000 0.00000000000000 13.57623832566743

PRIMCOORD
 96 1
Ni 5.819884984769472 5.09286663586503 3.657466177830361 0.993624671055805 1.74172338838651 1.6482517042889095
Ni 0.7245435349221819 3.060727120153293 4.506550923284915 -0.46652461173279647 0.5309803682140211 -0.5214068655929729
Ni 2.573908576611144 7.15442007638093 11.686887904712467 0.2666714774544633 -1.2128639231702336 -0.7526418566166974
Ni 3.298904776159767 2.6077471126204763 12.069845889047025 0.25081342737628415 0.5845256484303287 1.6125105421335584
Ni 1.5283089450201588 2.19636030559913 10.200805705162505 -0.48102177690770703 -0.27651623145902704 1.7042408180600197
Ni 1.9455210263325855 5.084870797586508 13.343025444355378 0.8758897435354657 0.8309435178420786 0.3507015565231896
Ni 1.5528993942966773 3.585706775850703 6.473353680200343 0.8483087485934037 -0.6289779652064328 0.550679132194529
Ni 5.758246533074843 8.775117129584462 5.58204682723283 0.34888018704373464 -0.662797227748723 1.6700556875378787
Ni 6.19409392657004 6.259424192226214 13.162882547269513 2.0442291019307635 0.025806419540142657 -0.3405873509073231
Ni 0.9415888025688804 3.763757954222174 8.719149044409159 1.5201099796129498 -0.8506024297235867 1.1101714918053138
Ni 6.1546156345591525 1.0238105084862923 3.683518511228335 -0.3578646499305321 0.22581767666289496 0.33852841149576535
Ni 1.280855374537443 7.799597031861488 0.25234383259459103 0.3523694311439157 0.07515514517659959 0.40452785831502586
Ni 0.9394553422393447 3.0577402756919434 12.78921068091712 -0.5098497568829928 -0.28175074038508896 -0.2113212828189328
Ni 5.241457509859955 3.3206382437776027 2.604180523504361 -0.3131436528740736 -1.3912599160160555 -1.078236076549298
Ni 3.3345242877485375 4.881681890984421 3.970560757104206 1.2885392025163613 -0.44326718386675273 0.6418910737236752
Ni 6.802640295783916 1.4744066059987149 1.5054827746770219 -1.5505338433204459 2.6196520167288755 -1.173218797974786
Ni 7.03185741840634 5.396504420330345 7.889627202585 -1.281488209206851 3.469911975511379 -2.899704029255303
Ni 6.11524865352198 3.918109171106846 0.36252592751774 -0.6895097040429028 0.35091650074747305 1.113087379900528
Ni 2.5385395147132326 0.16233035851713565 9.376863325895805 -0.019544754901146984 -1.1140916527953264 0.1430042436100892
Ni 5.969579692587072 3.1636712190106304 11.118573031764948 -0.14919777401531079 -0.049498620950759915 -0.36393348183243135
Ni 4.823846564225049 5.772763339230162 1.7904073292779663 -0.8208511666030831 0.7690910033116561 -0.5632364000342494
Ni 5.684744186765099 5.134942183929264 10.016317969735969 0.1353588112496895 1.7151330394924913 0.7475886104635061
Ni 9.145272496758912 6.786704274713732 3.161362443897494 -0.2544299410829489 -0.3363812832457755 0.31803414819715553
Ni 8.60195435814197 2.5626661682659386 11.080966619295365 -0.17630440042411571 -0.4751120962914914 -1.0483727133309622
P 8.200409296379917 3.5043106263216766 0.6164967555114639 1.4426495833419413 -0.9763052059407509 1.07482499398522
Ni 7.80203659736874 4.532286020407802 12.298795865332533 -0.521984592473314 -0.6271352555707392 -1.0347762055934502
P 1.772775671041525 1.5803561011463545 3.546181176675987 1.1031762914344034 0.32257265949745734 0.6423690418013582
Ni 7.978167661443629 8.960514832221117 6.865829680378974 -0.009980508251479586 0.2584452328899291 -0.46813720763555505
P 6.017601101830578 7.239498763957024 7.451644493577371 0.536132858949238 1.9329008492677162 -0.6888049646663944
P 8.262938235864267 7.707923169092784 0.3086597645627533 -0.14578129213459406 0.4343022613639811 -0.5989855326094007
P 2.3383652803159234 1.2929326151855105 7.544560401294443 1.8785659832705774 -1.386006123816284 -1.1583195122654502
Ni 5.986526788335166 0.8694546536443821 11.12844260476767 -0.49290592993980265 0.29337006979157215 -0.9455818087149652
Ni 3.791826871427283 0.16350561688127555 11.815156177681393 0.5598512856121003 -0.6127514760452415 -1.566487538436225
Ni 4.958746188453042 0.722961063912535 8.550057471830291 0.0545706361570286 3.220138816474151 -1.569285412896336
Ni 7.024714964259633 6.815190608070273 5.272142234947364 0.4399280921911907 0.44531583886566534 -0.20587465788206483
Ni 1.4673940146546758 4.793217494624498 2.709668078111084 -0.7502543302211273 2.4699562200312233 0.5538490452820785
Ni 3.791353799788995 8.92913441354799 3.9371229406002475 -0.21308943046294915 0.9161922998092544 -1.1253276307204618
Ni 1.9857042878436673 7.3291968569422865 4.235067168760046 0.7627406356135962 -1.6512226139917756 -1.206861939950528
Ni 4.536005662112775 6.878981071923391 4.6398968318381355 -0.3860187437672448 -0.8277404375237486 0.601069668831939
Ni 8.269922999464878 7.3400125732215855 8.44385010626021 -0.6404373719962841 -1.2196788892095383 0.567004865937746
Ni 3.757413228720424 1.60836008695013 1.7610963671244881 -0.23609643288108373 0.22863432017608365 0.04922994067040554
Ni 3.7311809425816107 4.053287072769125 0.8459337173069744 -0.600165926070747 -1.1014348832632643 -0.2501529109741498
Ni 7.8504197672768194 4.063138093942895 9.101944700240384 0.8665463546473527 -3.5689346713341954 6.24038721767413
Ni 3.2511894720939765 8.07334781988435 6.879473622982078 0.6423533580720743 0.5222165059784619 0.4494650851473485
Ni 4.256318288825117 7.266825608004034 13.48032196488403 -2.9357760923875116 -0.6788925906486888 -0.030430805686031466
Ni 3.995312607292611 0.8883803019502594 5.908841004596637 -1.1637306559786924 0.16344991305895076 3.330267392402142
Ni 7.184780144461671 8.976274610916253 9.606940325790177 -1.2933034566742243 0.2073353015879913 -0.26090603572559584
Ni 8.136396210579369 9.280737951769956 11.9461255969458 1.035695889194242 -0.28157024894316673 0.3765671114360418
Ni 2.749956157455747 5.887562056788137 6.430357961420065 -0.40996599861146166 -0.5049188952402789 -0.3956310700460283
Ni 4.920158384231874 8.757520719823031 1.640606876035339 0.17021834213103587 -0.4363444886049904 1.4067829513523191
Ni 6.259683917831549 1.4654831762725697 6.753431569487451 -1.0412024208347679 0.6036461713098635 -0.8973949645970932
Ni 8.044583209093522 1.5752265204409925 5.337158974694241 0.6018055185566991 1.0525345580181356 -0.8179206232198495
Ni -0.026874179420569213 6.2212909078143825 12.58530845649181 0.06143368182544904 1.8435832965478056 -0.56027037542739
Ni 1.6085270534107026 -0.044067086902284336 5.27158568007879 -0.62772429530499 1.63032494460716 0.8621235429893089
Ni 0.9944336873400328 4.968133413903 11.066793021975668 0.5949972373856139 -1.2468577636171752 -0.43442181766098087
Ni 9.170419500904005 5.424768131739455 1.0746397370417573 -0.5235465376437951 -0.38115781613051775 0.6801390614612802
P 1.3606467908620794 5.251967120961537 4.9147616571895965 -0.9993492322444079 0.28741282376687277 -0.2822914433799074
Ni 7.1556352211773175 2.090967365320065 12.868888931085147 0.1086962143568386 -0.8877322446963486 -0.43752128252191097
P 5.997954714969896 8.071260739127196 3.5767824185331105 0.8808044072282637 -0.359869853286019 -1.3997229591817442
Ni 5.827454130982086 8.753049729045483 13.013734190814565 2.929880552838683 -1.1374681227377377 -0.8351950940295809
P 6.305831592350855 3.055291434270215 4.490612119440388 0.6856137114226063 0.5875785763240396 0.9807352166876464
P 4.914370213598699 7.11156535150069 11.231187271463767 0.22445807731120698 -1.0390149262651462 1.3559959506074388
P 5.0739808739914 1.23902100024959 0.036024869051382254 -1.2548271549758971 2.0323606326279515 0.15113895690208162
Ni 3.8550329526683984 3.516499177943459 6.277082750614637 1.0985588472670498 -0.13221203809059165 -0.673572463987356
Ni 4.519884122753066 5.820525022868334 7.933736958693875 -0.578323633384675 -0.12145171425029405 0.8819246368756359
Ni 0.0435606219718815 7.039305977730763 5.803665120716315 0.6501538279530996 0.8825604706874219 -0.7032082845759179
Ni 5.622029728991224 3.5365815327845236 8.213434535487457 -1.0679354659542382 -1.3181251437035943 0.1859277824464927
Ni 3.7432952868875837 2.1527635075607914 9.91417067193214 1.7715630974557621 0.21948453535601556 -0.692643364575878
Ni 7.057663012479246 6.680439398473901 1.8116408251055327 -0.4546065201389719 -0.6163715892963321 0.9077027742810044
Ni 7.857543669594573 4.440482294836431 2.9400428348601424 0.6571050624599521 -1.1625122101905594 -2.4106375276662484
Ni 0.9879127194632346 8.126535913491123 7.8133559958040975 0.8278219414939614 1.1979124440667241 -1.040276309476073
Ni 8.656830668183419 1.9243626654122767 2.96076058984283 0.1652342586528832 -0.5278022275963555 -0.32779328446644834
Ni 2.094334522274941 6.449404196614133 8.88549865666885 0.49631546984198394 -0.7711067481901042 0.29252417685150905
Ni 5.747913164348309 5.071309410622242 5.957687970228529 -0.656162753151341 -1.859627751605178 0.19906226294592166
Ni 3.844152304987766 2.1479956875200026 4.231686097933455 -0.5747207465247651 1.5455111932948737 -1.976138576910429
Ni 7.529538057800168 6.993260338270696 11.08920734171606 -2.200099402870243 -0.6198253521728874 0.2619586453598262
Ni 0.32673666669405427 5.292085451071285 7.234791237360331 -1.217205230858065 1.5650855158823753 -0.4593386355073186
Ni 2.420215949654285 0.7027590497747269 13.47183728591261 -1.3620804662386221 0.6088063753545644 0.3752031412089796
Ni 0.37787571079302573 1.7504485448972096 7.489210092023257 -1.7619124617398751 -0.46252140411067444 -0.6895161318008061
Ni 7.70605871028306 8.94344714958483 2.065556925203847 1.3859372182515615 -1.7754110104469423 0.21286523026728502
Ni 8.416454620446077 4.862768301367363 4.983320868674951 -0.03548945115586146 0.0621762164184284 1.7635515400051949
Ni 9.27358622170877 0.41245446477756187 9.408970976263872 0.7319365057485459 0.6930177171961613 0.4387744382027217
Ni 8.244006094418257 8.692431627943238 4.326625082597795 -0.041854474141940816 0.5307849643737632 0.47994139935933466
Ni 3.3215009038238934 4.522481378806414 10.406851593423275 -0.6730297041100086 0.08024721498752631 -0.9256647580760639
Ni 1.4785714915985477 0.1998412290676119 2.141407005467528 0.21909424189613236 -2.0756035024769863 -0.2146063813281078
Ni 7.728339456854993 3.2577011640562987 7.151392417895884 1.2223793188598369 -0.5565001097516803 -3.344460138962756
Ni 0.32800190142861374 7.575546593602331 10.520104943629507 0.8724969158038329 -0.7318681144044556 -0.9510343471891038
Ni 4.660460606640518 4.7904625480250544 12.324278657581665 -0.8647136723139881 0.45128722595775184 -0.4350453101775927
P 3.43370236532852 3.668698382669643 8.31670885690015 -0.8302405782377831 0.8171071261796186 1.332682215582163
Ni 1.6442857037166165 3.0415816326743292 1.563398801892336 -0.059047440981459594 -2.524667752641491 -0.7788205718945942
P -0.04766985208485684 5.545494158647749 9.334274819761033 0.43412588368711685 2.6930906934350007 0.7082286206086448
Ni 0.06415686247492992 1.180981603371742 0.6385687940076825 -1.3106167511416913 0.3545903500546345 -0.7272270160880185
P 7.057551701505532 1.7638893449732846 8.693639352008045 0.4506549916903916 -0.4282246877113335 1.0257948280304463
P 1.4878752338182186 9.015363314519137 11.491348844778935 0.4886186154183585 1.6053909003696416 0.7088904225623598
P 2.909269988585209 6.934914836215132 1.690119852326625 -0.6803372935150154 0.32170362662894275 0.2415237745442421
Ni 4.807585886148198 8.173138107819765 9.403676284280833 -0.2921297696265679 -3.6886979421384725 0.781165675088003
