# total energy = -340890.55894877686 ev
CRYSTAL
PRIMVEC
9.08503886023730 0.00000000000000 0.00000000000000

0.00000000000000 9.08503886023730 0.00000000000000

0.00000000000000 0.00000000000000 13.29687270176377

PRIMCOORD
 96 1
Ni 6.277198448335856 2.3355544860795567 10.8621349202094 -0.053073482786211816 -0.35763479330791315 1.812426154218711
Ni 5.068524903724613 0.4815579257084008 5.907069430414672 -1.4161430524109806 -0.761614749539269 -0.426148264798279
Ni 3.0602680207581403 1.7640782986420873 4.7496291443732295 0.7449486017374976 -0.5767658019792519 0.4242649317326371
Ni 3.720296080108762 4.598737554116621 4.926331329490336 -0.0973602205187291 0.14983669315089035 -0.3217483638239491
Ni 3.894256400555365 3.116277284156579 2.9181180547094763 0.5623851077775476 -0.32860292485193726 -0.6204434453728604
Ni 5.353994988802593 4.9717874119701 2.1916038653665666 -0.717734503216551 -0.37726105217927286 0.7629080144293958
Ni 5.483202408762463 3.3547868043510993 0.09844366201667538 0.09727254590092924 -0.5599410171124293 0.358002461059977
Ni 5.809137256075099 8.185056568963944 12.21587654529 -0.4574622444202122 0.37180028617501776 1.2611865215350215
Ni 1.8186430408920504 6.972113056177962 13.794175796680126 1.6645524983314626 -0.4879575847955919 -0.8995063545131411
Ni 0.8883060089953734 0.17961212300299692 0.12211745578206906 0.1830401764860525 0.48781231746697923 0.09269392539131133
Ni 8.185574416168114 -0.10742149723003099 6.754146625423272 0.09180355236655802 -1.0082884437155668 0.508272385093544
Ni 8.666509108223776 2.4515613448524136 1.1975625423182505 0.77464947123604 0.8012488189911232 0.43005428472090457
Ni 7.184448579965198 0.9607246692389476 4.94769934044137 -0.1648917877117999 -0.15973672587342166 -2.4803938704247797
Ni 1.09861738616701 7.82059207265329 2.667445484744019 -0.04443303350239444 0.8638862913166863 -0.33716109883459355
Ni 7.810716635619373 4.289791729116246 3.5780952378435478 1.022529012794981 -0.40536166707023086 -0.3445887587572324
Ni 7.833601848028241 4.069997388581221 12.41330897164353 0.42825682650084956 -0.7209807780679905 0.08005026848537182
Ni 8.26048055999944 7.594937882176336 8.805162242888489 0.29204955120793574 -0.12037107959160559 1.0871434063412566
Ni 6.996270174000581 1.367398255208829 -0.16691396445441656 -0.19157392498867654 -0.6178623149092456 0.4956863208984172
Ni 2.276483564649443 6.652137994232623 9.24111327447521 -1.038698423465992 -0.4281431837411207 -0.4941279752723619
Ni 0.3014052429045592 4.976747843083732 1.3217831845523456 -0.2154512458269064 0.00458247716435985 0.45707297940159347
Ni 6.4412560766325315 2.1904482484477863 6.891383402559386 1.4267745639828977 0.5547856981637349 0.14039714500454528
Ni 3.455012950954761 4.591460438142226 0.05219718117265055 0.3968086352938972 0.9290192763705936 1.4575979771216574
Ni 6.283403529747232 6.008926341459538 4.500911674729482 -0.4435960279610812 -1.5083428117746926 0.8928001461375592
Ni 5.385265691903555 3.0748676779002797 8.880023870030334 0.2841148697418914 0.34824615300416156 0.28770053021062064
P 0.43477451907899917 5.842134116523295 12.367567618949538 1.2726860375341889 -0.9438069762027294 1.230012152814746
P 4.010426790024276 6.673823981537096 12.679326171922039 -0.45438129150204326 -0.9539679758961314 -0.6353453021853573
P 2.73606841583141 8.837107964362605 1.412818906037782 -0.26064224054124785 -0.3353667259383321 -1.9891064499250064
P 6.557381040908095 7.863110053627288 5.659561179417856 -0.20125489972186633 0.6810690294747174 -0.06587423409530589
P 4.861658573216512 1.38780325206088 12.490084816433074 0.6712031924242312 -0.18725935677372266 -0.8976541317957507
P 4.405980288662497 5.979872387793972 8.30340464220197 -1.18519936737543 1.0950847726755204 -0.6547938978282722
P 5.127795696005459 1.2130434482113472 3.5871766424977376 -1.8330710841625721 -0.5543051589828906 2.2342953320256616
P 0.5425058161276655 5.918757332663185 3.3559978400057644 -0.5700755344432697 -2.1085215933612464 -0.22883075245760587
Ni 0.49961534856821216 0.3375355331899204 4.823693105119879 1.6078568454116309 -0.6152788704527855 -0.13405731882944655
Ni 2.22668846770105 6.627626559901887 4.491098015958518 0.5476130916746956 0.0924327013101247 1.2575689793870923
Ni 6.3379137617651775 6.035808970883053 9.21139520448289 0.7158079756177994 -2.3636027948749487 -0.31745385021365324
Ni 8.589431640150401 2.2690247479016543 10.089839404002351 1.144880613151725 0.6879919818467958 0.5270406668399826
Ni 2.5674955233159142 5.487972054064033 7.048897986006174 -0.0022828824969057457 -0.4716848157774974 -0.3164032974619519
Ni 0.9530841517177657 9.269010702718127 8.674640217833119 -0.1979680014404784 -0.39628438735931104 0.7020895975904424
Ni 1.7949038348482351 1.2745037348115804 11.251387944530212 -0.828425122295599 0.1212938485161911 0.3532886005240754
Ni 4.703115563392317 7.320378928540615 1.4318738661435217 -0.6416301067528046 0.4114179005666398 -0.9349307567590222
Ni 5.818976352954337 7.957131118819574 7.950585348458086 -0.37117113723145106 0.6131883064723439 -0.6843788105742407
Ni 5.763194215522639 3.099315516960328 4.707239262444474 -0.5289417405174375 0.6355890427650472 0.17215849657654222
Ni 1.0255100799922756 7.369955984560937 6.649739544023833 -0.349784701135875 0.39383541159818625 0.2702985326840893
Ni 5.3470176791042965 4.709266134571675 6.763148081737168 0.6210468832848143 0.07245882929135908 0.1990720331379346
Ni 0.6887404155622076 7.49959040133828 11.032255903314205 1.9095637172036728 0.5064633569092633 -0.6228926782443014
Ni 4.636504059866388 0.5432526063063113 10.321976678073973 0.2816656368704504 0.05555665421938173 -0.2294565589670629
Ni 8.461032788632131 7.322886399213441 4.446115263993443 -0.419538215680929 0.20847507161938936 0.5705776708906689
Ni 7.6136167216811526 6.359081901865479 6.858526451706702 -0.06978565333457014 -1.018646389911123 -0.20390904951526173
Ni 2.740265703696792 5.507523057281136 2.3631203104110314 -0.2917297059746718 -0.3000901621242251 0.10154263403119285
Ni 2.672609420723852 5.410540269482542 11.267477548014178 -1.0822176869048652 0.40942683827854004 0.3035616656125933
Ni 1.5384604483198112 3.5218788355634407 3.9475755840037183 -0.7959268925575775 0.4644070511691615 -0.9900927466431464
Ni 1.9333143989804682 1.3161222969572817 2.624988373529108 -1.699379119092344 2.1103316499867915 -0.5013790004078204
Ni 1.029589262354952 3.5827213395341375 8.407585506138537 0.5572611562874209 -0.02122265682420216 -0.8604556683685827
Ni 3.8845899194108493 2.6326170805000197 7.03835389012617 0.4206504749085013 1.2047253532234994 -1.3658350481850479
Ni 4.340477159854266 7.109260799935113 5.881911141330655 0.10259447233447491 -0.28427942034421366 0.012594805945875082
Ni 8.54327964370854 7.380985221505901 0.21842249969590707 -0.2182403785362693 0.3349224393120619 0.0959653970537315
P 0.3761333199779605 5.821710949593904 8.207973579008154 0.571129686739397 -0.20627652130617377 -0.41901088242254936
P 8.543061602780469 1.6823583758085174 7.752993933927837 0.7208360249600102 1.126481284708931 1.5208548281987744
P 1.7747532190789348 3.2882388960958573 10.702985029802072 0.7868457561919159 1.0640451297608964 -3.1067791352033716
P 4.330719828323054 6.622166451661423 3.463582867931849 -0.25117261048791584 -1.3459156835533013 1.2016523707251305
P 7.129147949582993 4.222616953192798 10.294199172341497 -0.8194311463271049 0.6417892580384882 0.9167725977927567
P 6.401618052916815 7.859993885363595 10.193328896496155 1.8677830337224604 1.907517633307921 -0.21455521637519825
P 2.613638434719105 8.586124686074646 5.67124908166637 0.03355906690236801 0.7381022682396257 0.473321580049972
P 7.149425755893669 4.205982247388655 1.260429192904547 0.5799007480638078 0.1897795520924151 0.5451741432158999
Ni 3.0641564173087534 1.6835848560289213 0.32256884048552653 -0.7189465212467812 0.8754858232288277 0.6421188734637651
Ni 1.8213685524929477 1.3723223461677834 6.792468227035754 -0.5165243406896911 -0.8550789774377016 0.39589023724468597
Ni 7.11648340567749 0.7139704764517135 9.16472263532526 -1.2486757906625203 -0.43549988121650796 -0.41903427946131705
Ni 2.8769773655977993 1.8642681050910708 9.011888663801079 -0.07747967954471818 -0.9168967820754468 1.07273365867383
Ni 6.555564033174163 2.212279596370973 2.5790480584882505 2.7531087258598457 1.7664499445989128 -1.005257627309043
Ni 4.38413985570064 7.095206245113153 10.398806124591667 -0.6935345089315798 0.13192818830158567 0.10630251731368144
Ni 7.690467063787786 6.399137837359999 11.449936922136244 -2.0191014536252 -0.21325963749222626 -1.0276853601849398
Ni 7.7012782598046785 3.9131078557949044 8.306582588728618 0.4338471761044334 0.07679782298634515 -1.6011856040390422
Ni 3.2205644430455784 8.764945502209516 12.266909933009067 0.7489870334729295 -1.0938483291652583 0.8278756775500322
Ni 0.31012506301969656 4.927034511483367 10.390667746951388 -0.26380032655425534 -0.29837086544027325 -0.6101523478594976
Ni 8.97840757079179 2.5691217452377826 5.813671598875124 -0.5355073095500971 0.22121591622482545 -0.3370993923587227
Ni 3.7282999991767305 3.0883317052087125 11.611347170164583 0.014018425766279081 -1.3969747070126457 -1.133435090318945
Ni 1.2736224860606238 3.650132326462997 12.780315461773952 -0.22401816156031099 -0.10536123644633466 -0.002654149793395429
Ni 3.3757187334459897 8.395756785790642 8.065670075805972 0.20045014443238382 0.8012675880442007 -0.9573800869014737
Ni 6.138687948778256 7.943131074229632 3.290417488368841 -0.5202259579109944 2.8218739083497018 0.34900977064306343
Ni 3.310106584173723 8.75819531847796 3.420274488593592 2.2418888281022036 -1.2542543131915624 1.6899714526251994
Ni 3.387901770302001 4.2321199036412604 9.042325360352166 -0.6016044582894865 0.23917867135083326 0.8738104924089338
Ni 5.0836696631869325 4.881373107129669 11.199064481320056 1.0595647253920397 -0.07268585770050062 -0.8740056391388754
Ni 8.368565265052355 0.1370768804555272 2.0900285905204603 -0.49296583664346066 -0.044662375904381144 0.19951323444041122
Ni 5.172203365022746 0.7682735695879908 1.4335627748322113 -1.1318145239963862 -1.1144050702706871 -0.7935110840272334
Ni 5.961148123095809 5.783226725789234 -0.1090159215165559 0.785874393417582 0.4467862527636047 0.662871275519768
Ni 8.128983710294817 -0.08592538723375424 11.427505053156992 -0.5788813056603579 0.8508297152430443 -0.31419883361146533
Ni 0.33754461822859 4.944405105419753 5.783248529882042 0.7026953494952415 0.9331685226522767 -0.15032674541343144
Ni 7.360671075040546 6.424412414938987 2.1012649663470926 0.9316765114877826 -0.9497670504409061 0.00014295333576749573
P -0.14763187838193537 1.7884897975474572 3.4206070010089014 -0.7127043969918113 1.184472259401418 0.3846925687566536
P 2.213824052944815 3.480460144268472 1.560440790877181 -0.37248934182224236 -0.3411252256886641 0.13870484490378693
P 4.974549263725676 1.0624407621844338 8.066547690541462 -0.16993063568728797 -0.5463262545424721 0.8448390448772483
P 9.021198102925876 1.831044118676133 12.33439178323955 -0.8272210746851688 -0.17727859141192695 -0.0031022930744075603
P 6.767454390066587 8.285509841534347 0.9554217321674686 -0.8206452212398639 0.05539570316148524 0.48790924805615976
P 2.053636651121413 3.439822766299094 6.119446745379788 0.17379988883470715 0.6152192208594437 -0.400063394785769
P 7.377950818590235 4.270803998296662 5.8481638566883465 -1.3688553230686102 0.06476403175026266 -0.08454969901762213
P 2.5926519953921963 8.696280779944244 10.158291536362754 -0.6203876524342606 -1.0212671153634219 -0.9015305840320215
