# total energy = -340888.3895451442 ev
CRYSTAL
PRIMVEC
9.09615383327569 0.00000000000000 0.00000000000000
0.00000000000000 9.09615383327569 0.00000000000000
0.00000000000000 0.00000000000000 13.31314058832350
PRIMCOORD
 96 1
Ni 6.46801134718605 2.292121663455152 11.0941997692068 1.2307418318919192 -0.4707710457139763 1.0147424268710266
Ni 4.816631870245511 0.7304975768585081 5.987705306343807 -0.5719041030115763 -1.0532480391453927 -0.8335452171309837
Ni 2.7482028268662724 1.6652602080008774 4.766596655734631 -0.15901218900257133 0.34332429022251193 0.4470474768447914
Ni 3.4759315344359423 4.028077180630964 4.304537499890448 0.1592664711052225 1.458720777872191 0.8097612273375087
Ni 3.4765864575266003 2.699010825834614 2.4860562155992842 -0.02799288566850018 0.36411834414972777 -1.340520223569343
Ni 5.266227475828308 4.887572775579443 2.461573007393513 -0.5638904886784805 -0.8514161838741338 0.009043084038874749
Ni 5.6284090411163135 3.142712123601487 -0.07671969199358616 -0.4262770770666594 -0.3108054916592002 0.2676371838018423
Ni 5.905086758457279 8.185483479358842 12.0647939703314 0.06804938736975377 0.156286305430976 0.9385117892420611
Ni 1.990402234050548 6.730371718072905 0.2928852446039484 1.7241516980513338 -0.11569655693407173 1.2955140911722978
Ni 0.6172158937135259 0.27136374415259795 0.19721280605903777 0.15413660607782484 1.113275070431302 0.8842430005961674
Ni 8.113687535545441 0.10710903301552893 6.797902475258397 0.9928448554669868 -0.8856437375984361 -0.4308317863168774
Ni 8.80735114624685 2.384465819237954 1.2889514058781333 -0.9078081895106171 0.03154769289929406 1.2238870137536149
Ni 7.005530377689706 0.960717597071314 4.954352190441484 -0.6487867724022439 -0.6174658508017753 -2.134736304083401
Ni 1.027547040780558 7.686213776580431 2.566067805738831 -0.8066836168534494 0.1405472974291644 0.2205661984559685
Ni 7.630508929258339 4.103029489895177 3.3965148327704093 0.6823049587643475 -0.4776914269828934 0.49393899919000733
Ni 7.994718936896577 4.4666482475210145 12.632932474554133 0.12167925688006788 -0.4753746059242587 -1.3992673597015644
Ni 8.446815984839526 7.710500507859005 8.960582228306576 0.6460583177274875 -1.1000174340904476 -1.2170324527256264
Ni 7.035329378314653 0.8406929349387636 0.32186286251936136 0.1181532460046804 0.9226694228931659 -1.2359274898579167
Ni 2.4004750503429317 6.73892210286761 9.291760462175144 -1.882417495806184 -0.3580893643468284 -0.6960269363361303
Ni 0.02681364287002991 4.939921142061912 1.4077444487540849 -0.16486633379050317 0.3421870912942752 -0.5247541847986511
Ni 6.833040008687611 2.4644937824547677 7.021456833792947 -0.8595277572376745 0.07192995337108259 0.18966770910489916
Ni 3.7066281931202827 4.711407560346432 0.49951438932200476 -0.1341280241663819 -0.7957170905396166 -0.37769042640720757
Ni 6.295320862795142 5.832090122311004 4.68971323296838 0.027869729827074582 -0.690937694738681 -0.2991877049146138
Ni 5.536019404563326 3.1463778736783654 9.136222595451656 0.4625391447224873 0.3987788716463906 -0.28794144257683313
P 0.7276714017992374 5.893671085140946 12.245307147194058 -2.3020305305891062 -1.9845334858423433 -0.23258302041118653
P 4.396726111439218 6.29559374741625 12.440770762831797 -0.20490946575531804 1.1649840687698194 0.8059133143463281
P 2.4370961664955675 8.594737641787905 1.328915358639337 2.238630983286538 0.6566013833506563 -1.110356097012294
P 6.662814582040708 7.895589050202233 5.438511362133766 0.07436247407197516 1.0725284846415593 0.654303331345099
P 4.875329352245751 1.1960714866225568 12.453418055404729 0.24366216104348357 -0.3845642707089055 -0.2013672569300145
P 4.355766129810972 6.342720921481527 7.707349600100616 -0.22438300109889742 0.923377504703784 1.3084601098100046
P 4.846794717031935 1.6204161685988663 3.8042835932452412 -0.837030861686739 -2.134933250585555 -0.2470310775157165
P 0.2902746483953526 5.852429122737555 3.371978866871224 -0.3119583743167208 -1.117961677273694 0.6844140346875502
Ni 0.6618816484964131 0.23572319340514183 4.598212290664801 1.0143991845989948 0.31855633924921267 0.8384305702477433
Ni 1.8631015583038661 6.739003968253942 4.860508078857994 1.9433068750923885 0.1360093003494948 -1.191295967191471
Ni 6.043330107510374 5.836956564720756 8.884697563253578 1.068364840182173 0.27530447053911294 2.3325790927999246
Ni 9.024076112330482 2.5672803230719525 10.23757946854939 -0.09525782946374563 -0.32704020835050773 -0.9673454256443016
Ni 2.9791086970934617 5.320358688502013 6.500487345944062 -0.79214454269701 -0.25271013017836474 0.02778462631243602
Ni 0.7493893791777851 0.36146024027287726 9.226579241577392 0.8221973962183324 0.4758962827556836 -0.15928215483450633
Ni 1.5339390321698774 1.14380498552642 11.483382358137995 1.4074349831140214 0.3725384498926229 -1.3527902991859477
Ni 4.347224841170305 7.007868089277195 1.448509772685941 -0.48790410584983707 0.8812337814561984 -0.12696544497967166
Ni 6.161416379217657 7.9758717057320805 7.732112060235321 -2.238012890086565 1.542886354077517 0.36063655624871443
Ni 5.669341734282449 3.0628478911573382 5.046958315460549 -0.27995533904756303 0.9682005745557455 -0.8803264391505806
Ni 0.9475554621798921 7.748404181730846 6.90125297742587 0.3630994159669102 -0.16740581238290525 0.51623020648804
Ni 5.588813482593605 4.641731020423632 6.9620134671616825 0.223222405131893 0.6752305684160694 -0.5491873781403509
Ni 1.1329441776063387 7.836127491262894 11.69998725498834 -0.08570206745451048 0.6417805162877399 -2.011601802814045
Ni 5.041716201889073 0.43533556489911884 10.063416316819906 -0.7262150298837364 -0.14775564225214555 0.2741711282656182
Ni 8.703254759448349 7.381510808651718 4.695051765772647 -2.2127206911786796 -0.7063805116563125 0.2626654416188638
Ni 7.411291616968591 6.428579519436006 6.8577988303607 1.8836899347607043 -0.6598849391979346 -1.3652151552128617
Ni 2.2966788366276485 5.411129209636428 2.390228232820342 0.5119243800238346 0.1393260234275536 0.974065775087271
Ni 2.6801908831322283 5.181669627901109 11.462826869245363 0.20538743383300112 0.2747550257935461 0.028324300865989933
Ni 0.9608085586116831 3.6273461145344963 3.7519761594559387 0.47354063803931357 -0.019263733325618437 -0.19636234751625536
Ni 1.6280296495277677 1.0649049454101844 2.506291519869814 -0.4202992622166697 1.293474692144766 0.021276392880273033
Ni 1.5271987820285202 3.861581177139198 8.124610197312974 -0.3093307068858866 -0.29052334437139643 -0.5835476007877757
Ni 4.03189756532647 3.0787661607219468 6.762663064903968 -1.6806635449607121 -1.474610452519254 0.35456181080954424
Ni 4.47466195922754 7.130084014917239 5.566743484053829 -0.5497463359676146 1.2012191398424539 1.1014405396902192
Ni 8.592982084058779 7.452961098611716 0.2782941039133266 -0.6053456704994736 -0.9786407960524629 0.08133016363905993
P 0.4989931796956893 5.999686760441237 8.194411354546078 0.764901904930973 0.10290583292730664 -0.6803979715496218
P 8.687136374494928 1.929157828919972 7.902600365733891 2.3671966828737943 0.20142459253051115 0.6590449597951423
P 2.099492409415318 3.3076163001367926 10.242012024411581 0.4289407399417516 -0.1319073623659793 0.40182125801714025
P 4.183830626205128 6.18358370660563 3.683320208016081 -1.423364252749768 0.4464712926263472 -0.19687991058262222
P 7.487999483961929 4.152185106310688 10.132711727888557 -1.745557931641252 0.78799375375343 0.8789557840552991
P 6.719874756314301 7.94342572428239 10.053351422378055 -2.4716276941963757 -0.13113063210095482 -0.4214524019845064
P 2.7245255379081716 8.620916373106157 5.773269842231267 -0.8803238680474195 0.8969889874079261 0.6932311187585481
P 6.882040990484494 4.293703070817073 1.1778291497015159 1.5593650684588305 0.1707122510483189 0.9666134325742837
Ni 2.910687426427757 1.6594750540333967 0.2742799711368342 -0.43553613377108213 -0.09456928803715327 -0.27616656142909213
Ni 1.6733012081695138 1.188512582617877 7.106061981721139 -0.195099935864064 0.5516798055449015 -1.0460841744071014
Ni 7.119104956994677 0.831740500135628 8.773865474390739 -0.6821725469515413 0.037539134596038574 2.269932364502981
Ni 3.2243046253126506 1.8915725204394227 8.9263415756654 -0.8171166392613154 -0.29311835879208226 0.9907429786326357
Ni 6.039491530506795 2.599135054509243 2.3238090256581634 1.2362344795753741 -0.23612548634680625 0.03794639733678626
Ni 4.437949881534536 7.030108185897462 10.319414837573339 0.6611584065937194 0.13580824008228223 0.4199490779661026
Ni 7.859277203286852 6.363423768069556 11.034157875639902 -0.4098945219435779 -0.26551962323820727 0.7265433597574326
Ni 7.964974513195852 4.5842797115264515 8.033388506938328 0.7978570197007548 -1.9361921184244786 0.49401201851978793
Ni 3.3737999169094155 8.580520353028199 12.187328261362737 0.4405333298753574 -0.19597488226984958 0.30242163847087916
Ni 0.5749660774428443 4.909221622187311 10.209661552579279 -0.4489318383516978 0.5250102666735152 -0.230600442763519
Ni 8.773222376300328 2.283198336344934 5.669681020828025 1.872420275384156 1.7963397901798095 0.000895515231075877
Ni 3.860898965586429 2.9513381388187483 11.516785254992369 -0.062170817101789705 -0.17920846144478814 -0.6268244091985398
Ni 1.0197516367709183 3.059345871853125 12.796271202979684 1.1961057298752884 1.6434457982598343 -2.047370732883538
Ni 3.6005670370498066 -0.6136620263313015 8.04833985532881 0.3387032465107328 0.5396272452557416 -1.2856855351176504
Ni 5.669887503524664 7.952421820624903 3.504404315802306 0.09261782073773726 0.9976278786779269 -0.681194242198672
Ni 3.295800396042835 8.64659481595238 3.666345874967787 0.26587212148161954 -0.36214733646628594 -0.7959217503512551
Ni 3.756111271081122 4.676614771155217 9.135836918520493 -0.06774368320387687 -0.07186670423331494 -0.03062440975407629
Ni 5.559796751215833 4.822316966518586 11.468232713589506 0.6607346887927394 -0.36002720479948963 -1.069914701167796
Ni 8.05960180364192 -0.00340832891763356 2.5605027786990444 0.19026831880337552 -0.0899184195287032 0.04504701293730951
Ni 4.8298849666773025 0.8672500662649524 1.4133631431026896 -0.26207588766398093 -1.842360736994614 0.30743888917981244
Ni 6.517594482841296 6.2336307461167575 13.61175505662053 -1.5235763408949954 -0.2761714465250986 -1.817632638120315
Ni 8.236722115048808 9.059733036155205 11.072272580285402 0.03942760986800307 0.3446355528347677 0.7616196346352754
Ni 0.40517817580511745 5.21402464781043 5.956951209544984 -0.5597535836919715 -0.9032822766158056 0.2638826018554165
Ni 7.260741171503543 6.395651441822359 2.489330831052575 1.4853522644167902 0.37706333434616995 0.5611568917974012
P 8.75443881821409 1.8256526921338705 3.526064987410421 -0.7994261639600877 0.16229137397447535 -0.6136158809280657
P 1.6913388816247241 3.4774687844681815 1.3889336022057364 1.654384556659525 -0.17473242795130553 1.1258107410044675
P 5.070050721714075 1.3663242017315704 7.973759578764708 0.5730932382236711 -0.27999287715371785 0.3978044235482633
P 8.58016560302076 1.784237902803778 12.192574013395827 -1.6994871054251184 -0.6849341688570785 1.2286034453926775
P 6.48495748215683 8.178861479219965 1.3140113102498452 -0.512169406155105 -0.8412513275259899 0.45402442238325674
P 1.9037067899246727 3.4628148803147045 5.857023590141603 0.4338111806601755 -0.7651986102357854 0.07743237124655052
P 7.378918404751195 4.211210049856255 5.723026325792941 0.9503069821047762 0.5620490645943675 0.26642593710256046
P 2.7354682112145854 8.81909428110851 10.014077867708254 -0.3573702267926168 0.32780922530604834 1.020580116598726
