# total energy = -340864.4875493751 ev
CRYSTAL
PRIMVEC
9.31568799876817 0.00000000000000 0.00000000000000

0.00000000000000 9.31568799876817 0.00000000000000

0.00000000000000 0.00000000000000 13.63445103037307

PRIMCOORD
 96 1
Ni 7.877774264342469 3.7626529472607277 12.650425716584207 -0.4406012069988154 0.09181563655141606 1.2425079712889118
Ni 2.5642176377046417 6.25714266055184 11.101796928208016 -0.9511461901766198 1.7461030055114444 -2.599933712364342
Ni 0.20074189680724913 6.012848059373431 12.544117880240872 -0.5411192564202358 -1.4230485212815622 -0.9606083640307843
Ni 6.981446715471855 1.379476389456223 6.804927470509638 -2.569745875927052 -0.59397342410679 -1.003443971139072
Ni 2.5737010080524003 6.378842808118753 4.414466976285769 2.01921766748809 -1.1741006863591068 1.7210316643651133
Ni 1.2345801788579553 0.2555414312578284 1.3612856455681404 -1.27482776646754 -0.25108853541454174 1.7016193212767725
Ni 2.916564903582119 1.2943682642134706 2.81559588801118 -0.019005337457909204 -0.5718035728779701 0.005125237041707302
Ni 1.1642560504147046 2.093020824777357 9.56670756071928 -1.1152273090616664 0.9278386257989312 -0.06223483757050573
Ni 8.938039290010584 7.319140404181333 4.615329977036556 2.0464394793185208 -1.3245462167385897 1.998455238129758
Ni 8.07186662308073 2.406428514963645 4.613121227420196 -1.2176364048582127 0.767235438160156 -0.283234524019467
Ni 3.2769422924849088 5.161496651994937 1.5322806875674695 2.4804638044307667 1.1897643610382929 0.801622143170142
Ni 7.7760003733314065 6.04304020406605 8.780545474578059 0.12556676485993215 0.44894186565402683 -0.07881433919574167
Ni 0.9069222807925256 2.154178316263639 5.441713477532866 1.454277654499173 -0.25368843493123405 -0.2619385907551683
Ni 4.7266589691927035 5.0695880745381725 3.6311955481199023 0.04337373899994466 1.3701082216391047 0.1671042219820864
Ni 5.532326242793782 8.665005791462002 12.703095684766126 -2.363448528685271 0.032335221797595924 1.335819218549248
Ni 3.6294106623059235 2.2038588801777808 9.008363418453834 -0.7450843559844135 1.1986716908302517 2.330348917917825
Ni 1.4045914842082436 4.329363508886999 0.9217062775920273 -2.8498431398691175 -0.9374686926895274 0.03263706930873089
Ni 2.7583006807549384 4.922614465523843 12.740985382423727 0.5998522514850702 -0.8457533291614014 2.0916718687937594
Ni 2.066983476916861 1.2953743585136257 11.590197022099156 -2.455315330189597 -0.38650108272030215 -0.5016852187943295
Ni 8.529723370842996 6.004221732318397 1.1801271879996518 -0.07957178618705651 1.1941318939783692 -0.4396995211201524
Ni 1.9536674485179069 1.0726269435968723 7.682972050181322 0.00483033150910781 -0.6117160928021916 -1.3575362985113653
Ni 8.017695897567748 2.074659603799526 8.956852321854688 0.6220634974747868 0.026499846062741455 -0.6818259622453999
Ni 8.558471583901131 4.15369758094232 10.153671359548952 1.9395402089611047 -0.2737551237741221 0.3018660230777253
Ni 3.138175804567216 6.016248285480437 8.19367762733442 0.6735236130272917 0.6687745283780805 -0.3084930414759397
P 0.6976816818553548 0.3419286004580931 12.952687186121093 -0.24085657327388843 2.654301745592261 0.9406925989434638
P 4.087807719970123 8.64039374386006 3.7061849730957244 -0.6626810138858329 0.11662343962371527 -1.7482372782456277
P 6.3531594564009035 1.1443111624829254 12.122936064425652 0.6721038498616295 1.205794417917962 -1.1591119262597587
P 3.5008262213333188 8.259149213917015 7.084365504533743 -0.18990707880921487 -0.3100979240692143 0.045178139198535104
P 5.732352694765366 6.120919355448428 9.266913816924164 -1.3566927195641474 0.42998332227365305 -0.49541481240458546
P 7.027792263094741 0.2638519564908691 4.851096997452353 1.2626404803727287 -0.5011198332091628 -0.6767632030105118
P 3.7897150207973076 2.8914777558939915 0.8212654615286697 -0.5777299656647341 0.37050187907856835 -0.3157867469238755
P 1.277655920005338 5.802527772201186 2.973141871296306 -1.2182879223992824 -1.0023587084946932 -1.7198566702204057
Ni 2.5382082369080385 4.393362285202422 6.130321679310897 1.1695675743754437 0.025336936102891845 0.05412660664107452
Ni 5.3943515883530635 3.561974397131636 5.419802979440599 0.2058582028218326 -0.21469277039432702 0.2559960000184882
Ni 0.7166894115779154 8.980742403639391 6.044329495280322 2.1777212922853595 0.42529054478367406 -1.26638606345809
Ni 4.612336846493594 4.146925075792201 7.677804638067469 0.36725329023428366 -0.3435124949739181 0.9412659549484305
Ni 6.568631319017462 8.05248999211478 1.1048005351195183 -0.37432202415560695 -0.6288972325671685 0.41675705339136615
Ni 3.4923768923496086 8.754911496006422 11.280626463785403 0.9091901574598082 -0.7981359843937544 1.2111860212471786
Ni 4.482429577830045 0.9230589154844581 7.469074538830747 0.4432206468995335 -1.610246942910362 -2.437299096117835
Ni 4.713756741362009 2.7847386031979036 2.835147653910861 -0.11350314882717871 0.4724083242070832 -0.7706840588303888
Ni 5.165502397819628 1.2059903324952135 4.600768625179403 -0.7678753857370001 -0.402594645848055 0.18906427119294536
Ni 8.46961855209669 4.4057148874432155 2.67829662094788 1.9621821147303364 -1.2565631638303971 1.2387680446305052
Ni 7.384257063052484 0.8763789346636494 0.4091953201114281 -0.22406675541005924 0.6519291746859674 -1.1705631055194936
Ni 1.5263941043427656 8.01373673018288 8.400280955008869 -0.13123450466867073 -0.7640572975424906 -0.498330957610116
Ni 3.8941159358143316 8.392559181255178 1.5056387515580836 -0.5893814338607334 -1.150558637373109 0.6678242486496692
Ni 4.276962764087252 7.800668315061136 9.242235627937673 0.31783565903310423 0.31880805024870257 -0.1340064109868531
Ni 4.97556483591349 1.0551413972876946 1.118658552535359 0.3913923493743324 0.8111218551304611 -1.0104281157663888
Ni 7.011210338518111 3.2093662919911554 1.4765561053020253 -0.9096863803699365 -1.4951790206992248 -0.937391816705005
Ni 4.858625004896385 6.481557583614221 11.787651412623768 2.1993095599790964 -1.2101879189999674 -2.559930432498527
Ni 5.99975951778345 0.8703386425875328 9.663458432779937 -0.5821049548039782 -1.6795042345452882 2.552149503001527
Ni 2.676909515009981 3.4249592585512505 10.964716579811878 -2.191320628236349 0.3767098076614932 -1.076688786666836
Ni 5.179624980773658 3.8565085035020514 12.981455893692752 0.5168269595317744 -0.5976660424670287 0.48516845208622894
Ni 2.4594813579208994 3.9157749103315598 3.631467566208463 -0.14629988364222546 -0.6886414425053367 0.1441607258120356
Ni 2.940524853026554 0.284520673377482 5.115304813223463 -0.5885910767489541 1.0552550422730924 3.063084008308267
Ni 6.637371780506764 2.8772899631242113 10.781837514676365 -1.4239358089825218 -0.25356065110411813 0.24012663708639936
Ni 7.226738095262455 7.722388589096288 3.4124305898079297 -2.2489544766997334 2.456854906762575 -1.3863323968074512
P 0.6013993888993051 3.82449048396841 12.254222054907931 1.5805956957028326 -0.2852870356731216 0.13517060649828336
P 6.509458069067597 3.5535809622757126 3.5635273223153012 1.3128268714191325 0.5745464257304298 -0.15819149287348885
P 0.08929366384515727 6.728395367606911 10.272958743933085 -0.5761793333481625 -2.0941002757295935 -1.3819666636395875
P 2.236659417500431 0.051792430375671175 9.777169446348582 -0.30176677849569966 1.7522908794897112 -0.42881398455590014
P 4.525654369984858 4.283865688868873 11.05583518692926 0.9987601925101572 0.751131333509442 -0.40628649287734553
P 5.148044798574344 6.830141311554081 2.258642577958821 0.6817223467880001 -1.3222502216155614 0.7696713012951583
P 0.9747376944669637 2.3452803391653276 3.085503973247705 -1.209796854209136 -0.1930800772205578 -0.873980956548527
P 4.604139041084922 5.5476039710553975 6.078579553650233 -1.3118243982965472 -1.0274130803601595 -1.0284885728125255
Ni 6.399020588249642 8.629894963524182 8.164308989457854 -0.17588119684376805 -1.4692286193820503 -0.5229371861945703
Ni 4.93088679643623 7.396814610428494 5.227420981012601 -0.740388493170641 1.6349760702259264 -1.1429743972679478
Ni 1.736174081613075 8.271818549548598 3.685555382098562 -0.6265639564483015 0.8069880354677457 -2.016285067222327
Ni 9.167978416035854 2.349994077275314 0.6499173549554901 1.0623050071413382 0.06447683952714703 -0.0426376321648685
Ni 1.3426794219968456 6.485768274574129 6.546513081083588 -0.6825157892235729 1.3056876892711902 -1.7287195199276741
Ni 0.5356669630537068 3.5792270512417037 7.2103070848308475 0.09393396844599951 -0.36741706950565756 1.595190305687556
Ni 1.564662950500518 7.049926337698155 0.5775773116367431 1.0019195640747454 -0.01899171061115439 0.5867661077250733
Ni 7.115639200599028 5.665344951237441 4.095898394967204 -0.3379452852987857 -1.3804479130022163 1.8138549162454376
Ni 7.226877830581921 8.395856934794576 11.179949960816547 -0.6885193151051756 0.3680732150324177 0.6472615940069691
Ni 8.624249656617755 8.779337229849075 9.666935047528252 1.6372196148444642 0.6670282351109351 -2.3561185706827614
Ni 8.663990381473882 8.157198324834628 13.6304155959255 -0.13438050649682018 -0.31324289745609923 0.18955818011022837
Ni -0.11617687617282099 0.4943351186932597 3.8849735196460697 -0.3714434170562313 -0.5540493342183426 -0.891552389773387
Ni 6.745666653092907 5.181106175159998 11.124771277865817 -0.5081127195872281 1.506349692604064 0.05753434677104284
Ni 4.130557412038752 1.8538964304191896 12.130421219705047 2.6141729958921753 0.2883795585555162 -0.16070963130965224
Ni 0.7981476502762163 5.627001579575973 8.483614441694403 -0.5495573598852599 -0.7699034719106224 1.9334675204044638
Ni 0.39913717181626607 4.7814538457993 5.0260400280109945 -0.717384833186616 0.22273903773757123 -0.5834077327758017
Ni 6.363965654439608 6.5886600481409205 6.6926203311172285 1.453096489706878 -0.2684925898236021 1.6277944648758222
Ni 8.52319307357995 8.067227410474459 7.311392546501342 -1.0281887821839197 -1.2350036924920667 0.4585302806734103
Ni 6.6691475921533305 0.9165090552766889 2.6451383612073966 0.9398726741453298 0.04446131563716858 1.261021456712067
Ni 2.9960370376064103 0.4008261060442117 13.544368449335936 -0.09948112351647383 -0.2643101763111384 -0.5314115422141686
Ni 8.653146920683323 1.5288161832135094 11.329819817219008 0.19182075089215997 -0.09076559802034691 0.9242707059420147
Ni 0.7656154047669408 8.11988899453721 11.572117134897848 1.5276818784229367 1.0197699619926053 -0.1244691609203792
Ni 7.541962344601801 3.6859568882498275 6.771073328878213 -0.4098834661999844 1.3188890184528124 0.3983862641936623
Ni 5.937512090805333 5.180407498562667 0.9628592607435581 0.7322892611022743 1.9815324942324903 0.6212433155663365
P 2.4315156626517727 4.009118103734842 8.416996093923391 -0.8268048130833566 -1.103435458633061 0.6442220358496968
P 3.477667421053822 2.4431695882952362 5.568282935198772 -0.5185310867070747 -0.7421342722171542 -0.1684144561530777
P 6.885206343111646 6.933331187135733 12.697668364958067 0.6994814705436341 -1.406718673773287 1.152724534676176
P 3.6326059432777122 7.118089226533665 13.11422866797415 -3.904014719270044 1.8397981184737604 2.8637366100217583
P 8.329585130615838 5.845743248668034 6.568246581104532 1.7559876116150082 -0.5032700467829461 -0.7290319305072412
P 8.929422278643514 1.1114174682806313 7.156696232164526 2.747500892754765 0.460417213283478 0.7618620896633848
P 5.752670210215721 2.438614216880645 8.439547511347609 1.31453716924202 1.9839740137944475 -1.0724744914751723
P 9.06173299480188 8.19480575714691 2.299913870347499 -0.07080638128960064 -0.6600880563476761 -0.3660921800466469
