# total energy = -340893.6986393364 ev
CRYSTAL
PRIMVEC
9.02911702577633 0.00000000000000 0.00000000000000
0.00000000000000 9.02911702577633 0.00000000000000
0.00000000000000 0.00000000000000 13.21502544436140
PRIMCOORD
 96 1
Ni 6.32408370475929 1.7701764087969452 11.311704626680877 -0.25987373780633954 0.28319698591331227 -0.010616342063265588
Ni 4.552480695506395 -0.04511398214021758 5.736259307266843 -0.45613221275487903 1.2233524814063834 1.334449849005547
Ni 2.785058167336442 1.691812704004601 4.605171912473405 -0.39921158830843506 -0.4404076029307705 2.354238065830597
Ni 3.2863908490843534 4.503443562112315 4.782108291301812 -0.12468410514466269 -0.3327740255104914 0.23580075601753583
Ni 4.68077541625699 4.683258423379689 2.274781242476732 1.9353421117193572 -0.07820318797430403 0.350356514478945
Ni 7.019795213188799 6.164096784006261 2.712502893387849 0.5823422676257649 -0.5384689632815823 0.03988372356881518
Ni 5.26838130912264 4.7984699538728695 11.388801546384805 -0.6875152993206934 -0.42442356879768844 0.4423950656744446
Ni 5.542685877804679 7.97547305280637 12.646487993791954 -0.10470946179494871 0.40052053692784567 -0.41995679127558644
Ni 1.9995340339997485 6.431665631548181 0.29795904890038066 -0.8827350485920732 0.6301771277208567 -0.03854057927735943
Ni 2.647851708294563 1.586479027301353 0.31897341536353335 1.092428565999596 -0.06932285476553868 0.6361708834104463
Ni 0.6774112944793859 9.048709993287671 4.697915388697054 -0.44869452552991107 0.32717596259742365 0.8013015266059297
Ni 8.66589349878533 2.299165275333306 1.2195384288857019 0.6273206321086681 0.9801186661495701 0.9519308908614443
Ni 6.860395185028407 0.6606026906262429 4.917443014429017 0.6677036639114049 0.10134568752903837 -0.12491061933317196
Ni 1.1618486928527803 7.405437821252611 2.367538262375595 -1.7278823687383595 0.4233059102534774 0.7266176646387937
Ni 7.7685347246423255 3.8974634165387005 3.6658611528969782 -0.0427301918786748 -0.20499096972553085 0.20402346360593895
Ni 7.712960510677942 3.5130036227769748 12.445580212745185 0.3950098915222617 1.4478838351576868 0.30342411159346455
Ni 7.786674220313235 8.542501588462462 7.163719335137178 0.3153488880555085 0.4234506633614578 -1.3669578489355814
Ni 6.954930038027122 0.7456208545074174 0.7274326016057354 -0.4564348315969623 -0.9361247770671233 -1.3032793369400135
Ni 1.8883856060709825 6.190073553068084 9.252896246648085 -0.5590802117740307 0.8136983576083857 -0.7840892764927012
Ni 8.842846130023993 5.1074102146373415 1.5304452312913506 1.1396810712286565 -0.6552338135791683 -0.6309780263555972
Ni 6.3523087239067575 1.962270868925661 6.85054983605899 0.7348032857733796 0.13509064518996736 0.12278817367353045
Ni 3.461357074624859 4.168725172855834 0.32118825771697984 -1.192452192283101 0.47639584809992147 -0.3552518948980334
Ni 6.024425376075303 5.576815939345763 4.743136817327309 -0.6324798077121043 0.3070213420264196 0.14742756948876545
Ni 5.328226295338063 2.902093579425204 9.042922329412582 1.0091937291386555 -0.10654085857673262 0.1355670706057536
P 0.07289206000559922 5.571940216268465 12.541970549248314 1.2577736391987306 -0.17831705997877034 -0.2960640716839676
P 4.032159781107452 6.17027269990417 12.66751319519528 -0.10267031987773287 -0.027917552345874497 -0.39885009120395826
P 2.4842350825839894 8.656954673143618 1.3370568987237887 0.4538279901017345 0.19015673292617574 -0.12008465869943835
P 6.256338241335283 7.585270740753605 5.947091893510958 0.1166244680649798 0.0646771284634112 -1.1029019547270942
P 4.811778872050529 1.0988344866371138 12.744728396329416 -0.4299241869009434 0.03898717989647479 -0.34453682247337436
P 3.930546100529846 5.948535649288846 8.061403157485335 -0.6654606335134992 0.4494486300871163 1.1270615826924333
P 4.789531128231157 1.1624265563286083 3.9012204320432624 0.2835651678860084 -0.31378257200965315 -0.6370332314107416
P 0.27787016691023353 5.6178442461295415 3.6766708115416833 -0.07225776902414652 -0.02238968054910983 -0.6959130364660854
Ni 1.397246797201347 1.0882884782032551 2.6213720174264323 -0.0554520103207174 0.5084287081657501 -0.7342325008715741
Ni 1.6369608193850027 6.887816612779801 4.914483269938761 1.0073060251976393 -1.6067240173587682 -0.12614449174027306
Ni 5.865368454353684 5.497504177288389 9.051486446706686 0.32954137750580664 -0.8620528376523734 1.6641503777970372
Ni 8.538655184701483 2.3020455635956356 10.302632201896813 0.7395014625799974 -0.48941180074361523 -0.6124257172747065
Ni 2.202400230482568 5.264309177441416 6.924355642685742 -0.5777690464327856 -0.00682627889321405 -0.028417117690112348
Ni 0.6138607587252165 9.021424002288425 9.219858708240988 -0.05873633749894401 -0.12143783029322312 0.4655421932148692
Ni 1.6579896324350512 1.0794038272624018 11.291842375522656 -0.49126685167448303 0.8154443937652149 -0.24761008994763808
Ni 4.032448712845365 7.0584037166675495 1.6346060257210042 0.5403270995362436 0.08389741014560391 -0.5963591507301471
Ni 5.474218085035887 7.619427889645117 8.150459142403857 -0.634472669772417 0.9553622851404965 -1.0143978990474143
Ni 5.206423509573721 3.0770236884984703 4.7454491741423 0.5792536013981121 0.023616353867359326 -0.17698548565154035
Ni 0.9166720549991892 7.533849920521734 7.262184562683202 -0.38515690998758184 -0.8473571833134116 0.03658988330889182
Ni 4.976731807048955 4.470532431340556 6.8649937142196436 -0.02758742269996539 -0.4315758635717535 -0.004782251879991764
Ni 8.036744639477742 7.11022181803905 9.056019063345211 0.2819803398973918 0.22539498730317958 0.8246563992817864
Ni 4.6066373381316374 0.2978859130542212 10.231099023971089 -0.2574185913976276 -0.7806928492166426 0.5646132257771179
Ni 8.25304616177356 6.97978719660453 5.011745819125719 -0.9647434692450805 1.1136597074642305 -0.008305434541901824
Ni 6.997068926178507 5.88310163976815 7.079539976207634 1.2564636621380554 0.11799178072615163 -0.7297143012862465
Ni 2.221009240227587 5.377525273119629 2.435766783548927 0.3583076510052216 -1.37036224663144 0.6695947102865307
Ni 2.2006756691718943 5.263794517783257 11.48332827317839 0.5359299989098125 -0.6048090812697132 -0.05328148503195985
Ni 1.2908928302985905 3.4529148504076863 3.7900692953794537 -0.9015807205436666 -0.2669614978910564 0.027727290711939346
Ni 3.496895678388273 2.710152614282255 2.698455393455146 0.20787446192091297 0.2884379225972774 -1.1650079800292195
Ni 0.9640839473675036 3.5726680266562014 8.347561150715293 0.4749994819730271 -0.9344175645680295 -0.9609986574906674
Ni 3.7525551208580534 2.4899866299918387 6.83593440467895 -0.15827531083654678 -0.2171322330737551 -0.7316662828062948
Ni 4.062921982078476 6.62692028256033 6.009136372581251 -0.017577860982763274 0.7465586265370949 -0.7134618439831261
Ni 0.6864792364914785 7.350468558114485 11.23594311335312 0.23485536138513105 0.09785181544316697 0.14574401113875543
P -0.08826593719766336 5.430201140588062 8.143666537827835 1.1404210347184744 1.1611778076498518 -0.7056870851337137
P 8.401060473636782 1.4638816792577474 8.036387086452073 0.8833060906041948 0.9868475002329714 -0.44941803395949703
P 1.8842683288057092 3.087190474026317 10.215809117565357 -1.480974961284701 0.5556189926983076 2.202674362686271
P 3.98273439569055 6.186795983666123 3.659253645215559 0.13192895963253407 0.7852737837191057 0.7714782725969102
P 6.890895541611947 3.837555226505609 10.378565268443955 0.0377633347917027 -0.06296888752305284 -0.27902691369602267
P 6.187563458594957 7.569587164854964 10.24714195871876 -1.3857251022407553 0.21919734313289993 -0.6433812851159564
P 2.36610714736124 8.602319487327456 6.053314035308292 0.12235828522496348 0.49821885751228395 -0.8970010715927843
P 6.9159693989927895 4.092519426981034 1.5864501341275614 -1.029108980005344 -0.7590493028049379 0.049500677833288945
Ni 5.500465727602006 3.100607741605695 0.15824339829705578 0.401928730129282 -0.46913299588992113 0.7603327975030518
Ni 1.5536581876976923 1.2990190354274198 7.320753734693399 -0.527867276506336 -0.05544969632787224 -0.8840452827630646
Ni 6.805389805423043 0.4515659957155988 9.0692078942693 -0.34032124173013 0.9050776779533315 0.9131386005845952
Ni 3.230428383097149 1.9574402914324125 9.078894330782868 -1.2861719878357656 -1.3508771413236347 -0.1553887333173711
Ni 6.545667260388846 1.9892408408365647 2.7084587519687346 -0.3376683774883152 0.3902381811652311 -0.13915170263321844
Ni 4.019618337858626 6.734321627013024 10.273558445769224 0.5363128361705279 0.7671855587588271 0.6755612122826107
Ni 7.9807189696728695 7.272393785060054 0.3447849515877383 1.4479740808786483 0.8120970745595367 0.05159432713752405
Ni 7.525886239495481 3.6908591656966196 8.202909281952046 0.26765158197954547 -0.4169025778302949 0.03210485095434471
Ni 3.155071374202471 8.421565597911862 12.348106382224875 0.32696693191041104 -0.4032358789764797 0.8393471685247416
Ni 0.08408726193808312 4.780086672048095 10.336144671848103 -0.4758813703573481 -0.36049745956768886 0.1617172466385602
Ni 8.808327816460089 2.1630693976590343 5.697341105081517 -0.3246017741123442 0.7392281543139527 0.8824288302055642
Ni 3.785863532769444 2.715208919695749 11.347490628244879 0.25269521778002935 -0.35639166492943136 1.1634462919690542
Ni 1.2330342497813254 3.1765516430930103 12.54392625594932 -0.8882354095850122 0.9308689279848227 -0.7635777868029108
Ni 3.148994778589469 8.486963490965318 8.082375087099482 0.09349636668794865 -0.1978834121464721 0.7284773435553519
Ni 5.646701303453696 8.038424055204368 3.7450194199685862 -0.748256325954492 -1.034780062248192 -0.6737820088950008
Ni 2.9911567876371734 8.493446396834761 3.663376339950919 1.1555290940045069 -0.5713502873906353 -0.2256346141178114
Ni 3.4985209194140388 4.347546831274129 9.574431222450562 0.483252980231071 0.5946745639388725 -0.7511804415798224
Ni 7.353240496975097 6.223020800307082 11.344953446421323 0.1264288557499113 -1.4323993663688426 0.3600907110475734
Ni 0.6502300412351327 -0.07647932811413688 0.1287958367335402 0.32946810106570995 -0.5397174909767027 0.6325574550275751
Ni 4.598267346848943 0.5001977217649185 1.7848875488151692 0.018184384218510617 -0.14006752957926846 -0.4781693950605765
Ni 6.20219062782685 5.83693576551959 0.29544082822212453 -1.4340577279078721 -1.774248357597409 0.6547327055730336
Ni 7.5984442221791175 8.679328824598329 11.329320433576816 1.5668824598817983 0.9018447728383306 0.9070682260207992
Ni -0.08391029124861084 4.790370836094469 5.685883155849868 0.7125231342189406 -0.6545198182312792 1.3491588730809474
Ni 8.1054562184004 8.547115467152276 2.9173356315118446 -0.5661160355748895 0.4819455742735571 -0.7329006694340282
P 8.56165234521607 1.6301980108944547 3.612128878761797 -0.6986538324360161 0.06578630236718992 -0.3858228257063549
P 1.6859618363118436 3.3750116305726428 1.505482432047268 0.4531237649458584 -0.38808231116449293 0.05270838613730922
P 4.891650439350112 0.9045549802404237 7.980236814835226 -0.4226001424357045 -0.3673355655354448 0.48352217473205755
P 8.60446841712819 1.438618210423898 12.365642732892889 -0.7087284430631987 0.4708132118058214 -0.42187149179979605
P 6.294730046010597 7.770494042990054 1.5831996520760296 -0.41011872213924205 1.327999722504829 -0.01759380182236325
P 1.7621404948362138 3.290788028970731 6.115173417483983 0.13747740025458904 -0.6804067133003701 -0.48890015121451935
P 6.923680264748368 3.929038238022607 5.964799797398358 -0.014311017306033418 -0.5510046338547477 -0.7587603108096093
P 2.505697293240909 8.407326680702791 10.315886042461933 -0.9286158702845879 -0.8517812805230364 -1.5986461254466402
