# total energy = -340867.6972291106 ev
CRYSTAL
PRIMVEC
9.27145580603843 0.00000000000000 0.00000000000000
0.00000000000000 9.27145580603843 0.00000000000000
0.00000000000000 0.00000000000000 13.56971274524986
PRIMCOORD
 96 1
Ni 4.913546982467885 3.997304651379216 11.266077653012367 1.5911531595037047 -1.1938377597767182 0.1630663044672869
Ni 3.443019948050015 0.8389897813504459 4.662322985014391 -0.5295415788849654 1.0986444650023208 0.2227308102074551
Ni 7.392205744714281 2.884155145640046 11.622852537075177 -0.8346798449560593 0.03631194705715681 0.131600886869154
Ni 4.321935398775988 3.8396713627735175 2.5082393414309916 -2.32187970410455 0.9670142675571279 0.13904345919012828
Ni 2.698763118880868 1.3019256138029638 8.15879009332939 -1.3098665032392278 0.6212170903140913 0.19548585844857302
Ni 7.950152673016971 2.7656659427003434 0.9606192263117197 0.8745540554431778 -1.0866911492951865 -0.9685728702934998
Ni 5.4892394768446415 5.676569237830299 1.6236432698410779 0.6420970190868941 0.5988988864328654 -1.1784821032562542
Ni 4.054138674385506 1.9354256340270646 11.216629271560207 -0.7257936260756016 -1.8120854830498407 -0.3231388164135725
Ni 6.028309721486515 3.8445945057125614 0.16049724124952272 0.9912708261116475 -0.07044257019227868 -0.5512159785346055
Ni 7.893244478365649 7.630491425837388 0.6321046661519236 -1.0246738270521256 -0.8112640371352803 0.6387363301447774
Ni 1.6753520321756092 4.840580626666988 7.197592328186416 1.3066981328135756 -0.6023040554596724 0.8876363425484326
Ni 2.724871537932371 3.5506615479036885 9.764792564545008 -0.042787270368855344 0.6838568766324997 -0.24542079560580313
Ni 0.06994200697468932 7.584848049775403 12.489006756273277 -1.8087145096950785 -0.5558249380615266 -0.3148986878919674
Ni 0.3906073527989022 0.2710000123103319 0.48058219395135493 -0.49072871978282573 0.17311237584937927 1.313395342328093
Ni 4.804115991677798 8.059778364375267 5.210280847022304 -0.742094163007838 -0.47023548492548045 -0.5929712080945206
Ni 3.9147423390022165 2.862163252887857 0.33805952372993875 -0.13280853402401 -1.4005040603221428 -0.5675723084054418
Ni 0.3264192111876229 3.9681830092482606 5.647035943069413 0.45180298925190576 0.47776033254761585 -0.28016591239647237
Ni 3.2189752227731825 6.439702750660262 1.279701007514485 0.7460498052214765 -0.02262982158437393 -0.2359748197015549
Ni 0.17640335052678044 3.859113605227708 11.89196673531055 -0.2573627984590277 1.7835693778880186 -1.0141582722327822
Ni 7.214212339547112 3.773204297368609 5.129025809889006 1.7232556685996256 1.9083028482133781 -2.0965279113344795
Ni 6.841509094713536 0.22902164265852498 13.28557591953841 0.314348214705136 -0.14834519620702838 0.0150257839848709
Ni 8.972478999413626 8.543071531952567 4.770703519881701 0.03943532317748692 -0.33279665121831076 -0.8877854665317872
Ni 8.572582575219945 1.9621366976944576 5.3456385363335635 1.3372140420142455 -1.316696638787184 0.15579779583033168
Ni 1.0796610080069158 1.164513369924299 3.802369515341021 -0.22725080956499571 -0.023454374368198316 -0.9775187666328777
P 1.6022744189071634 0.27774777771717973 5.665734614782151 -0.47090037220298897 -0.8892234845298943 0.5485338037167521
P 0.2534797426080505 2.1113978618670926 12.878172397721857 -0.46953434509339786 -1.0594659950306462 0.94316008664735
P 8.275552951230958 8.975158450090431 11.056195076208962 -1.438922255089025 -0.7129319396215851 -0.9280108897107373
P 7.554864162270944 5.3727158224983045 13.064051175901561 0.2781864200725983 -0.414807385864163 -0.7606025062246707
P 0.21914661526798684 5.614227970180334 4.133089754794976 -0.12338518382758104 0.9206148543569822 -0.009546506037854527
P 6.964309524520764 3.240892943880339 9.415561863927586 -0.15886692167395863 -0.14468831618073147 0.17500419355545344
P 2.8375660811038954 4.650293271335653 0.14391338856577887 -2.391093286985734 -0.4493077336338778 0.5610872149017304
P 7.008126423823818 7.420251897992262 4.966664078912474 -0.009401752929874132 0.36489893106949417 0.41608676679721884
Ni 5.566563416791209 2.0602565126170616 1.868807443895402 0.9501699423062796 -1.8583278018468317 -0.5544326856996904
Ni 8.007468811715972 3.9114509722538915 7.425618216510376 0.4355199358211661 -0.1383772863610391 1.5276065451003111
Ni 6.368637043263328 0.8743650203032186 10.616033647363727 0.21034040696290227 -0.9699219281222263 -0.02589975058489733
Ni 6.490315626939435 0.42720178816689963 4.215851403468001 0.2523501757357847 -0.7201680523587081 0.7910145428576247
Ni 4.718243769641215 6.989027225227903 7.7629749639036305 0.7923918828211256 -1.0029714023780274 -0.8949629581168329
Ni 4.291172708998685 6.1045767154913655 3.5476112390017196 -0.04265100190130719 1.1413348047819956 0.6548178090876722
Ni 4.727320524702089 7.926853505021081 11.793830231767815 -2.9406483328781485 1.7527480216317877 1.0977985720622576
Ni 0.9220045407621448 0.22844959384621047 11.72347193643538 -0.6082055085457719 3.0912021067007216 2.926561001547147
Ni 4.532712671047601 5.4896010636141765 12.93398470631782 0.6731389759943632 1.9046989329122035 0.4106172590422154
Ni 9.294448839044852 3.256311374591507 9.642705109675658 -0.3837302048433843 0.5286046688929928 -1.0383304986036117
Ni 1.1393599108025922 3.234996298100241 1.0371523110931253 0.7356862025989652 -0.17218780715258086 -0.30632791550382077
Ni 1.268019900567401 5.449418574917724 2.197750345305262 -0.3842966188698156 -0.2743205093592888 0.12330573673989732
Ni 5.934640205265872 8.668208368578323 2.1955798975424936 1.4148950389364925 -0.6676794955416889 -1.8433308142173674
Ni 5.8056093572759 5.513391618758408 5.556376868491533 -0.898022313768447 2.0498479907794374 -0.02319777827270198
Ni 6.468166119441553 8.518066416120927 6.698335568306958 0.9289933082286645 0.9101507216008646 1.4175414754204039
Ni 5.756952758134463 3.543439083968632 6.80611994857732 -2.5485682134081724 0.0877941740968488 2.0533346637764573
Ni 5.277275458252507 4.957808911641135 9.154942173339576 0.7961570062905127 -0.7536659270058375 -1.3700899668066597
Ni 4.840311754453745 2.2420141287696382 8.961547026081373 0.28381482200296926 0.5929632376747207 -0.03936487495086769
Ni 8.83985082663957 0.24167810673778853 6.771476227473682 0.8769248696681993 -0.1552619779315197 1.8120829119466793
Ni 2.0866059895149203 7.535264305071058 3.2075815309506006 0.5142933944766432 0.8107701282179973 0.4986585161528637
Ni 1.4067394196897667 6.848592486814156 5.714192804773125 -1.6080381081845017 0.4937214838625627 -0.05715947993012737
Ni 2.8196350859172457 1.1383029648608767 1.7627188128596003 0.1600714835050211 -0.28966896679090115 1.2884096189170327
Ni 3.0380149518047075 0.4736601251786803 13.02860640103157 -0.28438175025003276 -0.47374221252715837 -0.16137143326336725
Ni 2.439041832343318 5.090724499539693 4.556506007628521 -0.6119778311040105 -1.4514293864171004 -1.0564644892001611
P 6.444764965433743 4.001050319453366 2.974318197341769 0.276194329343234 0.869951780784476 -0.4069956031292281
P 2.3670953366616203 3.124554718646584 3.4632215227202274 1.3728978685691 -1.4155455280362976 -0.3669768966444454
P 6.555382702544352 1.880186301388978 5.851287037723712 -0.34218503441174614 -2.178871860950035 1.2656841522950588
P 0.8954770519162074 7.994331159089559 7.946029656698717 -0.1134553263083788 -0.8069980627700747 0.07976359048288843
P 3.756562034514402 3.9255899420882456 7.72753018903364 -0.4437338390905261 -0.3404456831231363 0.271865362950577
P 2.315416242985102 0.6215518953548993 10.409408132922819 2.6264207029112767 1.3129250875598937 -2.2926855990390966
P 5.442437168829023 7.585701023693279 0.30718835792177535 -0.18819112455937267 0.11940228792043307 0.07051353263953017
P 0.8594018180634388 2.5959148615874312 7.467942411457148 -0.591314132107072 0.28175845369457286 0.48554948957473154
Ni 2.26469210923838 7.098532387663023 12.111022490313372 1.3895740436732005 -0.19079899449586496 0.6479493641026131
Ni 6.698469077268017 7.1374446869382915 12.1106293805947 2.13057960160255 -0.14279624136434116 0.08445791063476421
Ni 5.731799299012756 7.238698253863525 9.899702442549383 1.2516094193695477 -0.08390692322730066 -0.4214981676207773
Ni 1.024848162327767 7.940612345174643 10.228957792013944 -0.29377527564979083 -2.0783489264326076 -2.4026385686211715
Ni 6.923394590829613 6.386660753006269 3.202968054629568 -1.559203860290618 -1.142089166449517 1.1086188026062134
Ni 9.299455425084558 5.749062749394112 8.872081187842957 0.07335228763990592 0.6995130951125179 -0.16256828178494584
Ni 7.972673038740018 5.449613275485934 10.940621746064606 -0.3840783322114224 0.058168637920932076 -0.7665486965057766
Ni 3.4115248132780143 8.418917469623494 9.212559634346524 0.02682406217137961 0.4570421261636581 1.4733295289243011
Ni 7.006596633645018 1.3760787159243835 8.130252552903068 -0.23660731107923122 0.080072637082875 -0.3844393150952669
Ni 7.986506050538612 8.18587016093082 8.659430154388707 0.29925686758965236 0.32158149922878165 1.1117797168326982
Ni 0.736902710564157 5.531582214702672 13.274123817545364 0.3749771412411026 0.23197598295480693 1.455270100319429
Ni 4.563030330954708 1.0450321212322844 6.715094651502092 1.200993911205525 -0.21141769918748105 0.07248968252929452
Ni 5.274976137256495 2.6365887374322257 4.338033427184769 -1.4966093253878483 -0.15232397834911832 0.0887987041019632
Ni 0.3030208386165018 3.423902206542842 3.3754931552667022 -0.014281963840310889 1.6313958090738356 -0.7300390316155169
Ni 0.040734140306383726 0.9095381415232774 9.098790529467587 1.1183020913322481 -0.10386999661278885 0.41553397961754246
Ni 8.314576507973774 6.083929183805394 6.264565880972414 -0.46363546311045967 0.2682192815575574 0.3326326148366207
Ni 2.4887924632489864 6.235795627009802 8.932806440776774 -0.040366833852820805 -0.27524250695292596 -0.22424287597660733
Ni 2.8065901478471234 2.927211785581515 5.763898005546211 0.02491141852969903 -0.21060960146388888 0.7201783367713532
Ni 2.933256774651679 8.18040927356529 6.895150955546732 -0.8248497462395149 1.7972412189481564 -0.07203742548322432
Ni 3.9257939141120857 5.918183371524247 10.800690447691517 -1.1963150176726172 0.9527523583214753 -1.0939077216482838
Ni 8.006244979572934 5.226829468174658 1.5139322810909925 0.7943348654801093 -1.08184744804964 0.2577919155766464
Ni 8.779345307204164 7.34106439546425 2.664847207044113 2.5626763706747804 1.0638967771084902 0.5320188367808645
Ni 2.2204301800651294 2.913443673972325 12.233041336411068 0.439722661048604 -0.2354217754115623 0.129093547066268
Ni 7.725329145467295 2.230276465943217 3.2052608856066405 -1.055348887538479 -0.30534061188988704 -0.11664889354501201
P 1.4568516373649696 5.367941022849327 10.769019155262566 0.00930713633353881 0.20614308105210302 -0.3771852046360149
P 1.8847478575584875 8.06157702676731 1.099756888082957 -0.18740693809518047 1.326817786381586 -0.7623364581966419
P 5.423069098019865 9.080361657113656 8.741038433981473 0.41293433721116624 1.0813725652957504 -0.7255586272466601
P 4.157858448508076 8.892809381192901 3.209305094552047 -0.6534124440997134 -0.9528150932386107 -1.2209415579720457
P 3.527380922819057 6.303569967658412 5.885971553232118 1.468169839100233 0.04289448537068097 0.3320389471166798
P 5.64880122822119 1.7600745937141855 12.611514208082625 -0.7349174427537407 1.6998794557675307 0.6649176165258356
P 8.204969359526734 0.39563897176880647 2.320176208305074 -0.10898263524900587 -1.4937841972342272 -0.4420955321561547
P 7.1478287172428665 6.290358143386966 8.352876891177523 -0.42437394650667554 -1.6533100926484237 -0.43557470031850143
