# total energy = -340863.5479049154 ev
CRYSTAL
PRIMVEC
9.34453316124448 0.00000000000000 0.00000000000000

0.00000000000000 9.34453316124448 0.00000000000000

0.00000000000000 0.00000000000000 13.67666884137083

PRIMCOORD
 96 1
Ni 3.94860712675624 3.5826004627224544 0.8230795388435839 0.8188328506214736 -0.7390070394420821 -0.4215984406440675
Ni 0.9818113811453685 3.303198929465454 3.4007717384891873 -1.9604489340893139 -1.4420304617007036 0.2575255492891371
Ni 2.4715915699111566 4.773766758619992 2.516315438751335 -0.8225545224474349 -0.15247515921500193 0.5062250156462121
Ni 7.871572855276453 3.922339644816928 9.693817507285859 -0.8651494742998261 0.5842957918077099 -2.17216848078793
Ni 4.454183733958137 3.139557469585969 11.93093699250366 -0.1120576746299038 0.15433612368314065 -0.49438637114007117
Ni 6.401509630897698 3.313991864947455 5.794353278971043 0.8179123956897334 -0.5951934125568201 -0.8538237648743618
Ni 0.3592944860625983 2.7703269417069105 8.343219463573462 0.19793611976127845 1.0638872640267936 -0.09003720449475462
Ni 2.3202848934396734 0.2326499007808098 8.768453645938003 0.7221706846110336 0.7995503482427778 -0.5718699073395312
Ni 7.174012819955323 5.009716213962442 11.966496677943667 -0.38814813140542187 0.8927610653695076 -0.28489622799260617
Ni 8.197893288148283 0.17652102955467272 2.656638551269966 1.0033367561372462 0.4571773661899417 1.8805652730887934
Ni 8.685995618855513 4.100904323713517 13.634927515308584 0.6238789534169707 0.35176393634943287 0.47188793292723896
Ni 1.4190233857617074 7.676272117983098 4.609830945954634 0.8515339403989206 2.3570562520056826 -1.2376562996235652
Ni 2.2821872328681416 1.562676889800499 4.599792114276441 -1.0018398598767455 0.46786004271476844 0.07647257843644249
Ni 0.45039153379713076 7.302126365806609 2.4028130045187988 1.2031675218180764 1.4653074299507731 -1.068538903866192
Ni 6.759246383328391 2.107005274875868 3.6594256053819563 0.40186702365341115 0.28575086268341754 2.186314433271009
Ni 3.0015854415411667 1.358760493187313 13.10626897742782 0.036802513540330165 0.17942494833096842 0.3294930407663745
Ni 4.969132907643541 5.291220267118533 13.040661946496579 0.10247928691284931 0.5430555542110003 0.7600517759275233
Ni 0.2967496585577235 0.5965390936628886 6.8166844236116955 1.0618146977684808 0.4337654150239046 -0.19879872487188988
Ni 0.2218578997520971 7.650228904833023 6.5472264077974645 0.9986120969680673 -0.37331158061322156 0.6445441950758061
Ni 4.389454154664786 6.399070707814752 7.918763680798231 -0.9448552149615858 -0.17096267649622812 -0.9940231920458042
Ni 1.7514551431402288 4.75713349008496 11.287464047973327 1.8820014913146879 0.3209662342422859 -0.5993038351807679
Ni 2.9641886209359987 7.483531782700192 9.881310887353921 1.1403269323427716 -0.521486826901289 0.02317463834425041
Ni 1.736550613188894 3.5686210415267197 13.381799070710628 -0.006766886410188346 -0.5506048273131678 1.1996528237965984
Ni 1.056782568480516 5.507462102606835 8.894593626444008 0.31324598277989274 0.36753662580265734 0.6296528797862704
P 5.691418576977983 3.200259555205952 9.873569876312114 -1.1484325921690415 -0.641270923641173 1.684010349945758
P 6.843076187838376 6.795933019434311 13.297291787566492 -0.2147742743645398 0.008969293378145842 -0.9830242698321392
P 6.589465565343561 3.4227248495955642 13.556682938103874 -1.4252275312107519 -0.15844988874119809 -0.1030521286971838
P 5.610009006485174 1.15247992975426 6.585766999227737 0.5777093968394438 -0.19572188571877905 -0.1579706351119344
P 3.6780174880096523 8.193613492087023 4.572150986003055 -1.382977107181973 1.5298063809651072 -2.169117609776748
P 7.941666196445709 4.006879633826162 7.24490044641979 0.3884129550310343 0.08979166414285181 2.138255887200885
P 9.176779830500694 0.8489012865642884 12.007704199059276 -1.6199479722482102 0.29810089960833824 -0.17882665262533717
P 3.8909046361922943 6.001189842110744 11.312888653046425 -0.9992430456838469 -0.2564613696906809 -0.9355578488200598
Ni 5.301461875160328 8.431684156394333 7.673294949805985 0.7278906178139465 2.0866196510818322 0.5695674844585997
Ni 6.726979711277005 5.198045929723699 1.2882111388132762 -0.7145316800085372 -0.9615941249828213 -0.8142370037206751
Ni 7.784248195467534 1.561686369314705 0.19735186226157928 1.066115896246996 -0.03449726244592124 -0.24480655906057192
Ni 5.817962241304615 0.9503950615865046 12.610968553039392 -2.772635997259496 -0.43226131967455234 0.5111188534034036
Ni 4.648970521942826 1.2480277785018463 4.629771244677614 0.8445852769952292 -3.1455734823627504 -0.293293708027682
Ni 4.372045289900311 1.1196899638613231 10.347261068404327 -2.071822181057683 1.6273897732382363 0.4760682895571736
Ni 5.043982616051185 7.252693786845755 5.68908337821006 0.4566297212165878 0.15662749082047867 -0.09693598849711693
Ni 8.070891741710293 2.9651137296915984 2.097015969221964 1.3655830800752415 0.5157185569589441 -0.8241252093686644
Ni -0.08382045997710012 3.1588819635918384 11.370179984163437 1.4225417568484726 -1.9210490921354528 1.0917536514197583
Ni 1.5159916035077907 9.290624274636816 11.221733669208007 1.1064971282775202 1.0878643436676811 -0.5012347615204722
Ni 8.571085897970518 1.3801501289607334 9.777833268000252 -0.20215684271084539 -1.2026193626240902 0.7074207799953688
Ni 4.0887190528316735 2.8625574812803753 6.197732467824496 -2.048528757747382 1.8583396289213738 -1.9421930732029196
Ni 3.7540632966265584 4.78632581081723 9.269471055545381 -0.5618662591596001 -0.39125350980362295 2.2273081020745513
Ni 8.32471728846146 6.2469510569822875 7.921266146704794 -0.6690905169566026 -0.939959063211549 0.27757064086547034
Ni 6.137685433959741 8.439141093636442 3.8306024965797834 -0.10884790944335448 0.06649232729527903 -0.5840924175476522
Ni 6.943258924896848 2.568438308729737 11.559137652534556 0.3439171866115045 0.10330486813793822 -0.8332482547158553
Ni 6.264630913200421 1.076546255531973 8.904687590866223 0.7769578076542425 -0.3583346475884151 0.692029642251279
Ni 8.999813066727414 5.443928623522743 2.976426221201997 -2.068231892603264 -2.9016410983770156 -1.2565791046699972
Ni 0.6467594167459353 5.626175048375964 4.936169133438945 0.030613096900166635 -0.9215970157645935 1.1803404966212316
Ni 2.6597063614160623 6.899975048574225 0.1776040609160268 0.6324157872433883 -0.35956337778919367 1.6262841988788832
Ni 4.920289034254432 7.720182078009006 12.37477240202878 0.1531143354608976 0.32986585072476093 -0.6178689997774649
Ni 9.231052877495898 8.784159936810855 0.7005932706955533 1.0309416623387084 1.9133658645585823 -0.8978009417862604
Ni 7.196290186352803 7.830597078576388 6.0644401818484255 0.9938051624977271 -0.7603142855602906 1.1844763731664762
Ni 5.350230992286357 1.8029528638686345 2.059378059668367 -2.3457410841031794 0.2569408804302607 -1.3071102806503296
P 9.076858740362997 5.221893177645835 11.000240206238418 -0.003614713934451839 2.2714889103568234 -0.7573960834722311
P 3.6603469763244023 0.028799850351106198 0.962497166125673 -0.4712006770522272 0.0360671780362024 0.8494947984817047
P 0.8772255001915558 1.4122953220846157 1.062165953875478 -0.018393929126155416 0.6173555504761562 0.2572134173653571
P 4.10385719610513 5.54882100515518 1.5468584645330257 1.5722306115675893 1.0061266601775576 -1.3911277613135655
P 0.9657668181820819 5.349595564050188 0.9352615905794907 -0.45960448757419553 0.5144394331362043 -0.09897127375959085
P 6.349208280341195 5.852237987926244 7.033883139267407 -0.5380814980351765 0.9652916284390666 0.5342520969867572
P 6.99099079887266 4.4351489204717 3.2666449857265 -0.46655417941915134 -1.4646147747591227 0.3779526789296588
P 2.382201768334686 4.076272135029054 4.751274467966159 0.7380539315001934 0.15901553143668098 0.8326484163483273
Ni 2.5523376785691414 9.21087803099751 6.225742705146832 0.5645402064473374 -0.5892839890509206 0.678119202817774
Ni 2.9948573778640744 7.173863307429165 2.5910034867400715 0.3206577018629316 0.29680737760789533 1.3637655672505287
Ni 0.742966989515192 8.108484797506042 9.308258342643814 -1.8680599415329313 -1.066639115740318 -0.9843558441593694
Ni 7.512640002636499 8.840404680244765 12.566957672058326 0.5855903422494172 -1.6486533106027026 -0.8501424593680327
Ni 2.7332104570882882 2.039014453605703 2.2193405769510863 0.2201867036293627 0.03301913523849797 -0.8498028166404268
Ni 9.360698926740302 6.886145139904648 13.194976628103698 -1.293916664778191 -1.3951255696190488 0.4713179193563818
Ni 4.739668558123176 5.031096505202977 5.686525779559476 1.6914531793770482 -2.0146071652992723 0.08533208570960142
Ni 5.601393347165343 3.9786404554481463 7.976465236908889 0.1353734665377088 -0.09088464009671444 -0.9404084920441418
Ni 2.945910714613233 6.145432051721281 5.404677847593222 -1.5202855859588658 1.0246509442339902 0.2744161543968887
Ni 4.164437802797609 1.7147965406329644 7.929622962463715 -0.14647960375319935 -2.022954251712387 3.350419184759668
Ni 4.253304310532528 3.252654351091303 3.827156232851851 -0.030693058208482626 2.1593808421049583 -1.089081503904234
Ni 9.030790193240689 3.5550247461792637 5.578097426683414 0.3555802247717295 -1.1023093154484178 -0.9079264602560364
Ni 1.9030047774667183 -0.13121873412892232 2.548497075553468 -0.2895715219810884 0.6835964238822614 -0.4492624822182392
Ni 7.443882929669775 7.385245985817345 1.559809987111427 0.27227236858100856 1.094372062879212 1.1367168463940103
Ni 2.739873109035186 2.623449573822846 9.476495443796068 -1.3131066074430806 1.0350471998666497 0.16975580067232054
Ni 4.959648206765418 7.679505326361257 1.1987204162816492 0.8400177122292048 -0.015443331138263726 0.019634743511791994
Ni 5.284043665862969 5.997237104700453 3.2730459907526215 -0.20343493809232063 -0.0853642244991175 0.2213107899314769
Ni 7.0561595712116 5.732095328625733 4.878372263092863 1.161953766583928 0.20013209897133274 0.5949509575287109
Ni 6.0813752787956386 5.94744008895709 9.51649938907611 -0.4695610845662752 -0.8071021924481068 -0.04217843314026284
Ni 1.7387746120154879 4.300167142950048 6.942701056283623 0.692155369195866 -0.019949960759365643 -0.7855069827758342
Ni 7.324898992446987 0.6032148279558252 5.513680889241703 0.021134467985770053 -0.5007938173283116 -2.788736502365784
Ni 7.953505719610813 7.146044633030967 10.137352022852088 0.5762217565503237 0.5920127008359933 0.9362787861464843
Ni 1.7799466239061352 7.158276626577235 11.90383037151129 0.32330439545715933 -0.48962314542347285 -2.102610112972817
Ni 7.80566586483961 1.7552490234914777 7.250685646728801 -0.6759072827681197 2.216032529160732 1.9179282871182841
P 8.552649134588709 7.530048867400973 4.2520082238214 -0.42923770235688014 -0.22331676461791217 0.11256880993836743
P 5.68730698250865 9.042928741458109 10.688945782245426 2.0135373292738614 -1.921071717843272 1.2801365802749631
P 2.1305441532128038 2.5160995800416948 11.492327045767748 0.24697502746680045 -0.3239749391616227 0.08608978981123237
P 2.1023143193676734 2.124087080989373 7.292276293692689 0.06502577005208154 -1.191352017240387 -0.3486999527121285
P 2.413393819104314 7.3598008227719 7.722462144032909 -1.1149329177496992 0.4430224148457983 0.0714077623190254
P 6.4959454802319865 0.22663856277598612 1.4249580985968753 -0.4756985649225808 -1.8780260516067078 -0.7805254704008429
P 9.026388918251925 1.4828652344309994 4.444534569301243 0.9611184708979834 0.7325530562866223 -0.24886247429750044
P 7.70165186929835 8.540884367686685 8.25549672666365 0.7931788974987952 0.24421854776758586 0.19029608671751744
