# total energy = -340859.705828265 ev
CRYSTAL
PRIMVEC
9.36596372583134 0.00000000000000 0.00000000000000

0.00000000000000 9.36596372583134 0.00000000000000

0.00000000000000 0.00000000000000 13.70803463887861

PRIMCOORD
 96 1
Ni 9.211837208020912 0.6455687029975052 10.045987712967348 -0.4367918605550542 0.7904252460130581 -0.32368260473218446
Ni 6.788085074711904 0.6531120500031705 0.35382455944365643 0.15821668968446947 -0.5945598927378792 0.9656143018858081
Ni 7.787658163652332 7.40973217032529 4.608778032668055 1.0085183003381857 -0.4846537172333395 3.384117091232746
Ni 6.152801136237518 4.3153864161339515 9.623478796767614 -1.1294272547111321 1.376742696236487 0.13321322566159638
Ni 3.755966782037378 4.803268820991303 10.434555314026992 -0.7149481987206655 -1.0159145928022568 -0.32661340522573423
Ni 1.265557086474433 3.829424033794806 11.057133386412618 -0.2816813205997342 -0.21125134881294588 0.45569461099682806
Ni 4.281959292390198 6.6365531511898554 1.0100938757438342 -0.27053173174081796 4.75623565843366 0.3558082816221356
Ni 4.603249304411978 4.624547505418786 0.9593893591252969 1.5049271012249241 -3.470769695525984 -0.3321970699610988
Ni 0.8218801561605882 6.581041085505005 0.6159497800142474 0.25091010085514853 -1.31420112605884 0.44188315903503256
Ni 4.270841893711623 2.228977556291608 1.1170691010909997 1.0517133476684208 -0.6427202544931899 0.9187626316395918
Ni 5.214790525405159 8.667824583887485 12.921933247203876 -1.327003934250463 -0.2417222637082934 -0.17186410526457496
Ni 1.3843268696614721 4.120284030393931 5.384090618289572 0.23400818289348732 1.2535084361644735 -1.1960144557130628
Ni 5.243712620703761 2.205731234876086 7.595512612590344 -0.8849600812678501 1.024952534634809 -0.3322605762091826
Ni 6.798528124018231 5.208515329857859 13.57989124672372 -1.879048836444267 0.4026075013638614 -0.792326576800829
Ni 3.5684789246256474 6.1938240563825575 8.090563725913222 -0.12031322977047666 -1.4834756162193679 -0.5660725839314638
Ni 8.036287030814474 6.027334689145524 9.256418257700906 -0.03744297533780648 -1.5610347428517697 0.42623105432007236
Ni 0.008084699696163721 3.4702018695841206 2.7187827934562128 1.2514255854935157 -2.277669585246239 2.535296950220563
Ni 5.267052601754318 4.05849676916178 3.82384285614311 0.1411779890346278 -2.1637180360277317 -1.89857327963044
Ni -0.09763267675249059 1.2600779978249244 4.077976100056222 -0.30682182442110384 0.21840724313143675 -0.9706320668153735
Ni 8.916050714618983 1.4709526661047279 12.860151605549827 -3.228393857394092 0.09356938601772918 1.3701658143499178
Ni 2.538672505496137 9.31925544344179 10.442369337377906 0.27647329403623355 -1.9277051639993896 -0.1074371451387569
Ni 2.4845091385557816 3.9072364585813304 1.7938199063804858 -0.20937084396078132 -1.038703051451682 -1.432208076293643
Ni 3.5447736709984574 8.922691182742916 1.8448681538595992 0.3458794525441979 -0.08290162189123787 -1.5657686579923293
Ni 6.3475195174739 5.693335064649586 4.948257682409852 -0.4423724399666253 -0.15270553005825313 1.1331293861530678
P 5.107578341181357 1.2406061597012863 5.6164142795885885 -0.4363678856437581 1.7078928129903104 0.6260350805280251
P 6.688843325429524 5.872777559411866 11.231143622342909 0.06715618613152305 0.4727513093687987 1.2058977762650458
P 8.969380510807532 3.0472068598785573 9.763808091343208 0.7033967464376403 -1.8570970147635242 -2.4460387899836773
P 8.10381562767423 5.795508360508541 3.2131633037922445 0.3383939428004301 -0.19051000250053643 0.12916579506510012
P 6.21723896514114 3.4087143191840807 1.8186724905368463 0.47965086470210944 0.32951360959166476 0.6094211261204279
P 0.9630832951310511 6.425500529603486 5.039032600685129 0.7993657430357975 0.38088630763668596 -0.13980656260839794
P 4.697246114132436 7.047241284851906 5.740650975672581 -0.960255865787372 -1.3981407022962888 1.3023647955455442
P 3.8175667239994593 7.941475382269219 9.167549312998577 -0.7158087469487479 2.32779504114772 0.41908827262770404
Ni 6.932751746985936 7.680520907136557 0.5708451729744127 -0.22997155093026844 -1.1059620817096565 -0.10781021220745948
Ni 1.4729101524769455 1.9940979235525045 0.7636407219035385 -1.4253712558774678 -0.008457386738733821 -0.4307279137491615
Ni 3.0728883318049722 2.556327346700109 5.690808127696359 1.3860768291532193 -1.1357804506226699 -0.3132380123600928
Ni 6.791438089646133 3.149258398211968 5.889369363758199 -0.20383114508947478 0.4121498936366579 -0.9424496908438865
Ni 7.187730737403407 2.8724754447585035 13.650199661551294 0.1790670507709174 1.7442638954201768 0.6314400535936802
Ni 1.930793376232798 1.4153375748213401 2.90007131962502 -0.6939039764558566 1.157143489679478 0.3121699761068946
Ni 6.063730823319868 6.153737732587862 2.544513120336878 0.4814534651284869 -0.2747496264769075 -0.7140760805283574
Ni 3.346814666389889 0.3304340021901818 7.787150528430446 1.4236272766031675 0.4507771190905527 0.25138138406461225
Ni 5.372925453197129 3.36623967469601 12.005469035411164 0.08490579680546023 0.9473183317900975 0.3115182014555087
Ni 4.736414573503794 6.004369346635106 12.449157204881212 0.37289017680508685 -0.325557196047078 -0.2346249905418798
Ni 6.568331473030845 7.0442629084578146 7.244024861040794 0.4535138012954254 0.23119179649061475 -1.2427339712567886
Ni 4.052568114264107 6.05094628313768 3.8363033339880777 -0.9471337265831171 0.801965899662806 -0.4985001361981286
Ni 0.6420115100589012 8.624703687917679 5.250753015469292 0.12369371620693537 -0.7531913013622641 0.19866888416224496
Ni 8.09454332380583 0.7744387412266469 7.642736737171005 0.2879982639566976 -0.6260024275178767 -0.4833650803289031
Ni 3.5774421516984334 1.8550976591980493 11.325619032798393 2.146217565250123 -0.9629858631240253 -0.4521259198089633
Ni 3.038009483718186 3.168364963758972 12.910144308942105 -0.5702549974439276 2.5804210962527105 1.603596013252748
Ni 1.3980292742669953 5.358857776014972 3.1052402429385313 -0.25354728136767946 1.172577050625729 0.8652893423118001
Ni 5.408422454875142 6.634230392241004 9.656048934850803 0.7828021822501615 0.4981409530864969 0.296690906634689
Ni 1.3456360744287887 7.358294298764433 9.40114768193041 -0.10222988990620457 0.7167677684279075 -1.787137554855251
Ni 6.899296525351673 2.11283024288553 3.5370158434285632 -0.39414831485291474 -0.2795727588971637 -0.07477616457062605
Ni 5.852977912565609 9.349685458864446 7.333962462178864 -0.15617754776725362 -0.46351744947535656 -0.12214899742763481
Ni 4.166242813305279 4.644618765206643 5.810424593984108 0.18762188231946397 1.1107777579307452 1.246438930912202
Ni 1.1448017190246662 8.813362290767339 1.3871572638322096 2.560533099079532 0.4072136326773051 0.13522331411308972
Ni 1.1503838332727123 9.222224061546221 7.818390699696147 -1.988195250964647 0.2623607658942514 -0.3558159949316195
P 4.045618569344559 2.5390565099997775 9.329345395924038 -0.3684951330611847 0.8055626158751289 -0.1428990854907926
P 2.678806051434508 5.473066334975839 0.20019372350048784 -0.40773530950873 0.1382289337086329 -0.5536747244877432
P 1.5599761492048625 1.9342213188750548 7.091371831687384 -0.2822256231389785 -0.751233406304945 0.7796073294619477
P 0.6519918807681598 8.505287653248903 11.320890157825508 -0.28453627355002614 -0.6620009570996729 0.9162892303984348
P 6.135239954668581 5.061179357985347 7.592222349611587 -0.46159477853134695 -1.8955758875650126 -0.6762896058082031
P 5.42890581705715 0.21031364706594763 2.4112982116384933 1.3251190585229242 0.6716220251292045 -0.27265751983456915
P 8.024691967997224 0.06761851010938787 5.319471089693984 -1.2169594333958462 0.5082433316278215 1.0464814098455202
P 2.272697873925635 8.764453229352409 3.476891977314623 -1.7644611963036578 -1.474348714217435 -0.6578959337923637
Ni 4.065109139395204 1.5775841605913172 3.6065974594882713 2.259934115639689 0.6413873946143793 0.06464987476990157
Ni 8.578857296568373 5.57621369103915 5.919937995440704 -1.047110558789087 -0.7724748321822245 0.04166858338337985
Ni 7.871745783986157 3.9254251597049983 11.257682079929888 -0.354289530984764 0.35615949431396726 1.4945958945022453
Ni 2.012979705975426 1.8916623807154533 9.671676044956282 -1.8262270646575451 2.1276392880273036 -2.664112561035096
Ni 2.4884053793732095 7.934001343393478 13.147567737368739 -0.19581264566037243 1.4188257414494663 1.567831968279261
Ni 2.581268907509752 7.637381279239743 6.471179270206081 0.3985788398204426 -0.5992835234657937 -0.40389151028260767
Ni 2.6265908049028663 3.802993284788117 7.643298694981212 0.5142537994879596 -0.11485529197969899 1.742441497499457
Ni 7.175920257425578 8.426547998075538 2.9151364719202926 -0.358838326697711 2.483887485400335 -2.9376373139659666
Ni 7.41095911154424 3.012627722623882 8.090042978342431 0.7330495363070665 0.28295761620899657 1.0664347130389957
Ni 5.373890147437982 8.723139964338765 4.725118284922303 0.7310415047381023 0.27515457522481 -1.3110607806576453
Ni 8.60667420817357 6.260378593037955 12.55376284146201 -1.9985789081918162 0.45368735075881217 -0.23575987547727137
Ni 0.11990493796365524 3.8096337529120508 7.318349401018641 -0.8347855172959882 -3.2690185728939896 1.4556701639713254
Ni 5.337971677402315 0.0502081205528555 10.528976401894155 -0.9762324437212864 -1.609652503859473 -0.254564152667968
Ni 7.247532414372829 8.274819389319918 9.16291597085343 -0.14195960439565875 1.3830673529029343 0.2424537425576792
Ni 2.7710326940528165 0.3040163655323976 5.185406688105837 0.676119655889242 0.13567788515200505 1.8715540707291185
Ni 9.013615956434249 8.494900799723595 13.401618560803021 0.016263513046713925 -0.1574931812548836 -1.287496105963828
Ni 0.2221812594211481 7.513347824563774 2.9808124811990684 0.00029130598817369186 -0.4794449193388905 0.3473534659865631
Ni 8.406701521411764 4.713327473467831 1.364972106081627 -0.3159145307509914 1.1762038487450388 -1.4651480215547734
Ni 1.3799435987418653 1.505550535286411 12.029129332413536 3.4179324971202942 -0.7182731493288403 -1.1269343130859495
Ni 7.34055516388893 8.529601694503816 11.52583898099669 0.4516003863227964 -0.03760084107190943 0.8094328974638124
Ni 3.1065870684903256 7.167565817980516 11.250622016640998 1.91443724324589 -0.6971006290162832 -2.349169135948122
Ni 1.1099977986459075 5.696023096175071 7.232934623656378 1.5457780738030151 3.4835159394480586 0.08782271334193907
Ni 6.057427529882057 2.1338849288412485 10.007536686400353 0.792598599515293 -1.0038550905345616 -0.1947942316981871
Ni 1.0350981885089505 6.260668937906561 11.317969850405136 0.5936492079981518 -0.9047524334034289 0.7923522878324418
P 8.802282355942776 0.5110060321509767 1.4251559143619894 -1.6855460698639937 1.4750439405122466 0.25182952734562436
P 3.0085909923539016 3.834959318225335 3.804459058076404 0.6858587375538768 0.06663296663820137 1.2539156989052214
P 8.827083427299868 7.481166373965977 7.9336622955146545 0.997611423617695 1.1503979434255285 -0.7793692453092126
P 8.954629118289624 2.957621418968217 5.323707314986586 -1.6966930876197488 0.4412686653794852 -0.44668675107126293
P 1.472685369352863 5.181016861011778 9.223382631231594 1.3085482986484367 -0.7527405869780908 1.5617860191954975
P 9.219620323692267 4.20733129519484 12.988691961863648 0.3119599169786176 -0.3254073007327751 0.7871728005140314
P 6.8977698733006125 1.600053107036054 11.963179837000462 -0.8362649300549919 -1.4675139506837886 -0.5539971408241684
P 3.1079451331983234 0.8970860333041075 13.670240950255943 -0.35567278448553585 -1.3656650982660867 -1.7705863353647895
