# total energy = -340870.622187293 ev
CRYSTAL
PRIMVEC
9.22947405528020 0.00000000000000 0.00000000000000

0.00000000000000 9.22947405528020 0.00000000000000

0.00000000000000 0.00000000000000 13.50826820943622

PRIMCOORD
 96 1
Ni 7.3684335409054 2.628701833869866 5.138126561994208 -1.971324186240921 -0.5267611879263508 0.9096704395303365
Ni 8.535685103070172 2.1231574018498183 12.071488241671569 -1.0891367826222018 -1.186799621983014 -3.350263633018411
Ni 6.875588864950337 5.149446511713469 1.5759418952415365 0.9495382222595516 -0.09425587056179252 0.4425416185546378
Ni 4.927440746897218 5.242128888460988 0.48637296886729475 -1.41908516575844 0.45077943308339785 0.5323623361632122
Ni 2.2535421794152626 2.7955338038049526 5.585574224753889 -0.25891831587160574 -1.0617735601179004 -2.098505346775825
Ni 6.722776465845711 2.875313376062028 9.855983492976238 0.28652990694128716 -1.3962450279354728 0.2016611340213495
Ni 2.2931919992228047 4.535686498398396 3.760729108954684 -0.14272116515203162 -0.23248017628473508 -0.5055138485118004
Ni 2.144412880205677 5.393686079117331 0.6126081749742961 -0.6118665023371269 0.8053379014588324 1.4575756085241542
Ni 2.3605486996314275 0.4731499016330616 1.6308397288535574 1.0424967141661594 -1.059155662879079 0.36218950255813104
Ni 8.288141384015683 7.054926771998837 0.9507428719940911 2.436760192895229 -1.6006006780698498 -0.9288295289572907
Ni 8.378276425971096 5.1054496097063575 12.909770897331182 -1.3567623964598183 0.5310808983476272 -1.7356661264488367
Ni 3.797716225546566 6.725176129055664 1.9165667043153527 -0.25717947880362807 0.262563883043993 1.026367926925097
Ni 2.4609192281246823 5.970703556898461 9.257283212198399 0.5391402783169941 -0.18349140509085818 0.27389164935198634
Ni 1.4753314004272866 3.209540313839152 7.722717048380795 0.21447705483909513 0.5824505110688549 0.8967002525229137
Ni -0.0644180359238179 4.60712262626394 1.3611332741603681 1.4335489065922538 0.7691298269693915 2.049330941933703
Ni 0.6584777372325605 6.185436496293777 2.8247681623339074 1.110377694278849 1.0895455880248461 -0.035888486366493035
Ni 3.7301287882908327 0.7275234313620352 9.46274422212941 0.09721366763853581 1.0539638342654944 1.0692099617912878
Ni 4.415195716837069 1.5116493801625468 5.585965554446588 0.62020638966139 1.223271234546487 -0.6122781359532488
Ni 8.300831910606783 2.814832633697311 0.5452182484596895 -1.344935064807587 -0.7708141566503499 0.6376150720561407
Ni 7.904610596747895 0.7260208730136489 3.779856270632792 1.3799100382208753 -1.147215946153121 0.4273155456335028
Ni 3.3145440382223943 2.273607055640029 3.228705316360186 -0.717582551019719 0.7509019911074551 0.0994430711896868
Ni 8.07663876047992 8.44692525272354 7.812344469272564 0.5923572286596056 0.27890221519270036 -0.8998313419527277
Ni 4.2225858263427485 5.27366600072411 7.896041953193582 -0.40548379447039196 -0.24728355984615474 -0.8525153304755834
Ni 3.1333786953447764 4.236596167699324 12.505806054883248 2.9172872895547046 -0.38349520601444276 -1.1886585295686238
P 2.5517833985169665 6.005554050286095 11.438868721421036 1.0965325608656404 0.32081968136209266 0.020011410124920373
P 4.378554705515852 8.843404991851193 6.652794903064354 0.9921388305388977 0.0004764254157862763 0.05491927774569897
P 8.075282027818908 8.313716256149458 5.4021319706689805 0.2923722246546771 -0.5523884015761519 0.02710045576121784
P 5.666177066081455 6.412786126489118 2.980342942972146 0.13828524086786506 0.229184793362915 0.18924424841423537
P 1.8054050749564143 7.580849882355722 1.3756143186850502 -0.8237058624430589 0.03756844517207723 -0.4499589940646316
P 8.580992590368874 3.834615662136546 10.5360166664659 1.913339639306337 -0.3965870062013945 -0.0172803843470025
P 0.31975604567371524 5.425066290324418 7.421779899957447 -0.15384761408249634 0.07847906734351001 -0.4061947044944876
P 0.8877517127328073 1.8445749621219658 4.201801051154996 -0.36084764381825596 -1.181560742181578 -0.4731557438960689
Ni 6.4685690666466575 0.4581769261503391 6.39458468104162 -0.16891710682110908 -0.6611180402740872 -1.3477447663422402
Ni 1.6845543439135935 3.779174212512732 10.17804783006845 0.26739498588404914 -0.3284882536509439 0.2933608138201916
Ni 2.132183827308798 5.084064918716116 6.252166515425646 -0.3203530261383193 -0.22287864863922904 0.02355644716370137
Ni 3.200772313648937 0.9830312634314062 12.308760479240068 0.5905718546244088 -1.2027980542937995 0.5752722481528608
Ni 5.438209061135857 2.208465428963671 12.206638196603548 0.10947423017344374 -0.6227080730373211 -0.8058019855794445
Ni 4.4725661265027306 6.005849393450398 5.221742826545044 1.6284878913984209 -2.254095140360408 -2.287294252820196
Ni 0.9376499403416286 2.5581425060233434 2.1224734978349815 0.4190106253122332 -0.32949175521479385 0.4419062989634841
Ni 2.4908042645624895 0.37005021771217894 5.156754409135167 -0.485412706886551 -0.9891589219749674 -1.8531421438808342
Ni 0.8406481698161936 8.363518497229881 3.8327143905163523 0.15308528199517507 0.1392576320834634 -0.08717839488972083
Ni 6.793797267386455 7.587301284600944 10.734412514138375 2.4367491371516357 0.02517469949341471 -0.7401200700006028
Ni 6.760248129816525 8.258902410749785 1.8454997554051864 -2.4596998324105384 1.4855983189893254 -0.5269357658310021
Ni 6.958091132003322 5.209668828809423 10.817988169004119 0.4926817297441386 0.5143404456644949 -0.7459580168386185
Ni 0.7465398393535296 7.273702220955536 8.486204970628316 0.8607228059870402 0.6583505048312791 0.4714729568770074
Ni 5.5823734432107655 8.316872736217935 4.220982666729022 0.013821222153808455 -0.30699254567101325 0.23639622350968967
Ni 9.039808196112018 8.789670994896 10.410038962680275 -0.7211293878307129 -0.5796076423034211 -0.04754946764418908
Ni 0.06481674919562558 0.0017332951954973064 1.6929642405170926 -0.1520964357193445 -0.05403481825821661 -0.08245476416180637
Ni 5.808477094431709 2.684263266654178 7.260545605933271 1.7222053729582405 -0.48984837406040155 -0.7593375234693179
Ni 3.171219538270969 2.406982182744031 0.6607389583342477 -0.2159592958115765 1.1413088366400665 -0.11661315521107014
Ni 1.1908605563611632 8.295257308380583 12.797111324360799 -0.6059879320691628 1.0208835067717579 1.2060073052597164
Ni 5.032952092344104 0.776241209261037 1.122947318677309 -0.5428362391113425 -1.5703963865723276 -0.9388524604109315
Ni 6.670288447864917 4.752791412582012 4.038216010132454 -0.5898228922735261 0.7511035655953 0.7681985734043738
Ni 4.19893991425082 7.935252450044226 8.669160831439514 -0.5095458524893289 -2.6271982045072497 -0.5149539108787777
Ni 7.8115221231494605 6.174610323427332 8.683857845653092 0.5119236086928861 0.33372327679763814 -0.0038471416602320835
Ni 6.580125717487849 4.938931441883342 6.9916227335728705 -0.5816832938855272 -0.09055296778890856 -0.9421424440161128
P 1.6021536010733382 9.637970398562391 9.278383635392998 0.04928907604311512 -2.2595417652972762 -2.1820623428628743
P 3.5161342068062713 3.3452228094142638 7.068268899446179 1.1408642929034802 0.009411523121887016 1.2964006075423093
P 7.384926610736889 1.129069228704856 1.5504925439525894 -1.4214364395994359 0.19873033352779967 0.438257132246671
P 1.1165540621175594 1.7289481132977365 13.372469342737507 0.2123201563970924 -1.1722404932219166 0.7698757039964805
P 5.532783480029685 7.897891539760024 13.104046707861642 1.0208801643376482 2.33893177449083 2.015199547467633
P 7.062817972170031 0.6310052852681448 11.067621440946045 -0.7865971305162196 0.4804980431937531 -0.37011621360437547
P 5.241233629494198 3.6496108581230025 5.320555419846605 1.0744691533076978 0.058127757380667625 -0.4875783470793022
P 5.705217740612625 6.179197371947897 9.022550002895507 0.5465476265246587 0.6065654018391876 1.0055170516180165
Ni 2.4207248693579584 8.190742746113216 10.871737856064914 0.2525823463512489 -0.3960527309644792 -1.5221830600918944
Ni 1.2883976363718956 1.3606828758348077 11.014452287792578 0.9307493716878228 1.3117161548534573 2.23420842873881
Ni 7.760713869415634 7.0862331474148474 3.502397057876675 0.23638773886925743 0.0018578791443451875 0.5845451888143546
Ni 8.348742109540897 3.7277568135025323 8.126492686614096 -1.0302855168119482 0.7567075420456387 0.0335976334497873
Ni 4.906028367485323 8.613628010024245 11.013641939985526 -1.1227740110606728 1.6254658167426457 1.1073913579570154
Ni 2.6133439893261627 0.8785416207435275 7.374730810936751 -0.3759027383791655 0.15398259699846384 0.6422302022306488
Ni 6.264486940113982 7.14834750665711 6.266796154479867 0.5813878741322954 1.0933150823696074 0.8297222438404677
Ni 0.12395921784709917 1.9818080093096624 9.079298346021359 -0.6591992259848196 -1.3907091857189082 1.0849181165551638
Ni 9.222071846381883 3.614871118421981 5.81058141447736 1.0276246821503334 1.0016897074521265 -0.5503934826333102
Ni 6.114249564223113 -0.05087747478796007 8.821142577894543 0.5291492285425532 1.463307368801609 0.8747222055899259
Ni 8.397427584281303 5.936674486686541 5.500756282703299 0.30403114904984413 0.10591428073632729 0.8745530270019133
Ni 7.574943019069682 2.9126096800290386 2.8167985116346963 0.9037473891776824 1.0283026820539645 -0.6423055355532744
Ni 7.924980045610847 -0.09485038016297268 13.197307772621715 -0.8767958002895029 0.7234827185542378 -1.103893629216402
Ni 4.4824785814546155 2.9540869356656994 8.9416628937723 -1.4808181239918625 -0.17311366140095993 -0.007706881725954468
Ni 3.1335355964008116 7.118767042857489 6.474702052042866 0.13915993016333453 2.33222273790177 2.692975508013375
Ni 3.440378685162811 7.403117903763114 13.068047144975393 -1.1691579976418511 0.412102071117858 0.500758336104686
Ni 0.515289833494625 5.8484037984557835 10.835670918019312 -1.4103166755371903 0.5880174636336712 -0.06090352035359188
Ni 0.9635939914307815 7.7004730933719125 6.086609135834 -1.5445804539504884 -0.04195654693744388 0.25572603418655315
Ni 5.724996503146974 1.4678093792114704 3.345389862891572 1.347404609394002 1.4983993274087355 0.33712793160381294
Ni 5.561856322765662 2.9844057573760754 1.0094921650580877 0.5601909283397062 0.6804769044166733 0.5972976033840165
Ni 1.0647490252042133 3.713414211086117 12.550207207846498 -1.9138680010059814 -0.26147810617898193 0.21757446281749626
Ni 4.716648792850556 4.342836641583081 10.685877479822283 -0.3762662923661713 0.513402764341574 -0.31926159284635336
Ni 9.358040455647412 1.1062170513669898 6.180977737460205 -0.2263727778354166 -0.365364557852003 0.08119003851676986
Ni 5.123087134299517 6.337962781707986 11.917440016013817 -0.462106685170759 -1.8095310920591028 -1.7435398727699587
P 8.905999283735447 4.526955416103719 3.7496389731351445 -0.27371527167512216 -0.3636144079301157 0.12682994784307186
P 4.104125529035997 9.523432627656526 3.2233568362441547 -2.3466067745375843 -1.415430599724988 -0.39080459519166244
P 8.5955659296324 7.316923847156356 12.19257617019322 -0.42633338422589157 -1.5796914387210084 -0.2567105095870095
P 3.5041728086520414 2.4705086514906127 10.780111331129776 -0.5315737788236459 0.2711410831900427 0.9562282326852176
P 6.05485789977676 4.248815991122319 12.481369176879426 0.39757096738121855 -0.10522162554467684 1.1388516333488257
P 3.5896377368219294 4.123359752611164 1.9105010940785006 -0.23606917918757406 0.3944681600861787 -0.027059832331269528
P 7.736781843633288 1.4709935477016012 7.7468973470106315 -0.4037087048478402 0.8352310894738388 0.4682637059110903
P 2.3998754878530146 6.568265843546348 4.544572635854332 -1.171673564974853 0.6665577232324197 -0.8382981584349369
