# total energy = -381170.4526581941 ev
CRYSTAL
PRIMVEC
9.25120439034109 0.00000000000000 0.00000000000000
0.00000000000000 9.25120439034109 0.00000000000000
0.00000000000000 0.00000000000000 13.54007275133149
PRIMCOORD
 96 1
Ni 5.743093717140886 5.702703524519513 1.1176645750925573 -0.43977871109752 -0.5730801255975485 0.7435234392551969
Ni 5.730681525008207 1.8592820219603892 2.573775611042582 0.9987586498482606 -1.7989054940244567 0.8470095701660059
Ni 7.346197287699197 8.610696256878056 9.031723330548328 -0.974657643034999 -0.5407803850235784 -2.1561474227693256
Ni 9.145137667461983 0.9660087339289407 7.837888350313263 -0.3231673556586628 0.6071510991393285 0.19678015177996433
Ni 6.7627139268666 7.585513546233622 0.35465034783126786 0.8888403901588627 0.8834652418898785 -0.9768379385157692
Ni 7.5013680777904606 1.595582701547548 4.327677202374895 -0.22499183832748992 1.4859541596668473 0.417658482159713
Ni 4.782344074989643 6.915154034688674 12.624302704900785 0.49380813003909796 1.119983592799729 -0.31836067829863884
Ni 8.802643912547623 6.598937350230014 9.995852766646216 0.752681194495065 1.598175356457809 2.4050826592862897
Ni 6.9514711894472505 7.41381155506491 6.773398525738738 1.023130908045038 0.05438705939131279 0.9186662152710436
Ni 4.4626703651666215 4.0842364183658635 2.384534732679577 -0.4034289688238923 0.7850927780565511 0.7443739601809504
Ni 2.905694178259899 3.2943520936914252 5.11039739363468 0.3361658248008597 -2.342448529394837 -1.2400906200966706
Ni 3.8376751173125134 7.7298075783301 8.40484418775497 -0.06951054529631255 -0.34839399143593547 0.14824055230836403
Ni 8.968682266417275 6.648236738537731 12.722375572338452 -0.16444981507837486 1.552607952240655 -0.0844748799156287
Ni 2.318422800272737 5.266106964806665 2.8703874678830865 -0.6285408776690142 0.5741641026903467 -0.6145232232336836
Ni 1.4636456962853792 5.360669480424882 8.833398566387482 -0.7594452526917759 -0.36469041460311385 1.943119698782247
Ni 4.562206951854304 5.296604180587475 8.524797451368448 -0.9672970889048697 -0.708077182632445 -1.7142781476913638
Ni 4.008200248782718 5.495530246500526 4.343878331083778 0.09780322159341866 -0.29187805862707794 0.5551415388412569
Ni 8.866654047086664 1.8649732419086316 10.981916844796647 -0.9562976524705725 0.46365166106037564 0.35600779922745135
Ni 9.168242733261552 4.603709644659421 11.320123336606214 0.08891594640611784 0.16523734397667675 0.6604246137514884
Ni 2.55235124799994 0.1818818275607859 9.25261437942802 -2.656861278789321 1.210283049816935 0.5467080633619229
Ni 8.216190819819579 5.808731227981766 8.11544519367601 0.17844098715114431 -0.6623508842399238 -1.1118370524331949
Ni 0.5810321827418027 1.932854141549788 5.695950372577696 -1.3347969479323205 -0.19692310511573186 0.8952686622827098
Ni 1.49020778744931 7.205636107458916 4.837819218449597 -0.4061126863036425 -0.16119325581429014 -1.3941868598548635
Ni 6.227187598748113 1.0403163908299058 -0.007613730596348576 -1.4472076350262688 -0.2823816891008685 0.18258946210187907
P 5.2325388807500675 7.090156749543039 3.092247587170769 1.8228692039289056 -0.20992748779519974 -0.98100261141642
Ni 2.4538536077648447 1.823029226716575 7.307991640893174 0.34519142533823777 0.1013459446393545 -0.25125488578907695
P 8.23730993487792 3.9757170822606804 4.8025492849383635 -0.27500750812398445 -0.3128947700880611 0.20711264405422397
Ni 6.989259418828959 5.248169048620847 10.265726003368014 -0.16899398280563155 0.3480600051352844 0.6343883375887267
P 3.7207246847735034 4.616507993880671 6.373076827389052 2.4524068982935505 -0.0558423037806006 1.5023580549461675
P 1.4044533311370975 2.3754637187846877 9.22029119227125 1.3595538431620262 -0.6823036732127669 0.30111937471968786
P 4.169292114232089 0.07552772941652536 6.851662453954289 -0.7673686213039107 0.14009298350056518 0.7096008183658231
Ni 2.003006012640405 7.999124564960028 0.40913895187208443 -0.035750675237048106 -0.2700995292994057 1.003997786760013
Ni 8.820030175749766 3.6656881054355703 0.13517245001142028 0.07559506092749563 -0.37346584680289874 0.05149893921024034
Ni 4.545418312717808 1.9799101410572293 11.62522605228711 -0.8618571767017996 -0.4072074620297181 0.5727196569343362
Ni 1.0309107074582544 2.5441408127595833 3.612064677157483 0.29479188983976323 -1.064447764515954 -0.08932552313971069
Ni 6.354913652901566 0.4711686521997324 6.775754083979027 -0.406029639671533 0.3643844533269208 0.895882898827941
Ni 6.675791805072277 3.0674480272896782 11.042526038691332 1.44610643154229 -0.5154131099033833 -0.05206329635414259
Ni 6.625177643820135 4.858628488415442 6.730983766667279 -0.5509979489865285 0.13379095254193732 -1.7401411315010546
Ni 3.8391002208536724 7.945117737858287 4.362395482902455 -0.6419455811106944 0.496121865773939 0.649348815553301
Ni 6.916174592708472 3.422620606612158 1.2787159859897912 -1.6004705802498889 0.9152741588703591 -0.3876357105453776
Ni 4.669678147290505 0.9367895142269774 4.946158347913446 1.0593621224629304 0.749806186940115 -0.07387627846417599
Ni 2.1685478788247496 3.1295273763858575 1.768475343739357 0.4355271349100176 -0.12414520192205715 -1.2789775269698553
Ni 8.87333824240552 8.712044104195469 1.2254823924868343 0.2937289957928877 -0.8864865452147055 -0.8604258435719117
Ni 8.533740665655452 1.8423554695779742 1.9888147396353761 -0.2568352080903319 0.13629957789640396 -0.7349459819988311
Ni 6.087049352461982 6.705617843056283 8.836346232163582 0.312850547113687 1.7872925923758767 0.5203239169414393
Ni 6.160796162162879 6.242404026881137 4.933603645426653 0.05910349103037563 0.5919453379331677 -0.26088906644473137
Ni 8.288678021874418 5.982180120265445 1.4107964210277155 -0.7587060605329062 0.24670146209043967 -0.14403062799207453
Ni 3.3194890813141966 3.559228273802772 8.953674546996409 -0.8113925922933446 -1.851899529722985 -0.40848684296277393
Ni 3.6648054606616904 6.855869727376446 1.6765524876480231 -0.7366881615009183 -1.0637913618788777 -0.06391479637608993
Ni 4.437671290789769 2.3731008051712816 0.9491391856881722 -1.4400666531061135 -0.405547814939108 -3.3431270219736295
Ni 1.2225089829048286 1.1217587596530623 0.3195688957561228 -0.1494163177840201 1.0097490874214934 -0.3834635814455589
Ni 4.197132201474865 8.606126731329951 10.803575709969412 0.6749372055453666 1.3956721861511383 1.036065870939151
Ni 3.5671720767676858 5.06964494888736 13.28647844443292 0.5225260667990806 -1.4660188541955013 -0.3595402378607421
Ni 5.59633563505066 3.1430888455678576 4.3182843909061965 -0.06130795488086216 1.4997548129953655 2.3664256090357245
Ni 2.319572077322059 5.951039309337016 6.989446061421769 -0.516709974337936 1.6588338506801303 -1.821907611346585
Ni 6.607432806178603 3.7444917341534834 8.58668464134198 -1.6810708077014598 0.636264214455201 0.43200009559336566
P 3.9366692452329155 0.16848033774405158 12.988937971736563 -0.6085772900628938 0.03691229964531707 -0.7850562683916609
Ni 6.875232747103425 -0.15992603881053785 2.3561006990577105 1.1975252359306343 -0.41348121085357176 1.132752205319307
P 3.6025422272376204 1.7476642349302336 3.1555341368795555 -0.5942930122297378 0.7287671068816288 -0.47619890159776695
Ni -0.048960121722757884 0.22700888046864498 3.513145022389877 0.8547362493863022 -1.6648846848599006 1.5902280765862742
P 8.752544627413577 8.89180022892583 5.910503848096609 0.17893643873032408 0.23658494248172804 -0.3314391087491518
P 7.205737243839256 1.9383063118717718 9.178105369188014 1.2390750343479628 -2.191164819384775 -1.0884991490382028
P 8.143878307876237 1.4508841239297074 -0.3479137454789618 2.9539656188123447 1.807897670220738 1.1159220211358458
Ni 4.918565585091684 8.771631820648718 1.4017943637557861 -1.6306118797199596 0.48539342361284143 -0.38695873908301104
Ni 7.4915302662482635 2.458643794506419 6.773290953406921 0.1805976284828309 0.8713612595374929 -0.5440240887718566
Ni 4.984524893506373 2.520815085766543 7.015188028483303 -0.4508334262497848 1.4249881615064361 -1.168920170599432
Ni 2.3180642258333486 0.7568816849261072 4.738670627693766 0.1363970227062167 0.3675263413900122 -0.8803236109371033
Ni 0.016143205145596945 9.003362850657616 9.943398842693519 2.8581249202619357 0.8603790494943763 1.0363178390489571
Ni 0.6662469385516536 7.856715347224436 8.116858344735856 -1.1758672913412265 -2.1865599736229115 -0.6186596139995604
Ni 7.941596352979165 6.986887310999158 3.6776525392298325 1.786319686939646 0.749066223450297 -1.6298153519605931
Ni 1.1692376931146538 4.710068339911879 4.703804320282254 -0.9563981826041787 0.5017584952344262 1.0432297356774423
Ni 4.4746964002107275 1.3060384388495536 8.893496561850629 1.1130891796727411 -0.4033569779353762 0.5309001497953889
Ni 8.640411964265326 6.111138199415772 5.762736241046258 0.22059062393600073 -0.17791725343719034 -0.08881001695587286
Ni 1.83648036530184 8.76140785201795 6.5547278801183335 1.2315620138003693 0.023593471049223883 0.11990031060277413
Ni 4.706243545891735 4.350188321795376 10.792823993317596 0.6200582941192999 0.2452693576296034 0.42749346597226373
Ni 1.8662512379874778 1.9234852350437148 11.497387828693643 1.720413056944508 0.8291499162767656 -0.7270832914213027
Ni 6.742624564044451 8.610310099789483 4.752019710477051 -0.2618030936185685 0.257947210207588 -0.4613461528556506
Ni 6.757335310275773 5.0123741749655455 3.238427353049776 0.5124846234026786 -1.7846155597643458 -1.1339061164180921
Ni 4.672730627133505 6.796327982005171 6.490863014198329 -0.6146708045551413 -0.06861014496923022 0.0883598167923317
Ni 9.184939430234103 4.224981482934036 2.5567129842575267 -0.6643314050050624 0.14565247986621369 0.4211988912128036
Ni 1.4467651149849372 5.469988713356393 0.6966430179521226 -0.6518165603675032 0.17179211437605896 0.10836017117365854
Ni 6.292595254179129 0.6622658428528021 10.537456471801518 -1.127115061638188 0.19364751968825358 1.1639738823377503
Ni 7.126961197770527 5.32514302827624 12.579734660349715 -0.9438815381944067 -0.3625869951068659 0.6420597380910555
Ni 2.194162965700039 0.17348383030598 2.4628519873502164 0.20446055114335754 -0.3358207827566152 -0.4406207473828412
Ni 1.894192461610595 6.5652681297930755 11.954147304959795 0.3024247237946727 -0.9734700504848008 0.11164115591777547
Ni 3.6746708548530713 6.468609332836896 10.518765549292985 0.05903509968628543 -1.0618062131280486 -1.3331439857099299
Ni 1.649221759993506 8.855666958495144 11.811775783511424 0.08191663227014925 0.2532690880056283 -0.9055620737889178
Ni 0.2249751198021647 4.109152744795165 6.909903217705732 0.12405804152488957 -0.4476540000805388 0.07205105232997913
P 0.7895413804029208 7.077303235023421 2.331568690873702 0.5364457622039664 0.17592619114909055 0.441508292194117
Ni 8.894944650932775 3.574141292794774 9.324298006969974 -0.6658853797557436 0.46434148803854874 -1.22599326146334
P 1.7101334436075735 7.410363723916944 9.91598812535637 0.858340936018425 0.0628164211055886 0.6859993768967992
Ni 2.413270336599185 4.426196908729337 10.912709219729752 -0.5865131111740027 -0.4171648303527461 0.5139802341115987
P 1.4830179102287513 3.7390763406970775 12.72329039686971 1.8848675000085733 -0.3447772206189546 0.14223111288949053
P 6.62474551564959 7.532729549912359 11.118610018199728 -0.8152523323590669 -1.0922850984431962 -0.12278328857752403
P 5.663536162678618 3.6992837721413516 12.761372841176046 -1.7477467117624543 0.03910519353157782 1.7771027963270682
Ni 8.071381911605002 8.990573695652762 11.850652608114249 0.10423689303390436 -1.7579388218041077 1.586241066914068
