# total energy = -340886.74410500727 ev
CRYSTAL
PRIMVEC
9.13065919460124 0.00000000000000 0.00000000000000
0.00000000000000 9.13065919460124 0.00000000000000
0.00000000000000 0.00000000000000 13.36364267247701
PRIMCOORD
 96 1
Ni 6.527818587808221 2.539236278131221 11.426355072564455 -0.02441056763388054 -1.280175918153331 0.7938178166343747
Ni 4.664616304760911 0.7392811571658495 6.309751058032572 -0.07112031298559364 -0.7433393482688488 -0.19603736007666883
Ni 2.676196163683067 1.7864499631840558 4.825758740771694 -0.05978817580222607 -0.10451482928563936 1.19445328187353
Ni 3.6701049224737745 4.614151152264574 4.927335496424173 -0.14852028833231196 0.5994694142243547 0.9985169661510997
Ni 3.576570451300901 3.0107343801320052 3.1404691751880396 0.8144437204148425 -0.16575824947715323 -1.4685426490586193
Ni 5.144140256055033 4.819216623571835 2.970817878020872 0.7742146976914666 -0.7479956160939376 -1.2266113546633133
Ni 6.088341707049459 3.3421042578951776 0.2982657603593877 -1.2665256743597477 -0.8743614798163974 1.5320936343373872
Ni 5.904349796799108 8.166890583479454 12.589045889782028 -0.6021045378543567 0.10761480836720175 -0.3571653098706623
Ni 2.4061751839880845 5.671892348381479 11.76894561721794 -0.9072582305444182 0.2371793815326173 0.9535447723157835
Ni 0.6286221349694765 7.869897636989795 11.778019666168701 0.7921967360911841 -0.27627223376902094 0.16778813542298845
Ni 0.333879895932386 0.2539875424263796 5.030168630760112 1.036401914122331 0.6379832540288368 -0.12765501484752853
Ni 8.631960701518338 2.856079277366861 1.718216548202126 1.0040615501184127 0.20369436240129435 -0.6574236221416354
Ni 1.5423965777897033 1.3318070577651853 2.639786747707964 -0.21451073629050801 1.05981309395742 1.66044901768605
Ni 1.9064268229274728 6.789384577235137 0.5681762590800249 0.6959528885650853 0.3293806835582263 -0.2763354829067886
Ni 7.766018129128239 3.972530611090324 4.137397442922214 1.2328308532104637 -0.47189924578114856 -2.228686984699949
Ni 7.93032433849527 4.360455790927372 12.794952294786578 0.6806879919862148 -0.2516300097403085 -0.5052323127156396
Ni 8.222651518217129 -0.09387413168904248 7.102748795377759 -1.099568776588803 0.7422985657091602 -0.3110232640969612
Ni 7.145160706603647 1.0447665296256268 0.5071204551669157 -0.35194519912230354 -0.420393878813005 -0.6384501663629263
Ni 2.1155006535518837 6.995052672038824 9.604209710941975 -1.0544592858446742 -0.836608943657972 0.06801930546276673
Ni 0.34310186155954364 5.352812337681827 1.5448773778499991 -1.1240531348834126 -0.46152253053251485 0.6985173068581518
Ni 6.466022287447228 2.1675362794025483 7.184935683499711 0.35856990352767276 0.9623585139526717 -0.3409460197983225
Ni 3.9280277789450104 4.648044158609138 0.7045837397601449 -1.0451876307347614 -0.9941995697226684 0.21318944637592316
Ni 5.978171175111553 5.930125647259966 4.847059655238621 0.11114776122112471 -0.18700636022265213 0.9829885314981975
Ni 5.473976183100026 3.709704590716332 9.500374030243794 0.25959734421650127 -0.5080929220928861 -0.8052800516377034
P 0.1072112853440812 6.0310650829116765 12.73007257086886 1.5473924694779866 0.2695670538347035 0.3194641957754627
P 4.177787826237357 6.375482672438422 12.862358472059775 -0.3746922630108321 1.0558523095374588 -0.8568972615933631
P 2.3131246377441603 8.559481530084302 1.7798101479325024 0.9952984592138021 0.6133101767621888 -1.4538377387482768
P 6.154767251542104 8.154527671143642 5.978158392188902 0.9683530409732096 -0.09983799263526032 0.380466446490448
P 5.000003672500271 1.4141290796408812 12.874132456887715 0.05369774663377204 0.3426511754148873 0.8749034683627965
P 4.166246673214855 6.605995290481215 8.654041374267008 -0.47580937946883217 -0.5993691412010644 -2.206004969721401
P 4.722404245804753 1.140894107964949 3.9093199716445324 0.43881917539772813 0.8791601867566213 -0.9395831679293689
P 0.26222796220708233 5.707456265329775 3.7250084883278953 0.42356456323150277 1.4162906337324381 1.3508349752317896
Ni 0.9048693110616458 7.956182364887457 3.1671160905210067 -1.124257794695051 -1.353510979402056 -0.2872719273136343
Ni 1.8943926143169838 6.710605251065714 4.945496377248347 0.8131599686064125 -0.5591321480578887 -1.0623312323935834
Ni 6.156036413148218 6.115879774704417 9.355979962104195 0.04705992960228024 -0.6567955016393333 0.1888218161648361
Ni -0.5560617006700124 2.5750010695783265 10.218602626868517 1.4241939477399148 -0.31491334317998665 0.3927666040140397
Ni 2.5786715945111154 5.54651926914732 7.00384458362535 -0.23772934049881636 -0.6591280064272519 1.6190789393796956
Ni 0.6995865300693098 9.181699420805375 9.620699681162415 -0.4528563702170846 0.6848449515773818 -1.002396503711164
Ni 1.638551548106136 1.5223365198858763 11.740949190479334 -0.33889556502719703 0.5013664020023301 0.903933022825927
Ni 4.2526135770438485 7.352819285077357 1.48635807101731 -0.08836881565339619 0.34786125886091707 0.7004656888337742
Ni 5.822520830511399 8.221875412199001 8.172776206294568 -0.6715909147809531 0.3531633878001208 -0.11511883005373078
Ni 6.731204017852712 1.0661322717717148 4.774014382944303 1.7605371786589032 -1.6522963066719287 0.8140562551684368
Ni 0.8535696163293464 7.488637838249604 6.750497100397449 -0.12260973911413724 1.1214475789397655 0.4598016911866662
Ni 5.344065166324581 4.676248764373781 7.128019720393882 -0.29625947552422527 0.8901529383226994 0.41573632543633565
Ni 8.067165525479638 7.588718991951856 8.989107342808271 0.9083650904553516 -0.3036123163448707 -0.20217072666791636
Ni 4.611138034782434 0.47126618326124986 10.916759295732666 0.1535866471116258 1.5939258371528355 -0.7462439235101536
Ni 8.002602635430497 7.501859032534875 4.766650506431133 1.1751378693743697 0.433322413949215 1.5587431186041156
Ni 7.301249322837569 6.37636834636499 6.7829173314393785 0.5061753933551992 -0.048632159185406566 1.586864816540996
Ni 2.6918826359082715 5.61276220045923 2.816948924998795 -0.9290812399567806 1.1726086751946128 0.17195975030217484
Ni 3.5073326638249247 4.905017426540548 9.968207998773114 0.8587888221891209 0.1396679801480046 -1.678166232460155
Ni 1.275324800963604 3.672077144825722 4.188673397941018 -1.1321050586536117 0.4308796088356773 -2.3721146890007017
Ni 0.945406697987281 0.6642764454422367 0.5845721835123882 -0.9985609320151577 -0.4873063243648381 -1.4359690859979721
Ni 1.2077031401371394 3.769355186203679 8.75128837140424 0.9775488485398649 -0.2679696274405966 -0.6852025920271168
Ni 5.534996377442892 2.9129724138250976 4.946110870601523 -1.6411821990366382 2.0652157314847592 0.35295410000279215
Ni 4.008149311992841 7.29967884948324 6.224837755122235 0.8533475965688916 0.18301806499886544 -0.4804893014430048
Ni 8.555089683087605 7.84081648795762 0.5870630272976244 -0.16151824325387668 -0.364920528336049 -0.29531253822992365
P 0.535686635029416 6.141463881325501 8.2915651672973 -0.5319938970802 -2.0445885421527112 0.488215723552985
P 8.775585968167041 1.7096428593665804 8.227420461432045 -0.1489710027164854 0.34424217405109103 -0.021780586210201198
P 2.115190211144633 3.5171937755846576 10.915182430917012 -1.8610053486789948 0.8562069203945577 -0.7837534904198372
P 4.299882998877309 6.724995169707695 3.6829800647815523 -0.805489082324716 -1.1021468217286245 1.1547464502022111
P 7.320396314837716 4.371339536499225 10.549579886293108 -1.319035828443322 1.1861396198015122 0.3820929263502775
P 6.666312424078248 8.364039773401819 10.472057851873053 -1.073975501500731 0.7735469822004806 -0.2912417105946597
P 2.496687407019781 9.160516291840024 5.947061193641404 -0.710106554357648 -2.472871851016122 1.067157450137633
P 7.179811557648264 4.482313566432367 2.048125520519412 -1.0636818328842068 0.19779496619772388 -1.238285705677448
Ni 2.9753074230692613 2.2133630571081957 0.6746324389217635 0.18916120178212584 0.22145811414261862 -0.5772170305840575
Ni 1.7400844765952375 1.4169595839422862 7.460974680565841 -0.8117798004294341 0.6689303372296544 -0.7426070980885147
Ni 6.794022952025825 1.1543253074080668 9.280462107342714 0.6751590917481857 -0.985893106739502 1.3520097122661814
Ni 2.7093221946685397 1.7707087070046301 9.613711074735658 0.7632949654551693 -0.35215757224342575 -0.2141358694495925
Ni 6.441506467933448 2.2580941557294287 2.5200618941539625 -0.8717592663068598 0.19900312757321212 1.0201525421430042
Ni 4.276554165038311 7.344300380196031 10.690058727837732 0.20091911364900236 -0.8153870581647182 1.146616107785593
Ni 7.645119072822106 6.666604605167424 11.284246408381765 -0.43188465306142393 -0.8732479350372444 1.1614043218383612
Ni 8.004474420533038 4.428214411639388 8.539420559114571 -0.45039685293299847 0.2008376096787896 -1.8142909753415914
Ni 3.2850193775971688 8.83144734015412 13.044599121906867 -0.32600199689398046 0.019056245300502664 -0.7812638912287642
Ni 0.23937574876980502 5.133329555755475 10.542845112187573 0.954653174888614 0.0033810006570909514 0.28390198240013687
Ni 8.869969590630337 2.450422357680367 6.1027745397889115 -0.28303243531099 0.20608008902465152 -0.13086812246818752
Ni 4.044261068483344 3.062112598532021 11.557786344069525 0.41304026666141125 -1.2037619608689656 0.7027477999997316
Ni 1.342499059497266 3.8423091519076293 13.21315473998962 -0.5142548279292241 0.16032936515209809 -1.368303307219882
Ni 3.1040862381241436 8.544443334650708 8.118733661587617 0.3086408799077136 0.8741138825819654 -0.1082544988337297
Ni 5.927897766454989 8.091069590837952 3.780908209082929 -1.1600398373906664 1.5811294567191156 -1.2745475162229596
Ni 3.1893026789145016 8.69518138468907 3.7982683311095773 0.728255714462849 -0.5022662881087802 0.3645549174665141
Ni 3.8672632430551754 2.8437163650310473 7.183598955016725 -0.7371566164969047 0.4696495305150235 0.06273131759095002
Ni 5.498345912069217 4.842791985204825 11.94069513983176 0.293203719417037 1.0135463496803963 -1.262445333642787
Ni 8.096420157033512 0.13834135426411207 2.6439968945898276 -0.7536499861662376 -1.3027448045927823 -0.7664643643220863
Ni 4.454118091326761 0.7110975519169906 1.661461284695345 0.8325039203506629 -0.16316837726278996 0.7266793711146645
Ni 5.98486394818552 5.8903433658366735 0.7214471539351919 1.7573017024407414 0.23931416848743303 0.17426782961006115
Ni 8.245633387012727 9.564639260808335 11.627598449998915 -0.6913447003691126 0.5701701510396051 -0.03293943104049811
Ni 0.2470838511286629 4.910532344598769 6.145872163508463 -0.6827461600668242 0.809697978199741 0.33235904946025985
Ni 7.5600395919173 6.724136887758236 2.7462821893835607 0.17597324233694212 -2.038253601073619 -1.9408887525691991
P 8.539074507137077 1.8261409380169809 3.6595398369023058 0.9207277257857627 1.1811077138045591 1.6108784058467742
P 2.036684804746315 3.895358280911377 1.8938420355770655 0.04720236871741548 -2.2574756267968668 -0.9249350789988909
P 4.788829790297399 1.7245349642555847 8.854335163161641 -0.47013341212997745 -0.29500657695373067 -0.5992300445200389
P 8.907396162022136 2.2634812445611345 12.822041134016926 -0.9720916820800354 -0.6780420697229355 -0.16687385113883518
P 6.467757112664218 8.015997312237467 1.2687625963138633 0.5966198605907016 0.8512518903821276 1.5791515070571382
P 1.9347866498957416 3.5071591813032255 6.127711282684288 1.1804639095729736 -0.23197264052069727 2.3745114713676525
P 7.070782358089958 4.1969713408736515 6.000088409063463 -0.0043353941505602745 0.3776253774972271 3.143885553137366
P 2.3568878865074936 -0.3905137216739779 10.916090931491173 1.9875833284122608 0.6314691070594028 -0.48346741023472223
