# total energy = -340860.8632867911 ev
CRYSTAL
PRIMVEC
9.28529363602994 0.00000000000000 0.00000000000000

0.00000000000000 9.28529363602994 0.00000000000000

0.00000000000000 0.00000000000000 13.58996580819431

PRIMCOORD
 96 1
Ni 2.653291220525741 6.6118997318851 5.7794453035913556 0.5379555139802735 0.6257694855714642 -0.09089389606809507
Ni 8.57227591653451 6.428125200694958 13.370854372838043 -0.7181307102137051 0.6312204813837065 1.2606311632521836
Ni 6.564758296211477 7.992799312729215 9.351513541543591 -1.0875866645262626 1.12928661536821 0.2264362840835004
Ni 0.5824200418806416 5.199987270373287 9.12172109520701 0.9113817657944884 -0.6189506628774178 -1.3164271871758813
Ni 5.253071293959284 0.5982189689633025 10.452409522309015 1.3857988929014844 -0.039267173030738824 0.040131320803247016
Ni 6.291408537535922 5.241650382815191 6.163049567158021 1.1035935814774802 0.2438539653393155 -0.5231302760419829
Ni 0.32729360045012323 -0.05412490500002309 1.1729851433186798 -0.1648578491500709 2.5232413046076094 -1.1133545175189856
Ni 2.903269895177166 3.411212596987267 12.964596778443537 0.2642849795001577 -0.38762825434620984 0.7514964301583446
Ni 1.9384814623097595 2.626298871992508 10.46750833825325 -1.152898598360195 -0.08867940491527954 0.993177299105741
Ni 4.265701027024859 9.051406352263214 0.7443035648485787 0.19573422701395324 -0.025955543523497233 1.1583061425290115
Ni 2.689327445038116 3.263492860896727 8.402757096628534 -0.8464477841252648 -0.4017017017201404 0.740794470359808
Ni 1.3327646187538922 4.823951449630645 0.41674069088367605 -0.3900687454669024 0.07823147010907817 0.13646284294714564
Ni 7.627144450246 0.035339827491394527 11.067165599197219 -0.0961713424169505 -0.9774521750610005 -1.251439983671219
Ni 8.198013586871966 3.8159585455815623 13.418324507905568 0.12658003661579492 0.5828724290976219 0.6603474806566498
Ni 5.372554452172438 5.66468835982726 10.862432303263626 -0.27131154732963597 -1.2427792226724272 0.4020943091728688
Ni 6.203077539394662 1.07550627390981 1.2837568390640393 1.9397746935694142 -0.7595802356077435 1.6290543054248525
Ni 4.803793077196642 6.992225358276986 4.006240210535753 -0.4195125046493163 0.49040038990912965 1.7631129098058798
Ni 1.3193009430149216 4.91124249488724 4.4634879948065045 -0.33588480322533126 0.4449646261738337 1.4717583277824395
Ni 6.639644189200992 5.409714197211996 3.5489107156812065 1.2433476935813876 2.322301622133317 1.7361232685909134
Ni 6.076695408026986 4.742222295248286 12.956605854760118 -0.7213795561683061 1.5857227325167529 1.0308457601907923
Ni 0.49809843352151073 8.647291803634609 7.500479117423127 -1.1572139379060973 -0.47186942098447765 -0.9386907380220866
Ni 3.820935462958175 4.658496802739116 2.9386672914889616 -0.34284040860755793 -0.016208491439062406 0.3980443074732113
Ni 6.026415543112141 0.5805351272771856 12.769906456081856 -0.9873920598825316 -3.0207610791703394 -1.9298720897437218
Ni 5.724039956602088 3.390302115770604 4.288110154630673 0.09614306028217637 0.64008898751793 -0.03695497995779442
P 0.9706195972564226 2.470779489266978 7.111859866776034 2.1687273163168648 0.7829258523122193 0.8227496691773766
P 2.9082653831410044 7.441772848554408 3.0357812488588367 1.3745446601439038 -1.1112647248694925 -0.5075373066997323
P -0.029284887526302997 2.9506063220166636 11.71975553344129 0.8131100892050835 1.7876880280420824 -2.2901440635641652
P 6.777168672904367 8.268637530093077 3.7875501897723347 0.11895157353625965 -0.14901753968370465 -0.14178014139500097
P 4.396716519905462 5.188659212165325 5.073406433722291 -0.45223724857584696 -0.4471721753481138 1.3987621379303716
P 7.296430147628817 5.469604341016383 1.1743147973640733 0.7414115351185167 1.8652944629726518 0.16706874075846065
P 1.826640100740173 3.535895519623748 2.874440915567265 0.6322136985349112 0.7314593090018113 -1.54266832452944
P 7.138877285602022 1.8221181627506011 8.70384295585573 1.6195851895921525 -1.919859956923358 0.11846280682529921
Ni 5.662812730517417 3.112383992637412 8.850954505214613 -1.5314470018923239 1.6999712441503885 2.670749349625323
Ni 8.55396531752951 7.237756377287745 2.17336132101695 -1.0087854379566434 -0.7195887828164704 0.3145724149008001
Ni 4.016307325871058 7.542611137192491 10.267395404421526 -0.3149567948234124 0.40048042771852965 -0.4701316123577645
Ni 5.398971112501659 2.579343142191146 13.197786713713146 -1.1830779501570527 1.521026063669316 -0.1468706685440309
Ni 8.7614080621394 9.138595259290065 5.543251575837913 -1.7980506022233294 -2.4783300459172155 -1.066937877927659
Ni 4.452149722775569 4.2588670509256294 7.2523937141394095 -0.34512251977351527 3.326396596592826 -1.0819675185672721
Ni 0.9594122478654312 0.8794278001529715 8.842596812433477 0.5805463520676066 2.073484142141139 1.8224807102412355
Ni 0.18530381904821683 8.266353347864259 12.257062047773406 0.14246893993190946 0.8920426991462443 -0.6086917041535711
Ni 8.5140014138188 0.18113565074530377 3.0436496066665635 -0.21755569376441886 0.7149641395602655 1.3117745188952183
Ni 5.516922197268655 6.114477267738621 8.568119819113294 0.00719626063812309 -1.3627672078930013 -0.20402809159162927
Ni 1.4790637049216304 5.941445821258817 2.538415425003399 1.769434224038217 -0.8362731575851082 -1.5715392419275191
Ni 9.162774163858534 4.2572142686625005 6.650970390350231 -1.5444246450989143 0.35746767160242954 -0.014227199342975496
Ni 6.404995534304767 9.35168346241671 6.851217960939344 0.03950731406600293 0.6010712114938358 0.5382810156404924
Ni 3.3165861697763366 1.4128038496986692 11.93144629987917 1.1222351078380672 -1.9627133046434586 0.019234679859895906
Ni 8.493870897265635 6.093306798300793 5.176947671331143 0.3361041183249889 0.7457338166429545 0.12412720419992818
Ni 4.854945759711116 0.20680855905611742 3.264676735832395 2.6226902893345674 0.22175481944743097 -1.3527010819062508
Ni 2.189880786883986 4.881418131802017 11.228763135121875 1.0745336879970462 -0.1860095435270216 -0.5660134485587542
Ni 2.2199465676031496 7.184858059574009 8.33850379335536 1.1951166264891415 -1.0091577336943975 -0.14200922668667157
Ni 8.928673341285482 4.711617967499564 2.5569795125240358 -1.737296462963408 -1.348537951667497 0.21404099574294105
Ni 1.0334438938425432 7.460399147542252 4.062258386903483 -1.1619902762488181 1.9303526289245658 1.2254078212735153
Ni 6.788775289920721 3.0347589380320366 6.703698787190847 -0.49976151940905544 -0.6671171952803157 -0.639167504144925
Ni 3.8654584458329087 6.51649334001067 13.508616560057913 -0.8411729088795707 -0.8040443794583894 -0.12349111327782603
Ni 2.1321819723722872 4.473208768690041 6.534381458156275 0.7731430618938426 -0.12511347937259742 0.879201324407202
Ni 8.92071584465907 2.996837798916205 9.416065831271107 -0.1885906739906365 -0.35160221396058805 -0.22845280029289688
P 7.429952669784953 5.366166170166636 9.553705452615283 -0.017901048650136912 -1.356452321418567 -0.3489580914695216
P 1.5836161110049471 6.468404804388514 12.64072016604303 0.10159508453568308 -0.11753309592217823 -0.3342956043613404
P 4.531473986112138 9.446022045525634 7.927434559810555 2.4294688014401387 -2.1993357852313413 0.541129797943197
P 3.482709357808008 5.21619939302173 9.35311711175057 -0.11832885235059622 0.8933092245634938 -0.4983304433894836
P 7.782626691797078 8.733765743053253 0.1021800135651737 0.5933987825502425 0.6596003180779801 0.05353988089966908
P 7.13384465646373 6.882891025982932 11.311649237088421 0.7191401253148261 1.06913077181392 0.5991817077806068
P 0.41740551790637276 6.6451596536071635 7.295704966197635 -0.66140343272499 -3.0103375698441703 -0.7596542833787885
P 4.60375999688999 8.215507080039014 12.269429130336672 -0.6636850296703151 0.8316942799651742 -0.5434309352725479
Ni 9.144296429568499 5.394114903942016 11.517876536764359 -0.5008902336968599 -1.6720896872487718 -1.4949015986681222
Ni 5.17364489239297 7.194793323740009 6.613692722081786 -1.6779168354535101 1.5661854338147736 -0.7336115794581237
Ni 3.411658291080695 8.923594285679124 4.734526643901764 -1.686807967295553 -0.21762999864578003 3.432971136620971
Ni 4.377802376815612 2.1176783437486515 7.229345758333014 -0.19627955799446198 -2.13536262481349 -1.6507022227119312
Ni 5.650695422352344 7.021947583132466 1.996869245607549 0.39367831719503166 0.22879115746892212 0.16183011806734066
Ni 6.051123709416555 4.113487208825586 1.9675825010225234 -1.286202841073701 -3.774586414572177 -1.7603952537644005
Ni 2.7515760534202265 2.664628564027315 4.954140551379684 2.274265444660696 -0.22770589482454334 0.5299979496960936
Ni 8.04307917764406 1.5534203361752006 12.669979054747214 -1.6377052962316312 0.1814491778498488 1.3399751496991503
Ni 8.74397028073403 7.135321018148211 9.643670662432447 -1.304267668995212 1.2500893831805957 -0.5152061360988998
Ni 6.927479005912957 1.127522488730302 4.636366233941693 -0.9540677346987892 0.6480295825212452 -0.20574635983431663
Ni 3.252285511505736 0.6617192349244557 9.460274042692356 -1.5462395868204661 0.3857014696371422 0.16428475025542028
Ni 4.3892232879597035 2.1198046759860474 1.9695667682676392 -1.9075083773365407 1.3091085420272808 0.198241052596207
Ni 0.37312116707749526 2.6343027950869855 1.3054862831773766 0.9775578474009292 -0.5232410905882343 1.1177891562515716
Ni 2.395178628669255 8.798038545443013 13.041664715432129 0.8473325007230632 -0.30490018191835877 -1.1862301226327894
Ni 7.46150409748221 7.268899252066025 7.261662294223989 1.0893589259353367 -0.5473143294873541 -0.22943624725208872
Ni 1.4146330525404465 7.461290535729109 0.9027552432971203 0.9354532049213954 -2.2907886391267 1.2669414217409278
Ni 1.4941430217492777 7.009607427920678 10.502421042238442 1.4690890084803925 1.021299254152938 1.0212899981815573
Ni 0.667056421693256 2.6905159626205912 4.407606312254886 -4.219166403713082 -1.345689169364792 0.10392990331644682
Ni 7.1357017151863475 3.477370313980485 11.148189071264982 -0.513504837137077 0.1637620449827309 -0.6396290171623759
Ni 2.4083823161870592 9.433858310892496 2.8214673869752644 -1.3080762441080247 1.151062830703037 -1.7807758743032815
Ni 8.48825329462972 1.4421546628096251 7.000979533095402 -0.5737141596371216 0.4233480763453225 1.216349053505357
Ni 0.9136023232959242 1.4574196855095336 12.865987888801957 3.226799259213462 -0.4768900141275207 -0.10615853553664945
Ni 6.1967728250313785 7.310088814533662 13.508725197993186 0.668843433942803 -0.2962872434383671 -2.1905567534871304
Ni 2.7496911388167704 9.137230321128941 7.035728815913004 -0.8491770101309698 0.09287210284038844 -0.7114450706634134
P 4.173154505583258 4.431387806256715 0.769285647314579 0.3976493860276377 -0.06971366244605413 -0.3643255750645274
P 1.143140352587508 0.47877295192460073 4.625290735720008 1.7394613318252106 0.3920983743024215 -0.4195878379719419
P 7.921813243057195 3.938663700678456 4.677312521716668 -0.062402216386305435 0.3257227750906649 0.8309162641485689
P 4.296713907692556 3.1152438630702415 11.12314199174369 0.8819940566609907 0.47220494994702544 -0.2299396692510685
P 4.728916469500739 1.760240966113015 5.064871391833146 0.242929139532201 -2.1487297901490154 0.034172532116650826
P 1.8564087520637174 9.155587346602006 10.954327925622948 -0.489815206829621 1.0675500575903614 -1.041338689302316
P 2.529703962535604 1.2559659552800813 0.9759187143214091 -0.6166199578617122 0.6756841110137203 -1.442557280738451
P 7.700832540359428 2.1738915112822568 2.2788468991083812 0.38371709221726175 0.4852299014517837 0.4480648623657122
