# total energy = -340856.10002520354 ev
CRYSTAL
PRIMVEC
9.37637141176468 0.00000000000000 0.00000000000000

0.00000000000000 9.37637141176468 0.00000000000000

0.00000000000000 0.00000000000000 13.72326733925873

PRIMCOORD
 96 1
Ni 1.2433631006659098 1.961593146900686 11.776525525325164 2.7838382937332184 -2.0657680044438034 -0.7538916698633984
Ni 8.107045087803435 7.8966955726959815 3.4934090608349693 -0.26755465139036505 1.793267321902073 2.6922139472570024
Ni 1.911823367717733 1.4028270483984795 0.6738357407529509 0.592721811087876 0.04096692933066493 -0.8708781492534873
Ni 4.949205106324696 4.620938344984232 9.045965849119455 -0.41813516468581535 -1.0101090418640732 0.3305564490338823
Ni 2.2425561147260784 7.839696611193877 9.10555268911713 -0.6896382592009671 -0.13945509280625015 1.3053112797683777
Ni 2.9777011348956783 7.506104070920498 4.057545007215487 0.7926914163394154 -0.6675540257074181 0.11103257579949911
Ni 5.719624035553502 8.167860232449373 2.02076461364708 -0.020317628511429525 0.5952736309754523 -0.18106454081692042
Ni 4.20152387764575 5.932448912700198 5.925515086078911 0.1780056993859386 -0.572589559114375 -4.638519757076715
Ni 0.4503461788205178 0.2359020023398169 10.145473847457064 1.3541786948930419 0.5913179887618139 -2.0714516850921423
Ni 4.223783383256211 2.1654260839124064 9.507205496186913 0.2054933632832461 -0.6384180275734102 -0.6710242436442057
Ni 1.115506900790487 0.5477741783559787 6.366525211935513 -1.0764440176458816 -0.08691177149189548 -1.0219086056021627
Ni 3.6705024620000537 0.34159808614120246 4.386107124253814 0.004541339513779275 0.8132245032957608 -0.6661229496878464
Ni 3.854185576957485 6.173759206040906 10.593333412592708 -0.03317622964165254 -1.7709388336082017 -0.6989363966734415
Ni 2.8003564469781255 5.554581146861276 12.320790127880809 -1.168646348112755 0.5329148662325726 0.33975688458622777
Ni 0.9651942915060262 4.232794076133908 11.457418541167035 4.464606482592595 0.07990628670833981 -0.9639140313652496
Ni 4.075364800986625 2.903618424774256 3.7075738214491194 0.972094767403829 -0.10304364405675157 0.3405765522740457
Ni 8.853460506348679 2.6934095552372135 2.7465473270129546 0.49603701936961675 -0.9809352485135946 -1.110677742017771
Ni 8.93779159036742 2.6181266695816126 9.92361014831859 -0.14103914946391838 -0.8714088249459766 -0.1973663633007375
Ni 3.5535697347599244 9.076702532077187 0.31649847764556444 -0.15454489725983708 -0.11842398316756379 -0.39502788924439064
Ni 5.516766241163301 4.180848978795257 6.685536557105763 0.34781215079053646 -1.4034284330577895 -0.6971944742816703
Ni 8.306546141246482 0.5601894316747708 4.977072619646031 1.5273106111264472 0.043633677529550656 -0.4344074194832776
Ni 4.098215017992815 6.601218600006926 7.896560552948387 0.504159391366435 1.6896516073919354 3.0195354342933545
Ni 0.8083604159401517 7.449048851190228 4.789969004416193 -1.01927219642058 0.4613268695819409 0.8553743971909334
Ni 3.125988447966214 2.1761807818632066 6.393917343228859 1.0486259669923488 0.1300782795770405 0.15874967936980403
P 7.819012335972025 8.803540705223954 9.322462851265714 -0.23117559854069863 2.5032993142680433 0.4188571304535044
P 0.2077081912951257 3.724444726438548 0.9559041827617779 4.740101214765643 -3.4994354388917928 -1.9877327095059316
P 3.4620938557642784 4.410298162364594 7.176953117760714 0.4835324591447027 -0.2881054789585232 2.3039154063166447
P 0.2420360244840309 2.4792344806145667 7.617978245811493 0.09977191528401527 -0.834855194191659 0.38655353322479236
P 5.515369161830547 2.0143352358050017 7.560326688862679 -2.152351703172319 -1.1808395477448372 -0.053388185813153216
P 0.18647446071153204 5.996948971290917 6.618608018332606 -1.5641033544747645 -0.413181677335282 -0.17945862978238125
P 1.4585226942814373 0.126572574636134 4.256079356771238 -0.6240453037915059 -0.13027496896887888 -0.8525842360403059
P 5.53484388514686 6.794118688011993 9.701169802341425 1.4979195595588397 1.259761616163037 -0.5695505151777353
Ni 6.2067265277453645 0.2905634344616821 3.948129316895285 -1.719887009237709 -1.0596619130915363 0.8397510888313796
Ni 3.9648736408713434 8.14997949226439 11.22220195157369 0.5030062515985982 2.417224951075779 1.5559593852113913
Ni 8.224502891839768 6.999226811528778 13.112376215456548 -0.6533566511611135 -1.331205116816004 -2.3524678613040515
Ni 8.582652148706996 8.773892618981208 11.626392942370831 -0.262321942236516 -0.20985369713447086 1.4103572989671387
Ni 7.263471709217923 9.104315945734646 13.697920292927968 -0.39830244623060435 0.7871542885712701 -1.8673366902136614
Ni 0.6349453652598964 5.550746210974722 13.293235167360116 0.21716128653947764 0.36201338199158295 1.7162015899663217
Ni 2.0764161905846423 2.3407736047301158 2.7214608454372216 -1.2058556101732005 -0.7144645742160276 1.119975622379929
Ni 2.4322963655825656 5.306172940400468 9.184392970067009 -1.3052482877409262 -0.4445470790204409 -1.5347192448856923
Ni 8.370821166924541 5.057389679085229 1.4780508629145073 -2.1662564861788693 3.020766992707611 0.7935812751435366
Ni 1.859643861095063 1.2720172915444148 8.369463468351501 1.2467268944662657 -0.7251580493741318 1.2170555926540783
Ni 2.1879106224355263 4.633418295265414 2.1364380942134584 -0.4943748011758454 1.3721874727656367 1.1817630880003713
Ni 6.940887028922084 2.0626047955702322 13.46135913168149 0.6056475180106086 0.6401758908047813 -0.09361592298494845
Ni 7.4095649513900375 0.3734439938309126 7.203973944748173 -0.5490156284491771 0.3806356250784606 0.9031676054148123
Ni 4.768850603200336 5.552752754445927 13.475781866108623 1.0975203787002068 0.8028506162606044 -1.1445332571146354
Ni 3.509950855189635 7.304558968520805 1.6277033756551702 -0.4039750711353495 -2.6423677131588366 1.2956308192558204
Ni 6.972344754837458 5.336927438463784 7.983922080190927 -0.33765989284788295 1.207737914797578 2.2321330342670205
Ni 4.859707641686171 1.6060036394149464 0.5518688397292258 0.7985478751201925 0.6770758491549242 -0.37696023310940235
Ni 5.070638491817992 8.133880262637952 5.842131953204744 -1.8119294170879503 0.7525205005474846 0.2672294068404623
Ni 7.0054714748550495 2.467804683925791 5.893457272396448 -0.3489568059179409 -0.0720559374259856 -0.18384647443743174
Ni 4.451282281582508 9.1819523006018 8.908980814087188 -0.14941528934275558 -0.2666118278611215 -0.5502788114323167
Ni 8.454833454317017 5.000793901551638 11.152528948903235 -1.8286968663542762 0.7747736555187302 1.0773950687052412
Ni 0.12376528905072026 4.272512385218119 4.235054719268989 0.18704518388038754 1.58702859581237 0.23003197185455868
Ni 5.477948063729725 6.712319224260659 3.9845368292520082 0.02110927117478945 1.1074198972021057 0.6297050731804446
Ni 8.82293104119802 2.8282042699196044 12.254589195525247 -2.4047126775413816 -0.23286404198671506 2.1913185713538197
P 5.960165466442627 7.394253336957904 0.04302254235174473 0.04168323867139918 -0.8378255896738925 -0.5669130775548882
P 5.680524566979102 0.8605774280482649 12.132562285724813 -0.17831268910339615 -0.010149172618859939 -0.013910439433505074
P 7.10764579357333 2.212664242827952 3.860039245598012 -0.4496203797782902 0.8299179047910418 -1.6504021749730093
P 6.872205108704463 3.9691867716972964 10.073605836251057 0.5564741416097513 -0.8439550996103982 -1.2704031550372832
P 7.348534150202803 4.189034550993208 12.920058400112987 -1.381685384953743 1.2163187144880536 1.1777192569483006
P 1.6628525789752786 7.408871099909341 0.48840862072241664 -0.45461011968339765 0.07695980248550617 -0.11259734918345769
P 7.803907001709828 5.874165388321669 3.5472453722770867 0.8104428267855656 -1.657443912311139 0.043094517196629004
P 7.12280738606369 8.15390819186455 5.586577076492758 0.4474591104609133 0.2628582743559602 0.203095809585347
Ni 0.19526293358797922 0.017230020012546008 1.9456026831820334 0.9210102900231881 0.402382529837249 0.9066753614577546
Ni 2.0828952631949327 3.104657203120468 9.660316014685428 -0.9497899332590417 0.45240668427417574 0.07923779988640547
Ni 7.914745087565459 6.813040205418021 9.870899001439764 0.02338444036221134 -0.27899580334777113 -0.08823511828900933
Ni 8.146500858489544 7.610819386277547 1.420893440736406 -0.4983718381503804 -1.1742184428838938 0.17668389525072153
Ni 8.467754094052154 4.146465825015324 6.990618364982457 3.36119184989514 0.011379188371219111 -3.8541119209023305
Ni 2.094128156085132 6.724030312090258 6.714753330265914 0.2630809318897276 1.307035461548336 0.2873511172910019
Ni 6.392978768455646 8.21476084199593 11.467725048566791 -1.1266643472540145 -0.07676028488019038 -0.14340327882072076
Ni 1.6032188571207986 8.912128461953 12.281967262261551 -0.26570242867297467 -0.6391932151765379 1.564692651319331
Ni 6.60431280255598 1.2170154971421536 10.092420463023572 0.1406318867231707 -0.35350483029993957 -0.15921427771104837
Ni 5.8840949655927215 4.3560652304139165 4.143411003225985 0.6281966069557181 -0.7773840965583838 1.308225110981063
Ni 0.7688540128486948 6.726777588898962 2.5979515313246497 0.3344460138962756 -0.07891204111587055 -1.218983148694094
Ni 7.205985176405058 0.7480169027736615 1.902195709604497 0.31815961803142623 1.4455256193381558 1.2131799117487558
Ni 5.308020085558539 3.1852846204517062 11.359366075298947 1.781284952729216 -0.6451846568732823 1.1417526090457046
Ni 2.569238269306572 3.828391179344014 13.775964519949317 0.022470156078058075 -1.5612656279156532 -0.546898067885542
Ni 6.238081113575769 5.527680337427235 2.1566666777871775 -1.3191268454952316 2.038254372404567 -1.8658449361594833
Ni 6.353504245026815 3.3103279089188984 1.9496645272555178 -0.2051141255669564 -1.785907281992576 -0.24444814727988867
Ni 6.167945855797231 5.578134591719524 11.472775162181701 -0.34157568296252144 0.3469086651396606 0.5670853414666943
Ni 1.7156134206223161 4.180305149256333 6.149300003709208 -2.6221200186533937 -0.0004717974300959616 1.0903554855206512
Ni -0.10152828673152452 4.697458911659454 9.009668040307654 1.2652866597463241 1.4947406476102256 0.07232076105159803
Ni 6.293036026121227 7.556117635758831 7.846648252920749 1.116765600083064 0.9724500938607188 -0.23622910180420603
Ni 8.967946000663646 7.893704510231896 7.802500546005714 1.1443797622559064 -0.8158061479800078 -0.8533923337638981
Ni 7.277967579341668 2.848475984801583 8.151318438094707 0.03290832069224656 -1.1442802605635647 2.7142758121530477
Ni 7.4081960011713655 5.680299534066443 5.680705530946366 -0.22724926690309896 1.4331303309975965 -0.8487990579662607
Ni 3.478399365560653 1.4413264292057901 12.314875512826438 1.1500706419930968 -0.6026917778163943 -0.14384422301288127
P 2.6754725568240656 0.2805569709454712 10.561056191820402 -0.31261194874031967 1.2591154979386057 -1.844147910802024
P 4.274209508434417 4.889365104300278 1.5789303047478669 -1.3173278446132797 -1.11113539838048 1.465167047718167
P 2.7767842493771564 8.877173349520058 7.3207594629579384 1.179681265770678 -0.3032449057031229 -1.0066941026452534
P 9.361903619757646 0.951336014634812 13.680903116545313 -1.3996255143719314 -0.40521280019719247 -1.5489919527546225
P 0.9788462882073033 6.473090485362042 10.506465082483743 -0.4492390851794715 -0.9336534327084952 -0.20717692163325607
P 2.4882357971209035 4.290346243546298 4.257973383786113 0.11403742406409394 -0.4792927100317423 -1.3041990205408056
P 3.274341395636274 3.366811169996161 11.414890133586002 -2.334884858114966 1.795766948395475 0.46252320388288737
P 3.964995533699033 1.1083808585563037 2.284525690574009 -0.9892108582588253 -0.7783837414674917 1.4505726948437598
