# total energy = -340897.12297035917 ev
CRYSTAL
PRIMVEC
9.00305820629641 0.00000000000000 0.00000000000000
0.00000000000000 9.00305820629641 0.00000000000000
0.00000000000000 0.00000000000000 13.17688572799196
PRIMCOORD
 96 1
Ni 6.46714865231249 1.958804333719806 11.419747967972663 -0.8981279861083757 -0.694992581534345 -0.30641584723193677
Ni 4.584366140406851 0.24049598763326482 5.957243356255317 -0.0203695647952875 0.05698464491515993 -0.24184619088066733
Ni 2.7757868325978907 1.5176094760690202 4.856446656141544 0.07070559404567824 0.42227566921675014 -0.8006196700475567
Ni 3.4481081954136794 4.225468236001364 4.851359928367384 -0.4888723833003774 0.5380023080578089 -0.006162677167286161
Ni 4.955139078324049 4.554070850212077 2.63145070692966 0.31152154388961834 -0.025583762006375292 -0.07384413967465991
Ni 7.145538076225241 6.17863665540856 2.544588302968829 0.44202894058427744 -1.479765000137 -0.2416181340302613
Ni 5.0207713711977195 4.272914351700162 11.578199988290637 0.20085972116597667 0.6648659373522936 -0.34785817353712345
Ni 5.592591597477324 7.868267560824251 12.318582669030482 -0.35125588636476285 0.1738651948550038 -0.10350927083926045
Ni 1.8539997354561024 6.4375285914682685 0.36847445720791877 0.10851957956965826 -0.040006879410240774 -0.3280686496150221
Ni 2.741908325316187 1.561517389970926 0.4182505643190231 0.5606652968729634 -0.7664332539738349 0.08171840021641409
Ni 0.6046912913702844 9.122708648280065 4.935309843062834 -1.1037241935180735 -0.058149354647222436 -0.4634251468718665
Ni 8.46051572572256 2.4286289158340035 1.492743029852686 0.22549474610583745 0.09837992003249509 -0.1078806604340787
Ni 6.9187690511358015 0.7465767846489109 4.915676874466179 -0.5888615568015214 -0.5916545461656262 -1.2319703049823814
Ni 0.9255863876208953 7.438785681641043 2.436603824616925 -0.5444020409365656 -0.2231660979726608 0.20773742212241642
Ni 7.485826659729511 3.9540890584854433 3.765558721670674 0.29731928424730736 -0.42775083339870845 -0.47435644907238944
Ni 7.537360163763653 3.7594969627143167 12.406525439952198 1.3472562567415958 1.0159284767593277 1.6688241291236228
Ni 7.980742764510227 8.62922402972252 7.055761382387427 -1.193993311517976 0.1748661253156924 -0.5304219246073897
Ni 6.6882187416832695 0.6975254237073992 0.378757750063928 0.43745829049445945 -0.17614756313127727 0.3885888184872663
Ni 1.921495661337297 6.1336843867778015 9.22110577015993 0.24411518942050217 1.252597751424746 -0.5015888024257813
Ni 0.021815309857639402 4.886724840526103 1.2829330651317146 -0.21164292782440972 -0.42380419004613457 0.6579527551722282
Ni 6.50380910451847 1.818491674675066 6.912593853648552 -0.7976780709207294 0.7304095275810581 0.7491356432356518
Ni 3.327233138606834 4.3403022408852685 0.5609121211978841 0.5660561288712316 -0.023292137758721174 -0.9811977581463618
Ni 5.988717146743254 5.5429847478567575 4.802526441429651 -0.7331372109248664 0.8668273762228814 -0.09902423848471333
Ni 5.389977777021637 2.78319634933795 9.305951489127112 0.031115747568198023 0.02403724345486183 -0.25942045231900485
P 0.12229303844300475 5.610102545301644 12.420834900349098 0.20731833230712682 -0.4674720632477304 -0.2850564077195542
P 4.0116906236165475 6.106909292263905 12.441127793097692 -0.06850987194594008 -0.1894900458764543 0.7787197846506717
P 2.3542906658672136 8.443283872696469 1.0929253264979362 1.630101001521812 -0.004741885560359576 1.8770184362777995
P 6.296540703072977 7.845246741499426 5.75998545500821 0.2965145289578248 -1.722426487830111 1.1020743166194762
P 4.6845251607387555 0.9625619468571319 12.468732969559868 0.5174715350943088 -0.029705240373916586 0.34318082266611216
P 3.9315994195830526 6.1517895364306066 8.251681692489587 0.3267712709598372 -0.3528749100254245 0.06566957428366754
P 4.707059814931183 1.062729970247044 3.81767292294629 -0.334420817085295 -0.933326902607012 -0.36503082866166814
P 0.05805621956047529 5.562827487704985 3.5095450632559198 0.6977691158382177 0.15659509492064644 -0.8722128089045107
Ni 1.3829057221628667 1.0487752303356326 2.687557764431542 0.32235051618432226 0.0921110563046478 -0.4024784319851649
Ni 1.680600838234306 6.5948750362629385 4.592856024107794 0.8715060126454733 -0.2602174942990035 0.7708727778024272
Ni 6.1383299647096 5.7669808310799295 9.086754035821864 -0.9271171742518742 0.0925496865039632 0.6891584913510712
Ni 8.463603774619086 2.4407650380279278 10.151314327761805 1.0515999620190084 -0.05578779639358134 -0.040187627962479176
Ni 2.3036844768078306 5.162524519523638 6.967607939908339 0.20665473058119893 0.10375892495622131 -0.45387889794432806
Ni 0.5438099122070988 9.046092624637414 8.987703291930666 0.7505790605503977 0.0015051237906167627 0.7255593985776085
Ni 1.4191430306424997 1.0799438171571207 11.435915659542284 -0.6249300203893043 -0.005372577165823005 -0.773785580573848
Ni 4.009844996725038 6.799478532538252 1.5502077485020775 0.36567771821704764 -0.20878848909475012 -0.2578726482159107
Ni 5.4147631957159055 7.950942642505858 8.102216524674562 0.5281819795332775 0.1676446678665887 -0.18146948956482295
Ni 5.261945289098939 2.8572104892164747 4.866091632184831 0.15663623257122702 -0.07299079053542915 0.3449415141109608
Ni 0.902340491845886 7.450219565310393 6.9266278204704275 0.18339036073661963 -1.1107733870553707 0.11147814797734994
Ni 5.078462966908897 4.606882788483264 7.007955144368333 0.2285484453304967 0.08359427708288829 0.512759217220304
Ni 8.41665282711069 7.009609906430086 9.188413865923597 -0.7262777648008717 0.601535295614448 -0.4002307736015688
Ni 4.614931522341846 0.4870393293300749 10.288565046778242 1.3760256155648043 -1.5054955721338847 0.45885038301699044
Ni 8.114438175919556 7.192633072661753 4.65008306202579 -0.17568347901066517 0.3316216570736031 0.2811606722095738
Ni 7.260831237067522 6.043311690499899 7.0011029169189305 0.2709431082466237 0.6027799666548264 -0.8409965312027065
Ni 2.3893845859799114 5.015927725989759 2.5907865948278075 -1.284659150735665 0.5472456810329479 0.4014883001577537
Ni 2.30027231782304 5.194746464131987 11.432226206370867 -0.2929684634777793 -0.7559549801503304 -0.07092722313818109
Ni 0.8903664246960943 3.3105864843512216 3.7912930626789176 0.4066101947653514 -0.11547672761378176 -0.5871718278039242
Ni 3.5229146043968522 2.611300962803383 2.621949779814491 0.4178741977149448 -0.10020051818100163 0.2372763121217978
Ni 1.080727083203761 3.2937777750514763 8.223957675661715 -0.3306706060142434 0.002726140681911434 -0.08019450737271994
Ni 3.515334029554653 2.915127161377836 7.086713895816738 0.4745747357307827 -1.0154677350728254 0.41962409052651606
Ni 4.168947037831143 6.7349626188574945 6.0895261878632905 -0.2543975451831167 0.5332884475219073 -0.6797292276173713
Ni 0.8745588554467677 7.227781011122495 11.24145140719486 0.09050154572568285 0.36710185225808395 -0.22977871819317203
P 0.2674052277114698 5.427817629826581 7.780225756264455 -0.312122667808727 0.5665017010490825 0.8737421010648436
P 8.529110024680653 1.5946576464960263 7.901361001447714 0.5099052927112767 1.064397885114625 -0.0059940127999058065
P 1.7386435532077704 3.165511207620587 10.38404427755792 -0.8606595568492725 0.568462167209563 -0.8705727021979264
P 3.8259665399826717 6.076253879748838 3.8438952296985334 0.8568923764973564 1.0788045474582582 -0.22765755808511115
P 6.869702384995677 4.181155184489127 10.430295687459141 -0.3187381162427156 -0.846769943351374 -1.3095178616505576
P 6.465555111045187 7.823333298309506 10.156440668991197 -0.31122432436417363 0.13087557866735525 -0.4803273219438437
P 2.4362184937342097 8.438827358982824 5.683862798944361 0.8044809527751757 -0.05979434644981314 0.33282004825707845
P 6.730290031751673 3.9326617804279214 1.5028102493165183 0.41812976536917673 0.2835119460505698 0.010345090679749926
Ni 5.165306464447913 2.7444111754422336 0.40558146109106297 -0.05014319651329429 0.2995186058914713 0.5373482194135778
Ni 1.6815101470930496 1.1632311067832286 7.0148469852729685 -0.9986033552173188 0.49391483082029125 -0.12225312710566688
Ni 6.971752047509128 0.7683227709598935 9.104055212394613 -0.9596136042176828 -0.7554960382360408 0.7694363024662169
Ni 2.9695956623223774 1.5903361786524923 9.20462117094845 -2.0359072123286293 0.501444306428117 -0.6543951197279568
Ni 6.291958146547229 2.0534174703191757 2.740634392608145 0.3817298865839039 -0.4233023107090516 -0.9731422348317369
Ni 4.226593618252283 6.896045332725219 10.412348091321466 -0.15456263787164995 0.018642811912167892 -0.856931200155092
Ni 8.11517642667616 7.368255725211367 0.3873385646507449 -0.320128568832339 -1.076338859526585 -0.4992940928543337
Ni 7.380238795419167 3.8483841544210042 8.185375970876965 0.8687132803916846 -0.42210983306284716 -0.326854831812579
Ni 3.050290071242365 8.36911668083182 12.129019681462267 0.7621917050886615 -0.5936142409951584 1.3383401851988888
Ni -0.02083127561743471 4.868178541030938 9.981174537538674 0.32276086424886347 -0.6946580810130617 1.0675834819314582
Ni 8.610848788329493 2.3517968187991745 5.78444226208521 0.7365629487769637 0.41363316305040376 0.016596213795784322
Ni 3.499353601591585 2.5226928658949244 11.368621402160453 0.6861166192009539 0.07172272245628293 0.782609092402749
Ni 1.2774168914906037 3.1542033667633396 12.58451859767515 -1.4928220904312743 1.421082912914759 0.31460918167600654
Ni 2.9651031363767038 8.338524289722802 7.898501630224575 0.5215703877540309 -0.4746631816795309 0.8541567227337483
Ni 5.670044905514661 7.761158179710662 3.563227597236418 -1.0927178151052406 0.6788018307070955 0.7490754794216777
Ni 3.1376107308557715 8.244595385531992 3.4649015995148122 -0.11260583382388993 0.11135164970181467 0.732834592082783
Ni 3.541469906950026 4.228556284897889 9.445468277844002 -0.323287683286611 0.44203408279059997 -0.6016209133497187
Ni 7.221983041765754 6.19618361546491 11.421237073767081 0.6835362600682873 -0.3659535975862537 -0.6384062004988683
Ni 0.5307527771790214 0.15310780508480343 0.5126800385350425 -1.1026556430442427 0.8055428183807868 -0.6426688324299641
Ni 4.486520905982839 0.25873258193297777 1.725408157631147 0.3414931505510441 0.38336279420163655 -0.7875222134336501
Ni 6.048299384635977 5.627478447255853 0.20577119289886875 -0.6134073644616855 0.21345658399438075 1.386217982716774
Ni 8.171211459713982 8.812508284636401 11.237682727112979 -0.8134227353494959 0.6322160125277564 0.3638859164239475
Ni 0.10696893340867351 4.887787201370973 5.578789909552038 -0.4093543331693918 -0.44062331848600245 0.890380480952473
Ni 7.8536105823882645 8.716004505855485 2.4476982929993976 0.10099601749910349 0.5828534029342285 0.5803671461772649
P 8.425619872886024 1.54116147581628 3.590385321715626 -0.03659219730173698 0.31951484650774004 0.02695750242545035
P 1.6777828810780016 3.134972834859614 1.5983299938572293 -0.05970410072885202 -0.12738607745685804 0.23964738345713568
P 4.682283399294922 1.104954312301573 8.008555011306571 0.6579067324256411 0.10738366619300216 0.10120813350990955
P 8.471616496245638 1.7181165809509844 12.49158183047675 -0.4019613831394303 -0.7962585648653835 -0.7427881037510691
P 6.150610135831642 7.672793165368402 1.3923220205327669 -0.013283861593099702 0.6587834786036396 -0.8290997797651205
P 1.7911133752746773 3.2599802952918386 5.8640040863078715 -0.8685435875830396 -0.4617855543859144 0.23378115448434578
P 6.855639608388178 3.8840092549561365 5.932576777926746 0.7839530080251531 0.17236547038102573 0.48376591531174745
P 2.3640049654571573 8.550942440348507 10.146965850744248 -0.043893358948840534 -0.34721334086427297 -1.3702213501782015
