# total energy = -381173.372167433 ev
CRYSTAL
PRIMVEC
9.25388246479014 0.00000000000000 0.00000000000000

0.00000000000000 9.25388246479014 0.00000000000000

0.00000000000000 0.00000000000000 13.54399238399298

PRIMCOORD
 96 1
Ni 1.163564637947745 5.854487070948454 4.430077703574316 0.6210234862460465 -0.1869348835547684 0.9413256045417723
Ni 5.762873637335046 1.9512180738506564 2.584735146557773 1.1058834059529212 0.2617976943019298 0.2555900228293211
Ni 5.975287248967589 4.013149594140788 -0.07186194748164444 0.3124137166865846 0.25647756764059704 -0.5497558490493113
Ni 7.8754516548136815 8.875379894116387 5.539695909947039 -2.468571938089187 1.6312158318525456 -0.21627348461788556
Ni 0.7079090315776405 2.4052042798749165 2.261806121564475 0.39468721807552026 -1.267585997303462 -1.0629362129674338
Ni 6.633617681360664 6.500889249207421 12.41454471744686 0.08012534469768136 0.42587958451792457 -0.8817801408779717
Ni 3.7911859760952127 8.491806477623888 10.63535168644029 -1.7540549133686694 -0.6453134691416629 -0.07575472643381147
Ni 8.800886142541849 4.267353737712537 5.366156931977787 -1.0421053922650116 0.5503004086988715 0.7944114843543156
Ni 8.199531862750566 2.681876849387408 3.7471217653036 -1.1355076565772573 -0.6350275138346225 0.1263715201494146
Ni 4.544664825095668 2.808090548483698 7.827275944168085 0.7276389068144565 -0.7122876211693668 -0.9119219545686746
Ni 3.37531651078344 5.9016818700826335 9.988639503128189 -0.6489325539514887 1.6827880475028825 -0.6274862111522548
Ni 4.720460824929395 9.055589995751488 1.0234423539301467 -0.1096611493732692 -0.5478853714994758 0.3623357983280083
Ni 7.784504500717462 3.1843811596980416 1.3857401698953153 -0.12325971399331032 0.56137415001453 0.6430814944873505
Ni 8.988258748986725 0.7105704480935209 0.8217354839835357 0.3285049658214923 -0.45766381890805696 0.5309896241854016
Ni 1.702140581008385 4.972471798423733 11.770663296694591 0.4562743947596981 -1.3830557829387085 0.25493182042003193
Ni 6.146252722301701 7.275365156881494 3.3684991757790965 -0.34361919575511146 -0.9599789579769016 0.25030177784718827
Ni 4.104568696228349 1.3944397445357157 10.160079700618297 0.9444775199071928 1.5828436111967448 -0.288387014754684
Ni 3.1284692035473136 2.2666551558284573 5.4188559402345176 0.23901129253503353 -1.367729179883967 1.0673708517000198
Ni 6.612944508563457 3.1964944914758147 9.038785871095065 -1.1550285002190042 -0.9670258375213538 -0.21347303905461298
Ni 5.15657778445795 0.050623362483045206 4.028430529789861 -0.17443520842586088 0.0762928583254686 -0.2495016505433961
Ni 0.6400938067746974 8.320100693715121 5.211186793997287 2.2911334240606287 -0.9812358104731488 0.10566051285430836
Ni 2.138211271126023 1.3425439732524846 0.7274976493829801 0.43585829299719125 0.1175822039925588 -0.7434727885229195
Ni 1.2062342886943533 3.0226880763114683 6.828311959388867 1.4073465371652731 1.2892768520133344 -0.5759646462341952
Ni 5.2746017978221325 6.307945805688274 0.7611873328590378 -1.3072519484345164 1.5885337196029867 -0.4200264681712572
P 3.7405950021998082 4.716675987116478 0.24950039525804224 0.6456484838835783 -0.412354039227664 0.46474823655866415
Ni 8.435450335128365 5.556049370541141 9.256424224608228 -0.028675513557821584 1.1173888354893595 -1.3920978385363187
P 7.1084991533545265 5.54939582925144 1.4282682362445214 0.5148379541262036 -1.4631322766763253 0.6696592449758789
Ni 2.376850384865676 8.346677843345192 0.14899583164304225 0.6169662854575375 0.3365463480687301 0.6842839368675893
P 5.458060012103528 0.2868925569955874 8.789427985622645 1.5656575863357616 0.3175574656710531 0.1724264055259482
P 5.249644077574116 7.0862158050574475 10.674656625625097 1.701408490817547 -2.140068772039908 0.20956059137408428
P 6.723037944896659 1.3838810649647162 4.603873939468261 0.3496985691799719 0.49390480351796223 0.5429984757208197
Ni 1.4793441135663237 0.92352448644556 4.077879574623862 -0.22918402203196656 -0.6369095613486838 0.043948894777124305
Ni 1.2972277122014886 0.6506561878985706 7.242500919696175 -0.7477354204540154 -0.7566934009782517 -0.5809780402883865
Ni 8.598124330026355 8.017193368213334 7.672644498275491 2.053618513565463 -1.3101151289149242 -0.43309872797418314
Ni 0.02139867716036811 4.500338729438272 2.662667640751579 0.48747370318063793 1.7831793415384514 1.3449355790282194
Ni 3.494969207411861 0.23680777045560283 8.004133364288224 0.9860620282171985 0.542769133318833 -0.45452553038939136
Ni 6.9372745713192865 1.6668647821261315 0.04539214288489779 -1.0730172513525198 -1.3121144187331404 -0.4688864270967538
Ni 1.3134775293151397 3.220045621631989 4.29377079518084 0.3374652603385736 0.8910672226068524 1.071136232279723
Ni 1.8183138179359326 3.723678905568969 0.5004425453602228 0.06938636101362244 -1.1922202787779532 -0.4958575563689589
Ni 5.7671211692571225 0.9469312560396765 6.6129759717628795 -1.71446635244277 -0.6375762483984052 -1.044857243978536
Ni 3.535778827839651 8.985991547851848 5.573392996528843 -1.4285213714706753 -0.7701374422982994 0.6112134421341602
Ni 5.789163916617439 7.70524499981859 6.0119474286244445 1.1632568016660676 1.0074986008244198 -1.3561831269175806
Ni 0.8843620570463739 5.499415611580125 7.0108438600637255 -0.29213696871541944 0.28233695190586217 0.6132533553823244
Ni 6.803352388364414 8.134273485594834 0.6646064152897031 0.945975701719274 0.502725744243702 -0.38769484591808717
Ni 4.834061482610021 3.383099025699488 4.316673228195973 0.8826728278955702 0.27420635237892776 -0.005283874106758642
Ni 0.9012929598887064 0.2617775207504572 12.123524928997579 -0.6817940805662001 0.8913153340619167 0.2492036596870031
Ni 1.3580997492023974 4.21751232827397 9.394776240964184 -1.651152937096105 0.9809452758159235 0.9877656411718666
Ni 5.780520790658356 5.3626617406772015 5.828169030019512 0.8833662544181691 0.5748428739249262 0.22943187637671453
Ni 4.302805360356271 7.004059839035243 7.391037758782932 -0.7858155151551885 0.3551037993559433 0.031855968168332235
Ni 1.5074666615209849 0.09491706955280044 9.722771766452768 -0.4783899957118148 0.22773597673153037 -0.16072377237703933
Ni 3.325539878520155 2.0565550147417087 2.9650502711335784 0.5516654073671983 -2.3083371895334244 0.01478281473612938
Ni 9.081251011045426 7.53340966155926 -0.2197806272385654 0.36494778202955863 -0.3778680896356525 0.9858457984413342
Ni 9.108198315962825 2.7798199384141062 12.747253245131336 0.6226983028453081 -0.3918417782069252 1.230377506573965
Ni 4.250261817320218 3.8944963167881506 10.149109223290147 0.2569740476610413 -1.7774203275674874 -0.03838914130115969
Ni 7.63833017775207 0.8443066280165117 7.87323072308972 0.24181508053241577 0.1363512570699458 0.37054970159736833
Ni 7.508026262730818 0.8817867016347971 10.220797197786748 -0.8784816726323581 0.665748339957247 0.5683081581302019
P 3.083606382723293 0.9702695469056376 12.072410185370607 0.7141688973524797 -1.1918495257020956 1.8211398799426248
Ni 3.8853812428377252 5.691072765475811 4.036001130803915 0.13976105408244316 1.2007388577719258 -0.7490528537138583
P 7.578846223078637 5.822357592008479 7.099150881573086 0.25023081539993675 0.21265208581521441 0.1580030310117666
Ni 2.0793380726766797 6.043821500416164 0.5184663316883878 -1.0352865695709654 0.11301283945432149 -0.680236506271093
P 1.140550232958195 6.437241047551559 9.867136955451352 -0.1133105732003984 0.5047782558973565 -0.8147753927226483
P 2.5028327369073864 6.590892507320956 6.119270252632006 0.43436756738427773 0.9593387532897414 -1.0632028363652593
P 2.9873289924895663 4.3143634592030535 8.189401637924647 1.9443612844988318 0.8845864999785154 -1.3525043925144127
Ni 2.252570747145669 7.5974742879133625 8.183022936935785 -2.2692301962296337 -0.8861769843940867 0.45039839559489525
Ni 8.17338039170092 6.607410687017919 5.06441004330177 -0.625387162531381 -0.5207818304144644 0.24215112371559586
Ni 2.769566636955151 4.014713500229744 2.603601961552825 -1.7174120653346552 3.0433950145197715 -0.29199967180660674
Ni 8.387802095767212 6.960390769012852 2.3819409454546387 0.6750169097433665 -0.3019462414963574 0.4146644325283955
Ni 4.48087781520706 2.0969297027068907 0.7287774612889127 -0.3969590448288325 0.45805951168457887 -0.6774463451204655
Ni 5.142891292709038 5.135312363201019 8.327631503035786 0.677457400864059 -0.3573434873197394 -0.4309024916538128
Ni 8.61441116266874 2.967109259919334 10.51532513297167 0.5895092176878493 0.46983979214895855 -1.0350202032834563
Ni 8.81591444720732 6.035576291390957 11.461752052432365 0.6243368668899957 -0.15270990093362732 1.0632712277093495
Ni 1.829483253731022 6.921098785263101 2.51027100740622 -0.19297054822588702 0.7025580525864288 0.7449881967261814
Ni 8.191212622667894 8.03689488338131 10.402205677164568 0.7047756290630378 -0.8041140563540603 0.19477854796890326
Ni 6.232656220245982 2.608641625789781 11.349336817059402 -0.36722835053361913 0.6166564675266025 0.7769495801241265
Ni 1.8794449636379702 2.2984700027742044 11.027491421669753 -1.4694877865807079 1.0646246564134505 -0.5445714766348944
Ni 6.570302619463397 7.6139184365528605 8.51804678594249 -1.6525603589665925 -0.56268181308236 1.070916660069749
Ni 3.635165522486924 4.5657451687089345 5.968119191828503 -1.525539378158637 -0.35256149255006375 2.2926503749257874
Ni 4.943155499667442 4.491279178780945 2.143594254391975 0.9220263899925283 -1.1015328422937094 0.4573663422722962
Ni 7.3130192034848225 0.030310165702763237 2.7004281070000142 0.5725797889223624 0.7047661159813411 0.4739193615349709
Ni 8.767683213268626 1.8699412266358522 6.031180697353951 -0.9514277259727808 -0.5006637195083506 -1.3724569243769396
Ni 6.41997330339776 5.021665436109478 10.446927838979404 -0.6511347038091302 1.0067028443960016 0.231190253828718
Ni 3.036744723347707 8.998345480566384 2.675114112287946 -0.5547062510760511 0.1047624265200712 0.2622586930987483
Ni 6.806295122898663 4.899532699055967 3.774507704236481 0.7213602728945964 -0.2995026650518713 -1.200953544885893
Ni 8.496387149304557 3.6742169052999123 7.9096234655514825 -0.1455547779460848 0.06158203447785523 -1.2939662870692037
Ni 1.6001350377032746 7.317053896116686 11.778207986838531 -0.2738607961140509 0.38843866606264715 -1.2436991633835355
Ni 3.6688681613980383 3.2181670835488045 12.299407915323828 0.44300878799904353 -0.2547179046370129 -0.3230334011839598
Ni 2.4284870474477787 2.3100651171497195 8.615170906395978 -0.4711094028900016 -1.762019933852017 1.1539812899014126
Ni 9.126187862926912 5.021776482695676 0.4757383814840254 -1.2880854028083946 0.8686855124775427 -1.5218462455777662
P 0.06949295364275228 1.8654345860126471 8.797567700390964 1.2242279420328013 -1.0107538745369238 -0.19004591837992432
Ni 6.501731352486089 3.177477763589395 6.298619743224072 0.35628033616254773 -0.15990230491700846 -0.2491931181640418
P 0.24476333296847622 8.784682594839113 2.7116021697361945 1.157599346269974 0.5710589814024617 0.49830344680629013
Ni 3.6457704714688397 6.490432362340436 12.431217436976285 1.887534248207459 0.0353323567527069 -0.820512809427058
P 4.14791388037433 7.168306993904371 2.408297852688751 -0.3952698300518676 0.6879094494353185 0.44056855398866707
P 7.905499010262443 9.107652336914017 12.509894868685834 -1.006047727310506 0.7124853390024697 -0.9600512059757337
P 7.774195675965408 4.325218263003915 11.990901991101223 -1.1109770184257446 -0.763940312348652 1.311308120781761
Ni 5.368574971392249 0.4187187356359714 12.255998879390784 -0.1592307327712806 -0.19583887091261756 -0.03668218591238199
