# total energy = -340894.795130757 ev
CRYSTAL
PRIMVEC
8.99599956882245 0.00000000000000 0.00000000000000

0.00000000000000 8.99599956882245 0.00000000000000

0.00000000000000 0.00000000000000 13.16655469854617

PRIMCOORD
 96 1
Ni 6.343609879259596 1.9259984728268138 11.237482983299332 0.15336861756354878 0.07776250089245963 -0.11177562461311072
Ni 4.724294018997947 0.30466480991935285 6.012401473768544 -0.8624505873114244 0.9597100205862309 -0.5533445948418342
Ni 2.493412133468484 1.6443427303492466 4.752599031235048 1.2362293373690516 -0.186524278379911 0.8576235982364261
Ni 3.536822109737387 4.347397631798095 4.970967018948683 -0.05546229473336255 -0.25733580187583427 -0.7595804927180596
Ni 5.027360239839454 4.305557238995285 2.5614344826706263 -0.33141674015164857 0.1760784004562387 -0.14156571139134974
Ni 7.060096244510029 6.052211469526505 2.6350487450454687 0.3622823193822535 -0.9009595420199 -0.5950602294130655
Ni 4.991673110566449 4.510477107336546 11.554770979454098 0.41537045745648465 -0.2933531005107077 -0.30002537032456067
Ni 5.357936226578831 7.776915461735028 12.388437432550333 -0.6150323016596182 0.4576172819408376 0.01185150002194733
Ni 1.7510082941985077 6.517133709999951 0.3155958486840688 1.0964765108167245 0.1805392644410697 0.7819681163846404
Ni 2.8726294884909813 1.6191719242726479 0.5021854688260156 -0.13488804226085802 -0.8015424389721422 -0.4166935471432824
Ni 0.6984223986307729 0.047560948765679165 4.801987067461113 -0.7042511240181355 -0.7923759419815256 -0.4600351473537109
Ni 8.581580612247372 2.2131957508809297 1.2446909628882241 0.012551097192133223 0.3597690660420965 0.6041138549749016
Ni 6.8941920251874285 0.7527888208764189 4.6598808647200105 0.16933928196019224 -0.8463691083685294 1.2408339260205985
Ni 0.9049975308455472 7.4543549103831594 2.528254538406038 -0.3989472789034548 -0.8475849830535015 0.8165170580041035
Ni 7.547121655294484 3.615051319759583 3.7846465976001347 1.0007186017881087 0.7837666030459599 0.11421868683696458
Ni 7.550774031015392 3.825701639662956 12.642828100311334 0.43519366282999894 -0.22407164050606573 -0.7143344763960665
Ni 7.899998724329747 8.775147529456154 7.022170910608054 -0.3276207634443261 0.470398492865906 -1.166982587257087
Ni 6.700966955952523 0.7569296793599994 0.29196875608950873 1.0525384146728776 -1.4822867381175893 0.015599654210469908
Ni 1.733996859498419 6.357463718200968 9.078589783068928 0.7979500936351935 -0.49179109960906914 -0.06526102599133922
Ni 8.963748655044395 4.798816877303359 1.4315864470067985 0.41410830291460937 -0.6883010284467823 -0.6367126148465292
Ni 6.428154280799222 2.01699300587356 6.956707023610409 0.7829502777922517 -0.3727436239248935 0.5354880262763875
Ni 3.585346530029444 4.218970745611703 0.48043943968771585 -0.4319072787692433 -0.2642692957708739 -0.17523353595744015
Ni 5.846652885234051 5.241096187507042 4.604014809388958 0.41674034122081777 1.3041077463785797 1.322841318232341
Ni 5.355507306764434 2.9298170561210526 9.096034824935883 -0.02204078185012333 0.02857112676947338 0.44685104456326913
P 0.1915877973600161 5.48830624861674 12.414046343793455 -0.6129121699928218 -0.7322085284630099 0.9710514137409793
P 3.807106909083853 6.0629167087084745 12.515283721657507 0.8471520092811411 1.0454557967944833 1.432938012481132
P 2.4357207898769087 8.388742370982905 1.478722784604924 0.5222347608109069 1.6696265704202602 -0.689721820053709
P 6.27971129614234 7.802158235806127 5.877273467694212 1.0582408643742935 -0.2670430018612691 -0.6895097040429028
P 4.5327691936331185 0.9715319417613889 12.348858633974707 0.7359425415841454 -0.5919923891210193 0.4585043125314813
P 3.9561346336960534 6.037521002649061 8.204369365071578 -0.0759951245793917 0.9761666234803575 -0.4315779204542825
P 4.812400836265355 0.8774976605469215 3.8399468045744265 -0.2534256681881506 0.7767405494371139 -0.16701037671669947
P 0.07119343895982681 5.546195504193192 3.41362639715126 1.0495914162294118 0.14679456389045686 1.6528740335522694
Ni 1.3683814554365428 1.0414938284153237 2.5873726474885888 0.9352122925551829 -0.14415661204697755 -0.4643867394541874
Ni 1.9052267104140665 6.359091994076545 4.565792607509668 -0.26340360533646895 -0.21700702034980046 0.5068235684621594
Ni 5.96432955224191 5.8722644952769665 9.258471086523484 0.30264095357053683 -0.3758495165437269 0.1212892205305008
Ni 8.472774000561715 2.3922971011950853 10.017259339341463 0.7443935005649761 1.3241132429662295 1.7189277306482333
Ni 2.2720475783838285 5.337020528177082 6.805317849178657 0.3797750768503782 0.362777256740801 1.0860653427857296
Ni 0.6406114082483402 -0.10211088939730173 8.76256572481758 0.6390170946099898 -0.44785994544375773 0.5474572828231217
Ni 1.2083336316664322 0.8683307372474025 10.873915068680999 -0.3188553585468702 1.2844999994499813 1.448117805545364
Ni 4.000547882302261 7.006282176622175 1.6808026159632021 1.1117306087623176 -0.9606834402430939 -0.990907786345274
Ni 5.591058552765029 8.061818759964437 8.078800507866793 -0.11119146997486658 -0.3693469395385187 0.055553826005904326
Ni 5.4873346806909815 2.7936266225279036 4.921539400325644 -1.3151079541438253 -0.3123388975845911 -0.8663015856263983
Ni 0.6345957835080178 7.29465793058624 6.623948607437801 0.7095175146233974 -0.06479205677472068 0.198994900043096
Ni 5.131830779856445 4.548899020400575 7.1391431908697385 0.1062158711371461 0.14296516284203767 -0.36158066532953853
Ni 8.16124254436707 7.204661953463189 9.054968987673886 -0.7966642849442345 -0.16877621036787063 1.2925187559893998
Ni 4.489993216901801 0.21513302636083173 10.224447998709355 -0.37778581433449127 0.52651153380939 0.14803897782051925
Ni 8.098459465164574 7.237668274941045 4.480222662048408 -0.24110134229484284 -0.08217554235849074 1.0916315240195975
Ni 7.219361416339945 6.257131337867764 7.064883015744253 -0.9480991758201801 -0.6176242307565105 -0.7590151071328928
Ni 2.3334632656908116 5.2106987058298335 2.3403685947631483 0.08342098472981763 0.05562967354916226 1.0594847640837237
Ni 2.1957525082138374 5.255633722396172 11.417443451547838 -0.7950532317033727 -1.1189199274219053 -0.34907790487683754
Ni 1.1317057095218757 3.3274492217364005 3.617681749958581 -0.5865923011513705 0.9884014749836526 0.9152934421440688
Ni 3.582575762241169 2.3947710010060446 2.774798895566605 0.4387991207930701 0.6006050704906947 -0.09177886977620968
Ni 1.1823801736496389 3.467328015047707 8.17499472851621 -0.8283353907952703 -0.04779552221672414 0.3309958505641461
Ni 3.7128378322873274 2.62990843103826 6.97851062714431 -0.030615668003327916 0.9892622803220511 -1.1244992212818956
Ni 4.18496586821015 6.967851267558833 6.1564697039597185 -0.2713274881692359 -1.1231707322784592 -0.5142622841283918
Ni 0.660388213137116 7.24636740627631 11.306409430432387 0.27692683663388434 0.3239813669195259 -0.48049830030406926
P 0.13265770466309837 5.554876643529832 7.97783930718164 0.04152177339287043 -0.017339005499079817 0.3681871149024627
P 8.604151574522634 1.6511976818254326 8.070031207736891 0.6068672493503227 1.136188741804682 -2.2968520717119607
P 1.758429993631386 3.300821063771164 10.418931608248089 -0.9816063064386901 -0.6446771211092446 -0.5420461391098793
P 4.068485669110865 6.145131146426143 3.7286887830760933 -1.1496204418295557 -0.7737485566883255 0.07119024699158062
P 6.790648073099633 4.116569285436605 10.434796952635757 0.09502051664195893 -0.5650929936270138 -0.36319017590850355
P 6.244114126862461 7.978938618297637 10.33194029489544 0.38697647969482385 -1.969160602930699 -1.02967308003893
P 2.470112495248902 8.437626631247465 5.987766829250975 0.3628644171379686 -1.240109132039432 -1.3212096961661892
P 6.941627929562663 3.9091395332871355 1.6155753237474784 -0.9227627539379205 -0.10991131771086234 -0.44277044673599225
Ni 5.441742956174826 2.656131769034431 0.24773362826969036 -1.0233656497636634 1.6195731054072948 0.8715011275494668
Ni 1.5009285093080964 1.0105385947807357 6.901288969045123 -0.4757394454628452 2.11592765601733 0.7123233595033086
Ni 7.056677764771249 0.7160275692854919 9.070241495706853 -1.7577747854224182 -0.5521179215235845 1.4313670684495867
Ni 2.782138731405739 1.7373703592406362 9.058194053427448 -0.6060470674418723 0.21675685201220735 0.5830999717273958
Ni 6.4197700094398975 1.8871447517957807 2.5847791008867715 -0.05860983922340873 0.3587676213607757 -0.6417419497403205
Ni 3.974351532304028 6.670227626301437 10.369530078023057 0.1394023851914438 1.0843653293754874 0.18168494800973872
Ni 8.218888907962082 7.063892556219938 0.5623893950255946 -0.0825655787080578 0.3237412258842618 -0.30803487089259857
Ni 7.552078450915717 3.9846069715203694 8.264225146097761 0.0779213950678271 -0.13688964607191909 -0.19011276706211774
Ni 2.72488819178048 8.49482319487685 12.202591781551538 1.4584621248941656 -0.24104914890066875 0.4749328904011499
Ni -0.123395423770866 4.916781416289221 10.338707985178296 0.8108765718888745 -0.8127586194029357 -1.0680791906209541
Ni 8.777072673309046 2.478802630584854 5.692770019792851 0.09859717824962375 -0.40264401102875175 0.8657081750167737
Ni 3.5866149659325175 2.5675121798062057 11.267463050608436 0.2627585155533023 0.06695538297462662 0.4855433189271445
Ni 1.192770552855669 3.125363093178603 12.702261968969756 -0.5106254587067529 0.3538123342380294 -1.3147878518002454
Ni 3.155040894910805 8.502298870305603 8.173520284228879 -0.18919282635100965 -1.1509676998860696 -0.8527901814035248
Ni 5.701916252293952 7.7101741428349975 3.62722740482916 -0.5451075516440225 0.7544051191647072 0.2231781821575189
Ni 3.1558955148454997 8.26887967614209 3.754653935891993 0.4086511364547801 0.6276965273908479 0.14417769509290007
Ni 3.4508743323049984 4.393852972248258 9.474876147187114 -0.010977839167742384 -0.6609732871661069 -0.5662643882272957
Ni 7.196664510074306 6.101365609770442 11.544579411832876 -0.7207401228120942 0.6624714689781881 -0.2537187739485372
Ni 0.6905652928311656 0.031135153620839358 0.3300686123781475 -0.6257180635082384 0.14569258907552973 -0.5636431485543648
Ni 4.7074535082847975 0.4859180032690771 1.6335610251731196 -0.5624344729582443 -1.2804870216358464 -0.07277070410482306
Ni 5.9147705920289075 5.683132605729285 0.4922628815842397 -0.4737823217364744 -0.4858670208151503 -0.3123142149942428
Ni 7.880099573850321 8.611591265954138 11.490320041979047 -0.3131369680058543 0.9454925914352684 0.19607258418997844
Ni -0.01920465933249577 4.969021184297373 5.921078586746888 0.07748662152325365 -0.751035431361526 -1.6018934287393445
Ni 8.04056121358881 8.768319565977906 2.5001969161500317 -1.31253350854843 0.3891614031612846 -0.5488739606649902
P 8.586789295849355 1.5817395711330027 3.6033304322552224 -0.6317627270404216 0.6205977115625377 0.13301447938722896
P 1.8257380604881095 3.1722232535978327 1.6303746422166039 0.3465271134305258 0.3557496604700583 -0.7840604801372949
P 4.621568702847595 1.1590085674355561 8.064185607383576 1.6757691929828882 -1.1360583868744047 1.4363493521555262
P 8.501471238368845 1.5566407330509042 12.29519210047558 -0.4998134556929134 0.31350129332380844 -0.3239607980942356
P 6.257644109828581 7.7515647356721775 1.299580052693931 0.2556576428424629 0.17359111525801071 0.6763680244546223
P 1.9122166018799411 3.328447777660097 6.095298707834037 -1.1551511418397977 -0.33176795284348026 -1.523807740179511
P 6.946314845204517 3.983428495610421 6.055535491272503 0.4664559632783902 0.22748915082804694 -0.2239574835257046
P 2.248217176204804 8.135415030340653 10.101736270886244 0.461107040261651 0.8501159770054715 0.5841209567927425
