# total energy = -340888.7261811196 ev
CRYSTAL
PRIMVEC
9.07822484285900 0.00000000000000 0.00000000000000

0.00000000000000 9.07822484285900 0.00000000000000

0.00000000000000 0.00000000000000 13.28689969855947

PRIMCOORD
 96 1
Ni 6.534406482952808 2.4395369305796706 11.309277754279188 0.5401584351688633 -1.8334935164119712 0.11748861583748799
Ni 4.453522986812976 0.6001187860297119 5.710364199469657 0.5255802802443723 -0.7046133924535607 0.5625062067364441
Ni 2.641000899422885 1.8406101154903478 4.647904124523734 0.7095272848154104 -0.39573417128279587 1.0443216831900402
Ni 3.661992550464747 4.612301141781786 4.840205440890675 0.8155027578069761 -0.2903575082174935 0.07228759382081744
Ni 4.168829851317157 2.8024389743119844 2.2722188893684843 0.6227800639258371 -0.83225375201307 0.7852035926028026
Ni 5.142959704992009 5.026840129222652 2.298155378147552 1.0810426927601575 -1.7407756797612601 0.03199609329062232
Ni 5.720162327694805 3.0570196375361314 0.1386290346169931 -0.14334722877180472 1.4767850915730696 1.1784939303307962
Ni 5.589762704025737 8.181477920010906 12.680951250402504 0.10395175769331774 -1.0442435216539372 -1.7668482084785957
Ni 2.1364603894914076 6.852398547689655 0.4263170765350082 0.18497081784986208 0.3906747544820175 -0.6208075135804986
Ni 0.7866336417919009 0.33147595230546834 13.546525505364606 -0.544002748615618 -1.0704790583116983 -0.520419304868723
Ni 8.46641616758129 0.1966125654118064 6.518579505515837 -1.4604454738727817 -1.1125204516534646 0.4466121890795856
Ni 8.702313843788524 2.4938156377585448 0.9734072269661318 0.6604454396870948 0.7923432889713774 0.43671575590148015
Ni 7.145307476795924 0.6869801504983836 4.483717163109503 0.19011996615096935 1.5118156008146415 0.5771550669978706
Ni 0.6953738773185186 7.66023347610901 2.3053171898373686 0.5833938488187308 -1.139343999604212 0.6686865966499645
Ni 7.732750337280585 3.965141717352881 3.866979778424222 1.6901781693193667 -0.6125573577565644 -1.3577610129276616
Ni 7.935103972172224 4.300827242583394 12.586746509744337 0.8992487299763803 -0.4783545144881891 0.04202699516406311
Ni 8.541021020499167 7.341424371123609 9.228881758820991 -1.0940771573466124 0.16602461576466246 0.4356533760752368
Ni 6.92792030133091 0.8608753657104216 -0.03865508198154328 1.6256090271887293 0.542217374580421 0.6401697201571943
Ni 2.1884241492993817 6.5844093461642546 9.214690677526125 0.35818706626695734 0.22305219810261587 -0.8800708714963489
Ni 0.7481773729375056 5.221150456778536 1.2469359613767226 -1.2963412150592837 -1.9618162467504858 -0.1847039373417206
Ni 6.546062923832165 1.9857073854083858 6.708436055894609 0.8654153263667032 0.6981830634471846 -0.17108608944796988
Ni 3.6943655007574154 4.467830269387638 0.19301214138318262 0.6313544358584094 0.5533844469408341 -0.24068430936208227
Ni 6.334867097806185 5.561592971900625 4.688309488282178 -0.42915979793109316 1.1184028785761706 1.023056860273993
Ni 5.53892464411577 3.051781501720408 9.247975081607178 -0.2683990016685313 0.5623614536284638 -0.49522455077065036
P 0.6012617345551877 5.789519966571975 12.336487989435037 0.3067369780167814 0.1904848056895558 -0.0705299876997624
P 4.084030151742334 6.48028210559866 12.805156801165042 0.6173974594576851 0.04584611179983717 -1.1984356635600455
P 2.4236772715327577 8.730256620289039 1.5714153256870818 1.5054312945548525 -0.34612216468262325 -1.0373105419795297
P 6.674792154104191 7.998361043860198 5.82148258109537 -0.347759186065414 0.09266692880811782 -0.19958471110829495
P 4.858847575895161 1.4056814347355904 12.430120801919216 -0.8439219323796175 -1.618222504916671 0.08659706846495409
P 4.114787177987864 6.25408905189924 8.062663927066321 0.48859984636528114 -0.8032529939053457 0.2977895390155065
P 4.947224096113649 1.0455754842983245 3.6021979137856412 0.6106616833957483 1.3549027175432602 -0.6643177781583075
P 0.437704801954841 5.638077017390175 3.44255641962086 -0.011920662696985922 0.6767022678655894 0.42567852425071206
Ni 0.6758929143255186 0.23591764830219858 4.2964125017737125 -0.5442323481279208 0.4783570855913504 -0.17546956322764617
Ni 1.9439021593574213 6.856075228808145 4.568899963778647 -0.08720359170070144 -1.150117436070632 0.10439810120211698
Ni 6.267942423224706 5.914881175374964 9.031305085915893 -0.3735697193706147 -0.28793115816418796 1.9619314321721117
Ni 8.847619912881193 2.9391751990198296 10.382025130953819 0.24216346501077007 -1.1610860192669938 -0.4010373286632642
Ni 2.3880270820208924 5.6322487969504955 6.825745786959357 1.2859197626156433 -0.684879404359743 0.40430905743600043
Ni 0.8017343612301582 0.16226056207264256 8.951597362734553 -0.3187054632325672 -1.0567609373946574 0.29706911590971413
Ni 1.6896392340077115 1.183092436354787 10.967645083861706 0.05797246274972597 0.577104159155277 1.4232197567521037
Ni 4.4144866193821075 7.196136458480908 1.6318572398075413 -0.3563117036211154 -1.0951871025813396 -0.25067715890873604
Ni 5.5821823861641615 7.789997624029203 7.7886613093115695 1.1194220638693044 1.967710500747734 0.7427595645059789
Ni 5.609181027266348 2.952683597795907 4.446727027590011 -0.5095751630653675 -0.032241633642525115 0.5667603540271078
Ni 1.1099219429843694 7.570849272917306 6.966162324075684 -2.4426354207290837 0.5796958311418532 -0.08773812404793277
Ni 5.468804434339949 4.461103304674551 7.192703981614488 0.3545427846461507 0.7000764238151556 -0.603779097343302
Ni 1.1906636759913787 7.818784675453222 11.221385103452343 0.027262178150062724 -0.8682180859228209 0.3304453773773148
Ni 4.811586336628858 0.685661992230718 10.182176178335244 -1.2806299749716137 -0.42948349981909906 0.3370574833771937
Ni 8.395733107856467 7.372172319144156 4.505813562720371 -0.3212968781088273 -0.22564181320666302 0.5359148294011609
Ni 7.56361392760512 6.411578098920332 7.062426006160205 -0.11240863021141931 -0.19315618187413186 -0.6911145866361775
Ni 2.7082796247787373 5.537054529769081 2.5794387323394097 0.23228914331985157 0.22887703231450907 -0.19441036599620712
Ni 2.6148828461441394 5.516192768756027 11.227935042778242 0.27239321042958897 -0.5731498024932193 1.152176118371874
Ni 1.6747237103591264 3.736751733207351 3.7328880406541933 -2.0090391842931914 0.12595397299602176 -0.7004186376459228
Ni 1.8403650034157817 1.4545313633740788 2.5167781000328793 -0.7982092608338511 1.0502012818992688 -0.44821372923875064
Ni 1.292721081260639 3.5735252479964195 8.006858262445151 -1.5450447951814166 0.29620856768163184 0.009158526570816485
Ni 3.8942498584534277 2.8380891638238492 6.631916605327621 -0.7159118481855155 0.2669851520401402 -0.10104049758379374
Ni 4.33920997781542 7.109276001834735 5.9263959959445724 0.05029283471728112 -0.5593892583740173 -1.444906754807234
Ni 8.440915433601452 7.188892034943739 0.17493013286020523 1.515327727732958 1.5684325779777375 2.0289253816941573
P 0.4476872181471625 5.808475300338405 8.030814790355224 -0.2724376905142792 -0.7979596067168903 0.21310768529539428
P 8.667780275949681 1.6950952472230492 8.216725036333484 0.049819751735604524 2.016370170736966 -1.2438326036376062
P 2.063997997669736 3.3294934822035906 10.213201920040296 -1.0171944879559447 0.12012656768096731 0.5652639719872394
P 4.484098448558828 6.301967610464449 3.8256575139424025 -1.2688450665215438 1.0796064745342633 -0.2532786010873251
P 7.026192086781874 4.302070959406191 10.548708604238628 1.2137080163380838 1.5015268172941239 -1.8906221431041634
P 6.495233942147181 8.180461158812706 10.152188077745851 -0.65632884641556 -1.5238864159362466 -0.09568077593377715
P 2.24583484409771 8.699672080318203 5.524453953491397 1.9007088379162038 1.369120403804539 0.6722671149123712
P 7.250496869684638 4.276579303651337 1.5894192614751974 -0.29920107465105245 -1.158511059450966 -0.7473988630502032
Ni 2.802956433136068 1.6582194973383546 0.33298656894279316 1.3040514392193476 0.2608733827154475 -0.7148720940670915
Ni 1.3956863090282912 1.222755201309546 6.888101390906428 1.2515546548722123 0.7321393657879713 -0.7943675184902578
Ni 6.858190455229399 0.9869755420271028 9.049282694851556 0.4855579742151638 -0.4476221184013388 -0.2318379147150459
Ni 2.6571056705443645 1.7684563833181293 8.791237780973542 2.188493186089883 -0.7313634068538952 0.1316746775298829
Ni 6.725857169638757 2.0829805661111185 2.1733116281686455 -0.9753343573870492 0.7842813378988492 1.3359225768963314
Ni 4.412298767160983 7.140568643354317 10.628749498276878 0.3165706762777516 0.8115885103542345 -0.9148522408415921
Ni 7.389048739389268 6.588621642556795 11.688884639804419 -0.7931889248011244 -0.3431759375701058 -3.8394815725836655
Ni 7.926080216538205 4.148222280603652 8.297602942715253 -0.2959216325688323 -0.4611461210297026 0.08854365066836364
Ni 3.2977196947598606 8.6187578610365 12.462142424905007 -0.5884398958830704 0.8081136644317566 -0.361207598260836
Ni 0.3916191928239569 5.217936765134228 10.24059909521928 -0.558840842069715 -0.20904919895530447 -0.12378447614852875
Ni 8.783600270294569 2.4713016397984164 5.627135032817052 0.7595666087609886 0.28999909643681027 -0.5306283841912409
Ni 3.9397136091729132 3.1211391405975784 11.310685786974195 -0.18156050661673248 -1.2123772133418025 0.003628597891522783
Ni 1.6418242230173903 3.4376877675619824 12.37467463500741 -1.4751532123966016 0.45430133019372726 0.4627923983838739
Ni 3.1107354947660024 8.410240111380777 7.619585723743495 1.3300910578162188 1.057876024835707 0.3334106306532258
Ni 5.879811992262071 8.08237093786142 3.6396410527318306 0.15209129351302195 -1.4625620059951523 -0.5266202914731124
Ni 3.4589398922493455 8.478281407635277 3.5721834863437953 -0.6212145192109301 0.31487143419845776 0.034509860851411535
Ni 3.4284552127533328 4.230788736832429 8.924345439155314 1.4142635760000806 1.3478154716791755 -0.5797066297751308
Ni 5.270181949916703 5.005824038384871 11.417446620607624 -0.39302782809522635 0.555265980234263 0.5298210577985972
Ni 8.255256654455247 0.28510165562009554 2.3102067218137092 -0.5204128771108198 -0.6564610011180501 -0.9200163015410349
Ni 4.908151415782846 0.2747089036585007 1.435437132765394 -0.5078401826521318 2.9356385383683827 0.288664951006419
Ni 6.378034057604737 5.850443934439081 0.37243962690042326 -1.5125848748804982 0.1551223670298619 -0.11242688504386444
Ni 8.194323608363156 9.08276409641476 11.102772647102402 0.2424496287926212 0.3268584313570048 0.2415751966074678
Ni 0.24475893161404103 5.245171440085996 5.854048897580196 -0.266418995124025 -1.0614331460593462 -1.0308118216290634
Ni 7.5578946458652485 6.225892085099176 2.4846103176248473 0.09862957414945595 0.18342455640866476 0.2938328683606036
P 8.919782723278395 2.101481988628353 3.3057139796807027 -0.2643950227154608 -0.14883679113146625 0.8247641285042441
P 2.345613614896005 3.503931575269667 1.4678699993429567 -1.7884994681997843 -0.0754212543537927 0.3749010365875285
P 4.871892985197058 1.430401441366812 7.867731741099039 -0.5228759939393317 -1.3645284135584823 1.2509597016006906
P 8.86888111579354 1.7702447936399621 12.252035985877098 -0.3261297807210964 0.2757143043830219 -0.4464383825058828
P 6.628111921236859 7.9670048547657295 1.2367674415722307 0.7506945030823393 0.011329051859574038 1.3366825949908077
P 1.9982988834610869 3.67389410341867 5.931776659892543 -0.3351551241481583 -1.2323014630695552 -0.4263575525956077
P 7.3827756859253775 4.056741007440662 6.0686190998327 -1.6335550215086834 0.6233721889838814 0.1640896035254787
P 2.7343704433825313 8.619820013359618 9.725253681911935 0.6965743241991681 0.937231894088373 2.3778366790861436
