# total energy = -340892.3256473301 ev
CRYSTAL
PRIMVEC
9.06040214629302 0.00000000000000 0.00000000000000
0.00000000000000 9.06040214629302 0.00000000000000
0.00000000000000 0.00000000000000 13.26081438058752
PRIMCOORD
 96 1
Ni 6.3902745578413205 1.9763636735319206 11.501502090063017 -0.27430328296810824 0.558580903540109 -0.15190334587193197
Ni 4.719554495347331 0.3070262284282306 6.1835306741006475 0.1512178897691331 -0.1692446653638569 -0.1748177885762602
Ni 2.8697012190681113 1.3648318205940804 4.764504963215991 -0.6175314139323881 0.059090378404253074 0.8569695095921951
Ni 3.2523673100204733 4.373410886048312 4.64466664621373 0.9835647157166416 0.5248002075452382 -0.5113008875072226
Ni 5.342665542418878 4.270629682407645 2.9637128593269204 -0.7145265378022145 0.13087634999830364 -0.4473362117298037
Ni 7.124792311538895 6.0080614870037365 2.447973015698964 0.7035749238867173 0.2630801605587792 0.6635629022701539
Ni 5.31223165110814 4.548149804720202 11.393214879947346 -0.7970730903468789 -0.41978812690820605 0.2239770239097304
Ni 5.733902773942827 7.612577189924177 12.298755881335406 -0.9225904900261144 1.2604424442801454 -0.9213435049928906
Ni 1.811853949051702 6.434262810986194 0.3076840136348872 0.6072822254005541 1.0602445250678838 -0.0009808758560305687
Ni 2.5959592845127966 1.6156599977439607 0.610985510679419 1.3883332292875639 -0.11652445215200577 -1.2475298499835354
Ni 0.5953599408805212 0.14469553070009045 4.8344422085353065 -0.22183992296206956 0.019090698082863896 -0.08970476085600035
Ni 8.453382522950795 2.2684438623334198 1.0861546849083819 0.8088436006192458 0.050330629933752036 0.6021348768716598
Ni 7.029051040481867 0.8616687213925706 4.821725027873279 -1.3518338488099493 -0.9113478272327594 0.8389669023671874
Ni 0.9414754629324236 7.694492287078202 2.5419792197163957 -2.1183401221135645 -1.8725118066566975 -0.6290065044515232
Ni 7.566169809366392 3.9209706370179545 3.9372422135005247 0.5219768791638301 -0.2772901335105741 -0.38580817041833554
Ni 7.536370146216343 3.9722162724015595 12.662752107317566 1.0232329808405412 -0.9062089633442973 -0.9005453373006167
Ni 7.711290272934144 8.846531499359102 6.953904969882843 0.8330219976376622 0.15217588280702823 0.15112841537912036
Ni 6.7502896430548205 0.6805766486310445 0.4330201827500856 0.0977523137508252 -0.1878201143731991 -0.4855649161936993
Ni 1.9294489104455863 6.570495019902016 9.261193494977954 -1.0704870287314983 -0.17766271422422306 -0.8373010846289902
Ni -0.025518623065403766 4.813592410772797 1.3209069902652761 0.03576327364253841 0.07000136888980202 -0.056886685884714926
Ni 6.515534619577237 1.9361445477419943 7.126096103429225 -0.38149565908591077 -0.03439570387105044 0.4138182824780164
Ni 3.386098847902724 4.283278004012226 0.5266621585952366 0.06804655915627636 0.5605912491019184 1.2403613572595542
Ni 5.918644376748999 5.675055461033258 4.896370058225359 0.13522922765036063 0.6256707552100709 -0.9371244219762312
Ni 5.4409980885324325 3.1998441579131964 9.229487523184922 0.0863885519985738 -1.0478572071471244 0.17805583589758367
P 0.3975496138032547 5.520983319997509 12.228075683027857 -0.703036534884744 -0.3226731896310637 1.4038323533644275
P 4.046973651742105 5.922640014161334 12.54003620654624 0.44252696326661856 1.093756283672084 -0.049404004354424595
P 2.5747670035435157 8.437635543761136 1.2551864561743076 -0.38818772639410565 0.1656690321974566 -0.18800934756586976
P 6.3507621434304475 7.826321140478388 5.577406069252788 -0.8929194453242428 -0.08113810223291187 0.2813023399937607
P 4.589764232463642 1.1887247811755635 12.519693791312283 0.32030340384730643 -0.10674166173362908 0.5628131964539016
P 4.0887783479337525 6.285092347592334 8.134369382285557 -1.0633190502281493 0.8302467488853702 0.03781141442081875
P 4.754835701886185 0.927295933339895 3.8222439634045435 0.6763016899930611 0.5407572450951268 0.06487253230366892
P 0.1288615716483952 5.631583650819231 3.516542365791922 0.02243107531000653 0.11674505280324411 -0.11670725758677321
Ni 1.510486847897269 0.9099543233462208 2.600803881620225 -1.1303873046315567 2.2227461937354818 0.3764915210031
Ni 1.6962432157605418 6.5291161626182594 4.920902909521009 0.017813116922020936 -1.0331540966089947 -0.8099216641747728
Ni 5.925693369734932 5.544060164644263 9.214992691592508 0.8709737942910871 1.5587552027889737 -0.2851595089563218
Ni 8.43231708761365 2.2396589642404714 10.064600205449247 0.65595295113338 0.628768420298788 1.2235185746706025
Ni 2.5079374762115725 4.964194417729354 6.882521684357158 -0.6529858980852561 1.1623407176097014 0.38124574785863374
Ni 0.39211790262707524 -0.05412140707221121 9.415310938025183 -0.23206417179323904 0.4597770085963178 -0.79439194397029
Ni 1.5874277841910411 1.2555452481052112 11.485642761884893 -0.2500940327117564 -0.17033249911139697 -0.2957195438603552
Ni 4.290680352687687 6.919864132418248 1.2010333376940618 -1.1450940147141115 0.4832254694272452 0.8944114564887371
Ni 5.711423915847579 7.938353014862809 8.054976701130611 -0.9504057124661698 -0.7411546819127043 -0.26903483548031737
Ni 5.097962197220787 2.6873334416633723 5.247914573332753 -0.07405754123704665 0.29701563696395944 -1.1592430525209843
Ni 0.7417751359363062 7.64553893347537 7.121906573407764 0.11645348970475428 -0.43392353786832366 -0.16357923954796344
Ni 5.043563541838332 4.726304495057512 7.031029832343213 0.6643018373187075 -0.014451656648955754 -0.4878909932237146
Ni 8.287667764965267 6.8718440002518575 9.03884941056481 -0.8545598717094379 1.1499747398451807 0.8104834502155139
Ni 4.788920935322027 0.20814099777464745 10.461204819293078 -1.2799969693733053 -0.2877640364587044 0.41892089381190434
Ni 8.3107899116235 7.204949690647585 4.821658886936522 -0.24253421808662748 -0.0055047318683131 -0.6421602682246618
Ni 7.276853043265035 6.226698054797544 6.832528196570797 0.035010968857546156 -0.3933654139403032 0.9815119469526707
Ni 2.125497895316599 5.429853793708912 2.3990939573949555 0.6564890261425081 -0.321016370753931 1.6479809671260264
Ni 2.3530770801761096 5.246398768028707 11.49370470784747 -0.3190705598814699 -0.648499065958496 -1.4652020147211606
Ni 1.062776128865186 3.4317179734607954 3.911264228038737 0.22682066400611262 -0.3172365919965246 -0.5356816303444324
Ni 3.5242881037143836 2.66337773799395 2.7719213574945845 -0.17306326777899872 0.14594172897185834 -0.07681144983309997
Ni 1.3844657123685273 3.470732065745415 8.34432789676069 -0.8573315209173042 -0.630999623622152 -0.6961032981000205
Ni 3.8461770160682267 2.8464975287892194 7.375187401459049 -1.1067411259675262 -1.2122013498855704 -0.09733373815616786
Ni 3.973711238780325 6.763635615636158 5.972763971740751 0.38477844360224056 0.810841861996197 -0.38072124281373143
Ni 0.6166691010394146 7.52319632127862 11.372023505018294 0.895177131010168 0.07787948608629812 0.2499847608274017
P 0.29933938312068975 5.567046405268061 7.816799563706 1.0123194192518306 -0.8791959250905633 -0.493334532836789
P 8.642572783284079 1.5908888578679394 8.077865089409618 -0.3560041996830256 -0.3818833814426326 -1.2143163393460443
P 1.9619757546865944 3.179576037978061 10.46079347702886 -1.159086986559094 0.9151941975620431 -0.705547731342372
P 4.182517270083465 6.226616511176884 3.517523607360529 -1.1604913231057885 -1.2674787823016365 0.1069730610181448
P 7.087581239311091 3.998500499460937 10.355648414429286 0.7128586631814884 -0.19439005428123296 0.28803040274621367
P 6.3705863036531 7.568752024020624 10.15124664468201 -0.03549150803839048 -0.10040440666169159 0.012612032337055698
P 2.4013418432044804 8.32026709242464 5.7514935449996285 0.2644166199820156 1.879288463258899 1.2807168782584653
P 6.951385272004451 3.962548823152213 1.4526425215218182 -0.7039955563639037 -0.0544888750764997 0.8645882024797173
Ni 5.167256153977118 2.733206258485719 0.8963274782937206 0.23344819662495922 0.10765286069398877 -1.119275253878795
Ni 1.5465744302404265 1.0938442483366115 7.153228384143466 -0.5915249625662975 0.5830896873147506 -1.1997916633673078
Ni 6.767894004715064 0.5931609812433923 9.297952453131211 1.2878102947701369 0.5954929460751099 -0.39183946421407995
Ni 2.635770692199423 1.5505157052389889 9.206095376538283 1.0456825680933086 -0.8929240733099332 0.6796227839464941
Ni 6.533709786582102 1.8924643482751697 2.749550318186653 -0.6619263951079956 0.9843283333555434 -0.641852507176256
Ni 3.985063922856643 6.7096174971501155 10.349999253598012 1.1436020035496175 1.403439488801383 1.0074667191452198
Ni 8.384369438665624 7.264440292120137 0.41586974724484765 -0.29179681176718136 -0.27651057503207216 -0.08634304347261904
Ni 7.635844303019137 3.8756052027241585 8.122699584128895 0.9682273140286227 0.29102856614258915 -0.42901118816837086
Ni 3.190974024065857 8.419061719055268 12.285481485932204 0.02234931422947764 -0.22254774766237156 0.5246135454557288
Ni 0.11203912270625596 4.679543758810202 9.94862071378466 0.651762052980484 0.3339305077124378 1.179967172442213
Ni 8.629362716737173 2.280059298076309 5.8494383058949335 0.8893317279729845 0.8401737781910951 0.3184038728317484
Ni 3.4471568989724055 2.999908260457395 11.905228180111145 1.429392461221719 -0.8970231830799712 -0.4068403084982864
Ni 1.0909358591997413 3.4087407932392924 12.750246600205191 -0.5495645589741115 -0.10035169904688523 -0.623969456248248
Ni 3.0294995343546467 8.46004191863802 7.9468344574516685 1.21782718071278 -0.8438185740325338 0.3121483788403398
Ni 5.573606136530036 7.884099325917083 3.2116235869376353 -0.047705276495763005 0.19110752687521926 1.546399766547414
Ni 2.8399830995387223 8.323864072135972 3.5281324324083836 3.0144341085110473 -0.8481789078837587 0.7465601691989917
Ni 3.4970978364254517 4.541245778170996 9.334990471675171 -0.46932788550954657 -0.6462002426219903 0.09291735425602708
Ni 7.659211080539349 6.024922895675747 11.372089645955052 -1.8400264324344826 0.6718894198579783 -0.7176208604568222
Ni 0.7344751698067853 0.16369519431384924 0.25080733822460055 -0.6935723041480507 -0.7512498613651771 0.1517184835546355
Ni 4.623813224290302 0.4781844761129206 1.6446324461644264 -0.6540925008858736 -0.5721928378965887 -0.27172138117354494
Ni 6.054405444745451 5.710554117227205 0.17306455632767279 0.7921095756940165 -1.7429937704585012 1.2447070358227594
Ni 7.679026180359706 8.863583176479318 11.466189172116128 -0.23315791907805009 -1.8622232802464962 -0.5528913093544994
Ni 9.050671423480036 4.8564752948376135 5.729626264059329 -0.044763934479251935 -0.3029191469325879 0.5402473953382438
Ni 7.786482551584875 8.908178476577994 2.8250307176303835 0.9272179614957966 -1.0875789512167784 -1.4128777513961472
P 8.633077481678347 1.7695599911360957 3.5259443452540093 -0.006457068479253396 -0.13757278818187274 0.28431618711942
P 1.6781767735832243 3.2745924768514465 1.617646943967374 -0.1250096068048815 0.3839433492954549 0.773861428117106
P 4.80624442451111 1.2824908845321634 8.516121278646299 -0.32738267929159104 -1.5810009015610513 -1.0363150108354797
P 8.54176674734384 1.4399697368310387 12.215411958739372 0.44882025247449797 2.3304491909411156 1.3990909820247002
P 6.392639322840459 7.741633560221925 1.1824413921836026 0.6101574900658201 0.040446280940504536 0.2508303966571487
P 2.083974071596114 3.015410608785073 6.001486353057859 -0.9022142403626074 -0.03464227266421776 -0.06564463458300307
P 6.797168164531972 3.9006572150713414 6.034917425447962 0.8861859832551512 0.08451576045589315 -0.43921666794646297
P 2.334385470240399 8.553019766994908 10.229392614481087 0.6519458868565159 -0.19680817680442234 -0.011309511475548263
