# total energy = -340864.6174178815 ev
CRYSTAL
PRIMVEC
9.30760489748846 0.00000000000000 0.00000000000000

0.00000000000000 9.30760489748846 0.00000000000000

0.00000000000000 0.00000000000000 13.62262059459549

PRIMCOORD
 96 1
Ni 6.995884290306652 8.81835053714746 11.548208658914918 -0.6860505418497088 -1.4881254562865533 1.1588453028619332
Ni 7.552842052889169 1.505626072438304 1.0784274896501584 -0.06092048963445637 -0.23192301822968445 0.5590218477322696
Ni 1.1393159786165903 7.0717412692843675 10.426563167977983 1.4219169787802801 -0.7006888605881738 0.942784448475486
Ni 6.377905870769791 1.2139164309486625 6.823829492859454 -0.8843245045663803 -1.107932575172466 -0.8342599838098212
Ni 0.4764134738363134 1.9665945068984676 1.8305126711753157 -1.6605081530587595 -0.33189342267775096 -1.80247958452896
Ni 8.451267912128795 1.6420569433408012 5.92504994463809 0.2671029085649271 -0.25627702159401666 -1.1969261688940547
Ni 6.080518590362799 7.579685185082019 3.371829684912754 0.4222083063139245 0.08081131502111244 2.448027281168616
Ni 0.6637076125939666 2.5310541989357134 9.723921844578644 -0.6858440822658575 0.2861519547765781 -0.32191702819132945
Ni 1.4961788535840241 9.675441323547819 9.625430632290744 0.9179329366494451 -0.8105698392817331 0.4374734600031111
Ni 5.059446422903619 4.097189010065321 11.793879164108194 -2.553513216118273 0.6312086543091645 -1.6654068759119576
Ni 4.280995589310956 0.2946582906847508 2.8091477453889744 -0.08646105710772206 -0.5331460084067722 -0.1467842794778117
Ni 6.175344467887334 2.7238053863773706 12.981526742079089 0.4436934727708939 -1.0101674059058343 2.0249196029688736
Ni 1.715084410464624 2.0861041523063037 5.088988760483407 -0.12173736381151293 -1.2141731288999604 1.3406454362932976
Ni 2.8568110587198925 1.4575709089460407 0.9188597747792189 0.5877305285208717 -0.9382001715389132 -0.041800995196186075
Ni 2.6816140138981086 6.527367388367846 6.048675412880767 0.10065637477149761 1.151722832884539 1.9207451877417887
Ni 3.1027738227033415 4.210043718053639 4.952625835095822 0.8165335130643356 -1.8170438554963804 0.7828939706330195
Ni 1.5305518380459509 0.4002567899846001 2.8539117398301306 1.0655731363696488 -0.41716200213926863 0.8241424357598451
Ni 0.6080211439404974 7.571764413412075 2.612995559159776 -0.2943036373494351 -1.3302340111519864 0.038171883084031036
Ni 6.254049573928508 6.241530845495989 9.216669483816336 1.1837070991006196 1.958531405351627 -0.07491191881754196
Ni 1.5304680696029078 4.892737913643513 9.078863879687455 0.7754938215142063 0.41914766511072976 -0.08044390437936469
Ni 9.118129871983566 0.5046899771656753 8.059605764400395 -0.12089404197461116 0.9923907986487037 0.03607026335999594
Ni 4.849252784099479 8.541560986124233 13.033755435555843 -0.54094365007432 0.03765997644461901 -2.003587417150001
Ni 7.044051145056305 8.264548052586225 1.5795154237649902 1.937418791742728 2.1469562431883604 0.33763675291943146
Ni 8.104122176554334 2.7907922179973235 3.1473293267973688 -1.6913333659697325 1.0823948359126778 -0.32821777359837667
P 8.840753941859038 3.593638283725029 11.251180652052533 -0.21819821244442422 0.7688356927677404 1.009839076032138
P 7.168400744951064 3.3317781307729986 5.406259876987343 -0.4838214511400313 -0.1642346137437752 -0.2722219749590473
P 8.559087205929758 6.7726879276213 8.20671618103038 -0.5548607743760444 -0.26980359532554177 0.4204944089466113
P 1.7418903122383442 2.92645055770287 3.2206322990227543 -0.047922534712891665 1.7062817597494484 -0.5806859629692643
P 8.053004811088615 0.8648738055195201 10.099770371781506 0.9209290431632914 0.5316439699399489 0.2531790993949833
P 8.491876991795024 0.6106198271957831 2.8932810465393257 -0.28783499890595593 -0.8512642316773016 -0.6460593461687519
P 3.7018391893220772 5.399983759082476 9.910769218306735 -0.8745080326965907 -0.677243227970724 0.4696472165221783
P 5.044582178065901 8.646708997352606 10.444462622735289 0.07594858761217242 -0.9742730060020705 -0.06633883243655027
Ni 0.24025906377270717 4.671524070776844 2.39553826558334 0.33052431024436624 -0.3968423167453101 1.191204178808613
Ni 8.387473588949254 5.886110649269849 0.898185723036237 -1.1623723421785852 0.7281505563435524 -0.3079148003749665
Ni 6.540053653686451 1.2663647838982854 3.95284853661862 -0.6245705801673567 -1.0220764986385946 0.8878718555980064
Ni 6.901440024578201 8.629536466528817 9.098766330993964 -0.5775993536241406 0.17595344484260017 0.07753932913806
Ni 2.281908234116635 8.277951003473085 1.0177837906895075 1.9746403950983473 -1.2118390814501452 1.0675641986577487
Ni 3.4054571302315995 0.45836602816296496 11.409884621199652 -1.8528210130959895 0.5786077402839972 1.6472325189957762
Ni 7.47792514199449 2.9933256980654326 7.931648536891923 -0.7364102252491833 -2.2125306866550605 -0.18534259936698402
Ni 2.2068051711263057 8.980349398387599 7.038699272306343 0.5394416116074967 1.0451925158307676 0.4441722121795254
Ni 8.230277451776905 1.4421761306357168 12.51709029407695 -0.025123534540505116 -0.48642880685589124 -2.0185568939756395
Ni 5.757349244708166 5.619754923207851 2.3133521153534957 0.881634873549359 -1.5782076550866304 -1.3869466333526823
Ni 7.698599143783773 4.9297449502588995 6.935561703710998 0.3603105403678633 1.1139191317732042 -0.10232579205412054
Ni 5.056086377577121 6.507812110719726 11.266465600626422 -0.2828663420467709 0.8525225295644351 0.33704617052328406
Ni 6.889879979438283 6.756557848533155 5.782706883177722 -1.4213068560001072 -1.3396378209643895 -1.5590786475666634
Ni 8.162238860816526 6.777490651689091 10.522411951268118 -0.4601660165046204 -0.2410319225094881 -0.0839927980728876
Ni 2.4952571509420576 8.865661092257119 4.728997599548561 0.7995614039863713 -1.0260989895344264 -0.07650343167437791
Ni 6.98481754822021 2.9399000466136425 10.187894773862611 0.3201468236647841 -0.048684609689896796 0.9471553238496719
Ni 2.3579513651900013 4.501390362956763 11.930786584375557 0.6446113008683156 -1.1670057271855385 -0.5375207404357001
Ni 5.251899766992235 4.245850073652078 6.066752642889419 0.2351826628175627 0.45703518418512257 1.4582744343633918
Ni 5.424490682474908 2.3631170858443116 1.897263089633792 -0.2765288298645173 0.4601508469959688 1.2598911997623656
Ni 0.001084335957166116 8.691599575218806 11.556136876668686 -0.13013690072911782 0.5285339635560574 0.1756495404489362
Ni 1.5353731773233075 5.661406454609725 4.176436749465316 -1.0607996262404054 1.0903462295492707 -1.0954547544204294
Ni 3.1502519146990866 3.5288759696481034 7.506622349060023 -0.5966494282770562 1.962026562989079 0.46194264878906893
Ni 0.21415495539959054 5.503074789653907 12.259595407767932 -0.312660542590068 0.32267601784454103 -0.8278599938207484
Ni 3.0858246743943325 3.0873697367882347 10.006278274022309 0.4460822847180446 -0.0813936698871437 0.2655646175435298
P 4.748181503765858 5.665641414785782 13.487933972327145 -0.13058581534107833 0.9667335030919157 -0.3991336838826481
P 6.892225495843483 3.9611304433541257 1.2416074859372024 -0.5313156400662528 -0.19708379906331217 1.174203016264926
P 5.2445188363996795 2.4277118630351517 8.120171279480871 -0.47843524712745344 -0.4624494132221584 0.28904496005365704
P 5.080695684622163 6.453790772561854 7.239959472040201 0.07298282011562915 -0.6743749052839935 -0.5694996073351417
P 3.2277470321185295 2.4600930200736144 12.655986749486344 1.3287445710906536 0.557165511249821 -1.0761239153023014
P 7.929958275863414 7.726950107951395 13.490317649911953 -0.009869950815544292 -0.7458428314169929 -3.9040417158532374
P 1.6496054108194427 8.952491737273451 12.795563590805338 1.895652249328903 0.15013288423507046 -1.431404606555741
P 2.0754097144111636 1.7476331043891724 7.8305000034386065 0.24627414474503392 -1.6330354015597877 1.2043337742120357
Ni 3.148418316556926 7.956522179912787 9.206384580531626 2.4016420090358572 -0.2137604883880448 2.023666447288063
Ni 7.628075422346453 8.431079717355463 6.934772418825439 1.0090062957181978 0.4173612626342683 -0.5011769116993432
Ni 4.038169488139224 3.7157168280528468 0.6462409614590486 0.3016107125338096 0.7128807746686755 -1.0369554726329562
Ni 5.648506114381123 3.9865215892009 3.8137752367183593 -0.04973284844875306 -1.2952410400165693 0.015286493845425287
Ni 4.975324290879007 7.474174177267125 1.3625076874995505 -2.8517406140021464 -0.1134373285862498 -0.3078042429390312
Ni 0.08102083811106958 8.986734415268423 0.6578428908204871 -0.6529182780721142 1.4347424126797226 0.5588881503678826
Ni 5.68035673794698 1.403009729710781 11.105732573636706 -1.2037077105922624 -0.15476626924202377 0.18920979563187415
Ni 0.12837700048416384 6.543078625240777 5.956245312827257 -0.6820211089753415 0.9164072440335378 0.47455185291264723
Ni 8.391792317568353 3.523365867616839 13.484637218713168 2.243462857457543 0.6472811343909949 0.45073263900586247
Ni 3.3092164967801176 4.868780138933252 2.7102339678439464 0.19228406368182369 0.03083626865456625 -0.6532360664228493
Ni 4.083637137501941 0.9571847682318129 9.25652930129757 -0.14010198236162968 0.28703872825690563 -1.6073757920101546
Ni 5.359858674864937 4.446615108811504 8.63574650043973 -1.4124650893387611 -1.1579220197167155 -0.4435839437762232
Ni 1.1338151841901078 2.3748167450559667 12.258083852751247 -0.18079688897783056 -0.8086715938177557 -0.1754633925800591
Ni 3.9478391837246556 1.795092581175353 6.301388051852515 0.17262489468999948 -1.2280033499148337 -0.713833625500248
Ni 9.155518520395034 3.9335147799643244 4.780763705067623 1.309802739880828 0.9173657512920652 1.3730202530795774
Ni 2.775453285315695 6.599706092737761 12.53509957857069 0.17706904650428212 1.7210131524223522 1.0379744008157736
Ni 7.083776002268194 5.1694623114332625 12.243861832643523 0.04659610259198427 0.4211518400249521 -0.014765331234632638
Ni 4.6860997798663035 8.665845432785513 7.454270795200138 0.6224923574820892 -0.5047980533916985 -1.3312562817689138
Ni 0.4652797169954369 2.9812816574768233 7.291262058841093 0.6915511599529638 2.040275516599654 -0.05847588474870574
Ni 8.377235223688459 8.45278505170835 4.410663554578458 -1.241942842814061 -0.9310131668721707 -0.23670038501366977
Ni 8.421008888980753 4.557989907639398 9.29956394277013 0.5644677013381891 1.894254854760744 0.24109131499251382
Ni 1.7063911075977298 3.4601765387481622 1.019316753197192 1.4937268616337307 2.6759182954207725 -1.803974681017248
Ni 4.491170612905531 6.331349231647517 4.800707109835175 0.7476580302488608 -0.10411450852342714 -1.1566007298021308
Ni 1.4192235772419688 7.263468620199944 8.212614410181075 -2.722204322971505 -1.606428854715853 -1.757673741068179
P 8.263189142287974 6.276676361154866 3.446114609442698 -0.191814837354889 0.19377967439074367 0.3863339610148185
P 2.871051694037181 7.068855911801779 3.1231760923866725 0.18258123457176295 1.0846275818979385 -0.10577415561403718
P 0.39936698296738915 9.20244746370861 5.811218868908083 1.3846113003512863 -0.14745019519658475 0.7491176455135227
P 5.446707935090834 8.38980049014489 5.1765416756308635 -0.13392824945075 1.1658410174534761 1.3800877014493198
P 4.418310682667794 2.05624535616391 4.1505941847865895 -0.0454326784115024 0.30992951681215014 -0.2031354045740308
P 1.4225743149636838 4.841964929554749 6.316209481708234 -0.18979009361537635 -1.1175068491244624 0.8517915649356814
P 5.620732221710019 0.5829418028539387 0.7997187105207713 -0.5991732231401746 -0.807614356197835 0.11104543131530553
P 1.3274785169004546 5.5946988511332485 0.5049440747762387 0.2681462622277769 0.18605993714898278 -0.004498402090985802
