# total energy = -381164.1587637473 ev
CRYSTAL
PRIMVEC
9.29863405540462 0.00000000000000 0.00000000000000
0.00000000000000 9.29863405540462 0.00000000000000
0.00000000000000 0.00000000000000 13.60949086041334
PRIMCOORD
 96 1
Ni 8.750674957472025 8.025065338610778 11.915803567687467 -0.15550726117310637 0.8944219980116983 -0.7469442920112878
Ni 3.018606312137114 8.303159590748093 6.117602106268501 0.13672920923465487 -0.36017838566537325 0.32501109373562087
Ni 1.2952346495122586 4.592074693299246 13.39299110105793 -0.9724776046645446 0.01883435909768369 -0.9057667336005562
Ni 4.570725029243764 5.150308897091389 8.120252667023996 0.23522380046814328 0.38650005427903755 -2.8548868729406127
Ni 4.483968772432946 0.6678344151696429 13.41246616046464 -0.055876756562961837 0.07008107308780188 0.6981354980387009
Ni 1.4006904596399643 -0.013526723127834726 10.601371887930199 0.36999897130022086 -0.7236223294558957 -0.3797588789004621
Ni 5.377018896802489 1.711450813618267 10.977102728721242 -0.16608272269610755 -1.4090311239565476 1.9944751704360877
Ni 2.738131609652149 3.8397872930028187 1.294448914924851 1.385060472073563 -1.432676017068997 1.5192399183031706
Ni 6.448221553244753 -0.3461416569970769 9.913616078913664 -0.2567066529322676 1.5554284524085857 -0.2989779028966529
Ni 8.088119376920979 1.1162080458275112 12.268956394849106 1.6310173426884944 0.6832480394039072 -0.8123007059299107
Ni 6.678576617550692 5.334654319521665 9.174198918172634 0.5368237143686755 -1.4597939563317117 0.36084430138414625
Ni 5.658265385923606 1.8991902375207783 5.2974811696982345 -0.045877993479037114 -1.1256888707146226 0.008842795102610577
Ni 1.7789495990619684 4.541248358923261 4.085950035398618 -0.6192789927511141 0.7215222523937574 0.6533083144216812
Ni 1.3457820248631278 7.827757620146817 3.58723080975138 -1.1612680533708128 -0.5616785686288261 0.4941806828871683
Ni 0.593724300830712 3.95840067048179 2.173394870984571 -0.47313697484299166 0.47257570302288293 -1.5232444114768733
Ni 3.3586852596550214 6.590816108249459 4.597680839840644 0.4105838347011187 -0.00032575877053492286 -3.1159798278660333
Ni 3.4592592868432113 2.193129362284636 4.484939549840346 -0.2892146528623019 -0.17107143415995052 -0.697437957751044
Ni 5.129266087963534 4.117955934213499 1.5638805594689233 1.1037666167202347 -0.4233773869213612 -1.647723856809898
Ni 3.3812809406893503 1.2758655945350952 6.866165403579641 1.4127437969214445 -0.2991419392783428 0.7031797453308277
Ni 8.450143101081279 6.197009652494369 7.355889130530332 0.23184717068642652 0.07478310654916152 -1.6350817425658548
Ni 6.813444007559708 2.2494976826262416 2.922284550355096 1.5485823760210298 -0.49669059379321556 -0.16128401575588353
Ni 8.70775246214097 3.5151905713788034 12.648851164021702 -2.669315959612906 -0.47207253813421923 0.8882901740823477
Ni 2.5080276084688133 0.9910391312583332 1.7527255909743078 -0.32622645419996077 0.5146482067129008 -0.15196479523748666
Ni 7.10397053358299 1.867546985438547 9.322950098861632 0.45997601198100135 1.1983024804162912 0.008078149022444152
P 3.0473948835289995 3.4186149568839306 7.58892406120421 0.49624990671137115 -0.017539551545660115 -0.2693122575114201
Ni 6.431716477592105 9.062867301112584 12.547066454664511 -0.027923722993461585 0.8494572603755499 -2.2129469482568727
P 0.03050137980609299 0.06235571088399457 6.99995973120538 -1.078228106129498 2.573916462364974 -0.87525853770937
Ni 6.122425307812742 6.66733456883855 4.441729726713423 -1.8413232968690352 -0.5754956770175765 0.5266819979489832
P 7.745492603640352 3.9028506299471886 10.521048426238536 -0.872069341348111 -1.1244372576957085 -0.5762603230977431
P 0.7726755855786783 6.757261659901511 10.257827339456945 1.2707415122133083 2.666238606239163 0.18484380535369455
P 0.8046154640909485 1.8039629249806288 11.656379113237692 0.8590613591242172 -1.1600226109994858 0.6245201865453954
Ni 2.9539529087495877 8.353483798878871 8.77836629003179 0.773121721737604 -0.6188377914486375 0.1156543908422266
Ni 9.266433000373297 5.120767136331692 9.312307812053486 -1.406063042467159 -0.9423640731086157 -3.4520744331093254
Ni 6.018513070957341 5.3051683505669915 13.224614223088663 2.081381028390712 0.49371377055307875 1.5093126318871295
Ni 3.173493661515228 5.7616476006312904 0.08093717154691622 1.4449460926856017 0.9642945546331199 0.9526734254544238
Ni 8.664179062417979 5.717125740222908 11.461001791227527 -1.2013170988728987 -0.10355143693110552 1.586340825716726
Ni 7.883846981463307 0.9182698799667893 4.809580904908381 0.0020795082368480315 -0.4728765220927533 1.2077145177588102
Ni 8.672240978243808 0.16683609428721433 9.526494411263752 1.106371144222617 0.07104960764865828 -0.2503737687357043
Ni 5.257587239516513 3.4088699882732407 9.587831921706076 1.6587474616139108 0.16909194183607654 -0.11913900695671739
Ni 3.2270165998006597 4.08819100623371 9.542009182377239 -1.6819922910744647 0.23431825793473837 1.926631985539869
Ni 8.367478243305483 1.8146749515450513 0.9575770663323512 -0.6555420888482065 1.3839330433373391 0.9444353538153476
Ni 6.548897865408819 7.068784501881796 11.044918597590158 -0.7950365195328244 -1.401685996445386 1.6493745050394435
Ni 7.328058318458008 -0.05355083418794267 7.5306625389454895 -0.8070985929036809 0.4901918734427494 0.243129171358149
Ni 8.738977275685528 2.569891421605188 7.2492449549556355 -0.6129972735074604 -0.7999321570622288 0.2563834652648939
Ni 3.2970446137387386 1.1491066135227606 9.645196125767344 1.3677350934212382 0.2292966363504309 -0.7929289862715182
Ni 4.532154294704506 6.565895768672504 2.103169726002078 -1.2586329018752325 0.6213050220422074 0.4650246301485024
Ni 9.200700955421992 9.137553930770087 0.5466908793328769 0.7084620767756895 -1.0759678493404115 -0.29787027165477087
Ni 1.21803738862872 7.809746165758547 7.390565597078981 -0.5351188158624268 -1.3483942270007812 0.7078856354469293
Ni 5.825482724211812 7.319680249070383 8.279442494432802 -0.9266502619177847 0.22936451347388884 -1.7903007830745814
Ni 3.89791305520265 4.52486416551483 3.362510717752767 -1.7449508941848721 -0.037854094733296095 0.5787326958976355
Ni 4.466013109849699 8.494906725978094 10.99898613437811 -1.0729992536303907 1.6521888345597868 1.282850122551384
Ni 2.052980348066773 5.847938925733583 6.246879157414209 0.1665252095501648 -0.29715601919656565 0.643252472847576
Ni -0.3773004502390246 6.81569427702897 1.812852419247632 0.619456655979559 0.14611990642093545 0.4338960270644979
Ni 9.435603051837308 4.6297620575923055 6.087538692131839 -0.9273642572656738 -1.3680675370599922 -1.1220924116126159
Ni 1.3618965578806146 0.45589529583839045 5.146837716955538 -0.581724688646424 -1.0868652129792056 2.019743715194889
Ni 5.9688397672184985 4.255092190960117 3.7800500775012384 2.207423704445798 0.18029063876537335 1.3154774216681024
P 4.191563922307222 2.8426668549969745 -0.05950846910098571 -0.3025625349241176 0.10363782599732474 -0.3097248570005118
Ni 9.026825795067705 0.5138908771598348 2.864485170214649 0.838444197094498 -0.14963640421462615 -0.4039210779689624
P 7.424680426123733 3.070725156662799 5.159330431963613 0.249941309183976 0.9857095299737861 0.8261502102184933
Ni 5.803826205228704 9.200886928105403 3.856657804978367 -0.4615775521401664 0.6797788499083842 -0.14443274852649962
P 0.2539661561916874 6.593633594403122 4.99767739636304 0.09558564511680957 -0.7679144665050517 0.4303023961759686
P 4.5743050033994095 6.375757297154001 6.220530547628663 1.4267347118838978 0.39143528679712586 1.1864347824444277
P 4.631658978963089 8.67408210780957 1.6296953622643462 -0.6245181296628664 0.8157292719954855 0.5681626336912731
Ni 7.585295734150879 7.883335556583929 3.3522766409847087 1.4088717155605477 0.66775380042305 -0.9866469541863911
Ni 4.685637550322874 1.8392884361943802 2.2730976161509853 -0.5527337007307126 -0.5443372491369012 -0.1858871590165444
Ni 2.4838790555280097 9.458756650921869 12.651083766086039 -1.6275705217904743 -0.07374952307832461 0.3383931714694818
Ni 7.965721455334611 7.1942137782077475 9.144638560144596 1.5744229912332175 2.0500408235165337 2.0584907540561
Ni 6.5656447055499 5.147537904108577 6.3042024474851255 -0.0386850752750237 -0.04998275967603005 -0.13998139762336537
Ni 1.5831668566019694 2.663026541456974 6.354012441146273 -0.5488891301736417 0.5341507955222027 -1.0610325681868178
Ni 6.648049201568921 5.985902760921377 2.1078515883069273 0.8441667014005719 0.3395887344394796 -0.2283499561664454
Ni 2.082819665119926 5.875797633708419 8.639604632032167 0.5473901770306121 0.90316709119418 0.65351760221901
Ni 8.320120299475096 5.275561499368101 3.6626948052255366 0.21042885291165048 -0.42499178259633263 0.9830903471833844
Ni 7.630422005780344 4.0790318515757615 1.2834690876963177 0.21721322282333558 0.15018867717367038 -0.30635234098385306
Ni 3.4135193053584936 -0.33129452781703034 3.7845543358934313 0.5413696818681452 0.5508282561778837 -0.42654190069227194
Ni 6.036719796663191 7.478073183530777 0.19946221200126787 -0.9357612230801176 -1.5030980184359857 1.4780888979861575
Ni 3.049217415826419 2.6898809969413944 11.433387637331377 -0.9013914873509961 -0.676801255337299 1.4478123584898033
Ni 5.292429221753398 8.704888482816454 6.241951811167258 0.46260933583879044 0.1439761206050553 -0.36667890578805235
Ni 2.3691432084981394 5.454485818076972 11.463206497389354 -0.9876820803191247 -0.0009047712024565063 -1.5792055002235255
Ni 4.720544622998953 4.30459811928389 11.914007071565726 -1.3380085128910828 -0.698389780141352 -1.7514136190910807
Ni 6.685048466933364 0.020689461029375314 1.5557144989403853 0.8127565625204067 0.8628370241165657 -0.210597774389347
Ni 1.4625077796054868 2.6013765969065203 9.17078259997839 -0.15947370202002215 -1.6488026916963734 -2.346660253483339
Ni 2.381510391944912 7.976461377801544 1.5399681918360508 0.9418493382557264 0.9390586628844666 -1.275424005290642
Ni 4.370757901407038 6.546005990181792 9.894127071555701 -0.8951398500143294 -1.3995905473689378 0.24779958025062482
Ni 4.454538595283295 3.8303770752222666 5.819935159065688 -1.0743904775509625 1.3269941640584502 0.7822141709571755
Ni 9.425746499616572 2.7462214213804885 4.032519153591474 -4.68296333210207 2.6521839279183097 2.0511703091352866
Ni 0.6531853468974281 3.7081279317826277 10.817966833390622 1.5320573817828131 0.041847275053089224 1.1613184469927742
Ni 6.280399803735465 3.0365805719887016 7.383081126435141 -0.18321218328754252 -0.37572944602609487 -0.1053920896842701
Ni 0.9971018407375031 7.15158883917015 13.502914904904564 1.5248066137576706 0.4228379694781234 -1.414290315472958
P 2.348267774785354 6.02952265381522 2.2210550204254984 -0.3979026396890244 -2.200328488161914 1.4858564577467186
Ni 7.897701946377361 7.849469930934948 5.610390438033341 0.12945890082548672 0.04451890834798139 0.9357517099984207
P 5.240375467666907 0.5880474846696182 8.225031536584087 -0.7333066466231951 0.1356765996004244 0.16006119909237596
Ni 1.202136724197155 2.3252815511158635 0.2677188361298654 0.24922217162976434 -1.124289933484567 -0.9103355839181613
P 8.826226360107384 5.722109808138299 0.0033651757063060343 -2.4521618721622804 -1.37310175704979 0.4452299640200783
P 1.6077617439829572 1.7113950218132439 3.595912944476381 4.000771758987136 -1.8752016947840349 -3.3257036842908594
P 4.047490884469406 6.581601161786487 12.005707412165 2.1635930804140933 1.0592885889125174 -0.005601148236861322
Ni 6.301981933645209 2.2137537328748174 13.48299072146742 0.11958483624488438 0.9069031611978445 0.10609374373698502
