# total energy = -340865.9398754908 ev
CRYSTAL
PRIMVEC
9.30497649421426 0.00000000000000 0.00000000000000
0.00000000000000 9.30497649421426 0.00000000000000
0.00000000000000 0.00000000000000 13.61877366072119
PRIMCOORD
 96 1
Ni 8.241975860055975 4.450951696706823 1.637262698294871 0.1045585380393812 0.5861341305680292 -0.22343529247364746
Ni 6.996393114640949 8.260074039074906 8.20867521066114 -0.41266077183480543 -1.377296511857428 -1.6353712487818157
Ni 1.0408918754620908 5.6203639056442265 9.728843155952342 0.9594050877513026 0.935826271990098 1.2383016465170482
Ni 5.034634253775996 4.108956595595351 6.036657381989818 0.29407789449187416 -1.656725803198192 0.3879930938847963
Ni 8.305277614228618 4.697198591080604 10.464257310025221 -0.5230161190616218 -0.3013672290644358 -0.02131753053085361
Ni 3.5162854313630465 9.062991144146675 0.5748139841010791 -0.786222263675304 0.567384617874668 1.1345224098458526
Ni 3.80332534209621 9.199271827905683 11.243387173531953 2.601077853271114 0.4757317321533613 0.2889711693929281
Ni 2.2903641009953235 8.483961075257175 6.965022317343044 0.6160640853582422 0.872353448247433 -0.36943435704600247
Ni 0.1475555236136308 1.4926298677557115 11.383143265961179 0.9148316720163019 0.6829109677794626 0.05817223746535788
Ni 6.024209184616284 5.461323249710253 2.528338871385645 2.0424015618037212 -0.07764397303672435 -0.4569973889686517
Ni 3.8768160453823395 2.816625648950961 1.2176091949859178 -0.2955609067953039 -1.320177912467565 -0.7399372645658353
Ni 5.193544640040939 4.6317753022980295 0.4811156636553538 -0.2474774210245157 0.5290916358317403 0.43794397188162637
Ni 5.499548092594454 7.893095076438585 0.7166488082489828 0.0005363321194442376 -0.8834552145875494 -1.2365772076267736
Ni 7.499876080468904 7.6322300642042675 10.239125268006072 0.09261473541394373 -0.8596164602967389 2.5878202169302593
Ni 6.47899920915577 8.310730330375195 5.497599630544806 -0.3002529129543345 0.7140146311628026 0.21767396450983803
Ni 4.239040165099034 6.288991591897886 12.277392435990492 -0.5752017999262417 1.1416983587690015 -0.0642644664060248
Ni 9.354757982870387 4.47681022600945 7.945260634904361 -0.963443005266102 -0.5085294954096725 0.6893896335252707
Ni 3.2776127877457735 6.044680132606849 6.6914885797954735 0.8273318892314203 -0.7680435358837482 0.4641689670164264
Ni 0.5233574648338853 4.925505491033563 3.5498149831763213 -1.0574489646006175 -0.5359765358770319 0.6853735703873421
Ni 2.0348587551439903 0.05568842251542517 4.71344414930639 -0.27262409549347244 0.6348483079442808 -0.09985341925422803
Ni 1.3052090339257265 1.3378974158761157 7.195942054657708 1.6341273490723858 1.130732346675801 0.03163716728930681
Ni 0.2954869682721793 6.526342928872132 1.530818421232111 -1.1285137417579274 0.12962705097223481 -0.29510813552860143
Ni 7.568286266662829 9.089277702361832 0.6637165197311965 -4.062575422557493 0.6511118209909947 1.759994418781556
Ni 4.945176211057225 1.9391849882171754 10.703552456560935 1.765622820711927 0.4536361858059026 -0.051899002862136424
P 7.228970998742849 6.651411116118126 0.9847530920908732 0.8854866431952814 -1.1043798248242012 0.20703216852527573
P 2.343542040888997 6.758064755148972 11.578218373344363 -1.4528962007706139 0.027275547886501408 -2.0456308673742964
P 1.5136777242805566 5.704536721790887 5.5791624008226695 -1.3209644129246025 -0.7341774792639227 -1.0605075489212832
P 7.054567826839592 2.9217811867879515 9.971624877129903 0.03983718660159591 -1.3942747915829794 0.06214947694555103
P 7.36165996162715 4.824090553693031 5.16716689305746 -1.4540976772778826 0.6478791729863099 3.112981921579974
P 4.173467996694709 7.5793964084358905 5.2733524917774295 0.6810140078670659 0.04474516542617455 0.017409710836015176
P 1.2046687643629728 2.5666753739861585 9.597394546416743 -0.9878322327437439 -0.6675635387891148 0.24284455023819465
P 5.902323299285185 1.5815389168692804 5.068539726634188 0.11395694853514567 0.3855783137957166 0.3464060144716292
Ni 6.566921930775248 4.09212389336129 8.288494228369263 0.2429787618232138 0.522192851829378 -1.7853267268987576
Ni 0.2410388991054552 9.327215252846717 2.637016342774649 1.3465540884682488 -1.7649301655202765 0.7198255814176248
Ni 2.7393199053574993 2.4309622937850697 11.144283592319082 1.7069954979870217 -1.4540562825169863 -0.34817287656406487
Ni 6.415464830574143 0.9038118942338138 7.2955220506601774 -0.43319977232842166 0.6914300609940672 -0.6150618693459731
Ni 5.034773828421386 3.2573837691405516 3.2826421274680015 1.3567328287734635 -0.7514624915966156 1.6722087293251395
Ni 8.173193474807675 0.7340649325007743 9.56100557536824 -1.358267777360751 1.6977582956594697 -0.7920694664847004
Ni 2.539793297284003 4.144827279460636 3.987522001617681 1.4497872228279869 -0.4612538502521605 2.5029208478827023
Ni 2.4055690133004095 1.3570470572236535 2.415044270727133 -0.20847532872970545 -0.7294011409212019 0.10598832850737229
Ni 8.434002657183836 4.447164571328568 12.826446523538351 -0.3233915558543269 0.4398028794672361 0.04395943630008558
Ni 3.566094969814636 1.9659926251084565 4.481475741156027 0.00813137085788277 -0.06047800278039906 0.9725207991976541
Ni 1.033354844611019 3.6965135184672557 11.515994135434132 -1.7821940948070467 2.2577085687432796 0.26033216549999677
Ni 2.0148809709004705 8.858356104051897 12.336184998619395 -2.834101560764145 -0.5604074152258864 -0.13095194043124544
Ni 4.0802879634322 8.994394858425562 3.423337092011885 -0.3480049835276329 1.6120333453868236 0.21404382395641844
Ni 5.535446691388817 1.0309820756393853 13.219103498935928 -1.509429617080968 -0.15943513547260285 -1.2948394337027764
Ni 4.259110999106147 0.32787852147670515 6.109871727478076 -0.0073389568635744565 0.7192612242737226 -0.29469495925058276
Ni 8.086861904145646 6.316925130928649 3.824655139404743 -0.8055705862949287 0.8767250949525675 -0.5916488897386714
Ni 6.3325295762832745 5.986812484628064 12.595104340296972 3.796751380704991 0.7399431781031063 -0.20070494075566725
Ni 4.630212066269659 5.602489046057919 4.299501109989168 -0.5520431024215912 1.0722302366748502 1.7402460325100353
Ni 7.353769341674424 0.7883501645812097 2.7800273159343742 -1.5027095247483153 1.0849525693375253 1.14570645148713
Ni 0.10492477442327852 8.728226009666416 0.06452815005680565 4.6848505218224545 0.6068366532227033 0.332669124501511
Ni 9.130442917775587 7.050706261650463 12.330110710052013 0.2399934539426448 -2.133286716121068 -0.8394592686225737
Ni 6.089334714155359 7.8602298999373685 3.070733387353121 1.6020772626153765 0.008350685957540457 0.18935583429143515
Ni 0.20554971927090238 8.348313129890602 5.9993825771919065 -1.0011819145777725 0.21602717293503443 -0.20471046237063456
Ni 6.898030209546282 2.7275305003102055 12.225981511107458 -0.3884906023465051 0.8411243150298223 -0.5215287358828179
P 4.7805339593549245 0.17540066536897933 9.192059540729554 0.0547686111004476 0.9636358380031985 -0.510571979760998
P 3.1173531799087253 2.625064100641066 6.573414012781165 1.2454904509560032 -0.8895924378335389 -1.3319648778001643
P 5.388158220596699 0.6970292655952978 1.6074644420016955 -0.016880320695106414 -0.4287322234753713 2.6142231324038203
P 8.487692370777273 1.59110443256669 13.29192331342655 -0.7698937017186095 0.649206633548482 -0.42851419392729423
P 1.8572360614203987 8.033330375150317 1.8270265251721398 0.9066697050307997 0.7894366568475437 0.3486300187061415
P 5.822616871791011 8.26645725285742 12.066028967490269 -1.3529965016594827 -1.50129130424455 -0.29362460900453946
P 8.153159860706 8.480434489216982 4.086095199178069 -0.016973137519228833 -0.14504055731382762 0.4372034941711761
P 9.391605689253403 8.712295890139213 10.985938018119151 -0.2115285137337325 -0.27593644769615705 0.5750051105344034
Ni 4.313880089957269 7.89145740059934 7.785552812165422 2.2156473779071715 0.7008161301946576 -0.5832087293911181
Ni 9.310559345163483 1.9491133979925994 1.4942517251351457 -0.6647270977815842 1.334084495246328 0.5647716057318531
Ni 3.978621791729965 6.987786011508552 2.3972308239847977 -1.54797071057896 -0.9984251777682418 -1.0601481086993354
Ni 5.729101859379565 6.340578380834111 6.665708212294265 0.5832154142593375 -0.48237134895706596 -0.07010678411941475
Ni 5.924283043493246 4.943361740667152 10.281193066126683 -1.4195968152875356 0.7404142042022539 1.684422754892828
Ni 2.3537589049315604 6.716787880018904 13.768171543948329 -0.37338511416363435 -0.24267280054702073 0.08024104433993923
Ni 1.0654104881689725 6.756222369829821 7.503794406013824 -0.4566654595505297 -2.835724183969232 -0.12430512453868914
Ni 6.357243593493703 2.8049665135726984 1.4616480184696268 1.1926247133052235 -0.743709587124074 -0.6627913142114521
Ni 1.6562578770348437 3.687822670547625 1.9862030337609602 -0.021642517970440145 -0.5368496825106045 -1.6252020215582978
Ni 1.1887944746939254 7.154949911804237 3.8647623790064403 -0.06074488328854054 0.7982696817581413 0.05659923655128316
Ni 7.703320083589685 2.78882237958923 6.458649225857877 -2.019431326160793 0.7148556390068592 -0.22522837981832824
Ni 2.3395781209599145 3.6940290897793098 8.22381905968598 0.574358735199656 1.119995162763955 0.4064898671374032
Ni 2.475095796657457 0.4379014924472704 9.389095206631653 -0.3908984404570494 2.422823785319795 -0.36409263311811485
Ni 4.919941115170674 7.434918040504296 10.035143437251719 0.8434035979823024 -0.7842049761349591 0.6371286193380253
Ni 8.852996437668912 1.149573999339274 5.238242954978339 0.10718954790432507 0.16600199005684313 -1.8074672675515386
Ni 2.9537344756059523 4.336565622321359 12.977383475560968 -0.609999367221401 -0.917493020898549 0.818491665231971
Ni 0.2918142941031447 8.360679443472176 8.90978284739474 0.15434692231641803 -0.13545651316981833 -0.903015138997348
Ni 7.323546778459261 0.3601407355098361 11.84119654570989 1.435642555896489 -0.3183704484906517 -0.7346554473416057
Ni 3.1816319565991007 4.794817098066523 10.641927459128246 0.4355333055576048 0.12979802933246032 -0.6726754060943835
Ni 2.5830893522840483 7.591744112064745 9.189798431474232 -0.12364743635003221 -2.4959482732196108 1.658133482178996
Ni 0.4348261977605059 3.5690353423441903 5.984102875512222 1.900900642212036 0.22744724184651796 -2.3097335556603187
Ni 4.810328493657556 2.4519915403571964 8.203608651033475 -1.085332321274447 0.15492773452055253 -0.17814042519158999
Ni 7.665681454216123 3.4788329015166712 3.7433650049342084 0.3516014426296396 -2.1180696420609975 -1.148208134863061
Ni 8.209380527869179 6.446496926732568 6.410397340448842 -0.7223126095055367 -0.8806961637851736 0.7279785495420623
P 3.9074573325336726 4.7460776318962585 2.425721731099485 -1.2507033626155104 0.8519735990395004 -1.57982282209255
P 4.23581133830234 4.848609166399913 8.77378596541469 1.1843894698796247 0.3110577168793223 -1.6876600308832033
P 8.660439256888568 0.8284397247278241 7.376758216267828 -2.214282893459477 -0.9633584159720957 0.8844687434537283
P 0.7093378883234431 2.126624431999879 3.597017267252021 0.5203077189915233 0.8020970259240314 0.40156594747322455
P 0.9292851975151646 4.777705246541683 0.2731233880901226 0.24510506413759722 0.3538727551623196 -0.27850600819554616
P 2.8424469583481518 1.5141429730985239 13.040438647860089 0.6987448494879256 0.11287682809708949 0.6221995088320188
P 8.319169943933124 6.168333963446223 8.790033384635748 -0.2694716659074198 0.9142297767662448 -0.6835925672275195
P 4.975119624981606 3.98411172778198 12.11735800858134 -0.16346611100886688 -0.2968950522256951 -1.2053771278748853
