# total energy = -381158.97382584773 ev
CRYSTAL
PRIMVEC
9.36294873057009 0.00000000000000 0.00000000000000

0.00000000000000 9.36294873057009 0.00000000000000

0.00000000000000 0.00000000000000 13.70362188855816

PRIMCOORD
 96 1
Ni 4.44339332883856 5.59383757144253 5.76278449183444 -0.5745585099152879 -0.5507560081790515 -0.9073394774043148
Ni 7.341712849856728 2.8487707960697644 12.205130869890082 0.9446775517331408 1.6522361428579546 2.1520174597613515
Ni 7.065271787101322 7.144182719426557 5.495124938740618 -0.07704876265488665 0.9641256331554234 0.30196475343911866
Ni 7.862957571436954 8.11687137942557 2.2286065206195675 -0.8952120980131615 -0.6793121946846107 1.805811734225987
Ni 4.785019241006435 7.516481651800586 7.140052722719313 1.201823349085356 0.2364036797088574 -0.09823465270388243
Ni 9.28503032112296 4.991444172778439 9.438383250320317 -0.9011873417599899 0.59879629941673 -0.14795001765113874
Ni 2.584220678266073 6.74554581213192 6.981913454105171 0.04818864389008475 -2.08628772166371 0.5086685920906981
Ni 2.049455858646259 8.918545779941857 10.830342884137265 0.5909431219208984 -0.46418310808381347 0.36138551859959694
Ni 3.9705082377115652 4.289719250498019 7.705340755364786 -0.5469543750447742 0.4354446024985404 0.3019148740377897
Ni 3.8141938078148163 3.510899807955854 10.452341915955682 -1.6556801355424968 1.5059030919849483 -0.21870137733308787
Ni 8.946381826667405 2.4015214587048117 5.49349391306299 -0.22068909718707796 -0.8180682045413072 -0.5152958675992286
Ni 1.950386497595795 1.9626145087036209 10.329557141938134 0.3440367429085042 0.4036169164649823 0.43014298777996884
Ni 5.669948982082284 2.2796065026290067 4.819111610107366 3.0687949426501153 2.0844928345468166 -1.8856763690631138
Ni 5.206876261277648 4.074446332128086 12.42930888884551 -1.9964675182757683 -0.004580163171514693 -0.8601437935551187
Ni 3.417738467586124 6.218486699358769 2.78305506746142 -0.25024084270226576 1.0289387729760668 -0.9417596067553975
Ni 6.422870508296541 8.580796128569265 10.834508460049877 1.1085169869210263 -0.5012064793856981 -1.0337552205281035
Ni 6.60852841967256 4.582283311054096 0.3097516256331335 1.4088277496964896 0.11685535312886326 1.8448536786197969
Ni 4.045159028341501 1.032405547323449 0.8176653807391473 0.3386366549388555 0.5614353422697685 -1.2608527923446866
Ni 8.847686983568176 5.2913955999226285 1.5431375500125069 2.0577317644028885 -1.1007468560573044 2.5853288179669733
Ni 9.069027092748119 2.3326476074726776 1.0632077762227796 -1.6195553647954817 -0.3953420780506998 -0.9006525523024425
Ni 6.3812709268631025 0.5997062323639798 6.218114053997289 -0.004759111951540191 -0.3579551527618094 -0.6209622939908079
Ni 1.1595731176653261 7.796705345863466 1.9477367830908066 -0.19865165777106433 0.23453191660744127 0.30318165656535523
Ni 7.157880713492981 0.2629593528058205 12.735323761620194 4.106652872492682 -0.7567147411344903 1.338259195449308
Ni 8.325608959546452 2.6794605932651585 8.210401619977267 0.3011666830178555 0.30722625894837413 0.8831207140662661
P 6.113078621983649 2.440527503325947 0.4480704679730357 -0.6642522150276946 0.2368991312880372 0.36453923373723024
Ni 6.726539026106739 4.156971362682739 9.429736567121177 1.6753914979284954 0.6889067803515813 -0.4957521411393462
P 7.386701818748844 1.4651704029243842 3.809908386157809 2.6057099527264866 1.4807841854301336 -0.3118719852505016
Ni 5.850747523041026 0.15118353396482775 3.7841321881640533 1.1801810882252322 -1.298881464982634 -0.2694287284846263
P 6.863209989461206 8.262409055275528 7.4396418037456815 -0.34995028017946184 -1.203488909713237 0.7733024702898424
P 5.249758566694067 7.403405319373929 1.878506203510121 0.35209586576755486 0.020696866227719192 0.8188598472046672
P 8.796003506297732 8.73899251117097 10.917552197966993 0.4325832217903453 -0.17819570390955763 -0.209238175037659
Ni 5.847198965453074 7.809139341844472 13.527325299750958 -0.006296374531673027 1.0045346331000895 -0.4017315265168114
Ni 0.6923900623458854 0.6441727487141229 9.082651119519173 -0.7974279025831363 -0.6471132413545629 0.0455864303805473
Ni 3.0430987980168753 6.7723893862866955 12.287489239956438 -1.6976932467494892 0.19292683947214515 0.9672688067700954
Ni 5.3450640223346175 1.1292933413079687 12.479175954052462 -2.154305998685212 2.1310778813952074 -0.2315887748187173
Ni 3.902008904430666 8.958815822648411 2.7102609495747325 -0.13960190279675957 -1.5542007506490718 -0.22629615896121028
Ni 1.6952274174193234 3.510909170904635 8.549292614806248 1.0900420680452905 -0.461170803620051 -0.23586091983150992
Ni 1.8686947694826397 2.7343274731210996 0.5278624537785511 -0.5452954992851126 -0.4029268323764931 -0.7619659622311006
Ni 1.4964801036476385 4.376663592877247 10.979040555200768 0.12074748909441786 -1.0230422049859735 0.7014810174721661
Ni 6.184957979774446 0.8025872880224223 8.9267308697661 1.7607315540578967 -0.2969176779335144 -0.989018282632045
Ni 7.001313483979148 0.8446671887283196 1.6699231120441242 -0.5825340719215967 1.2057121426168007 0.09355704472255501
Ni 1.2050302339964862 8.79897156106127 13.264900571320524 2.3520235746777813 0.6532262962308363 -0.6961737463266398
Ni 4.451520368380361 0.571013475824981 7.5641933661981815 -1.031118811346521 0.15879313101322973 -0.9008798378219
Ni 4.359014434425292 0.8206353080924416 10.259682391481324 -1.9174132951550784 1.4980617415636586 -0.8531370232199824
Ni 2.0779192229401264 4.388694982060674 5.870755208290883 1.080761671184629 -0.8213682154488177 0.12061816260540517
Ni 7.841291707958005 6.722840661338292 0.33870654473799694 -0.4017497813492565 1.6642871604852176 -0.3954431224049383
Ni 5.418769155137684 4.5751206552367245 3.0504945912588908 -2.058117172766765 -1.6456744304800366 -1.2984808871101055
Ni 0.25596803895113934 1.1104269995145004 11.967633119998982 0.09145105412314573 0.6960292503289756 0.158003802342715
Ni 0.8671710361231585 2.675191088621078 2.976467373017761 0.019915765087320538 2.6515884604261557 0.5496152097063889
Ni 2.501302403862623 8.825618513291648 7.970506018903381 -0.9245291018097238 -0.03535678223273911 0.8115753977281119
Ni 7.670923491941159 3.6959584906098963 2.7752164067420697 -0.8178411761321657 -2.026589020251497 -0.2261208097256106
Ni 5.112731811285926 5.707691028618001 9.208066882144148 0.2348311930154149 0.1756693379432781 -0.34226936659543633
Ni 7.4336850957312866 6.530544419276632 9.414347624504927 -0.8460168672354333 0.8080049067680342 0.4644263344428711
Ni 0.7782286404740915 6.640905496556834 13.428631392946606 -0.232983855394031 0.5730526147937228 2.297688708680643
Ni 7.430323797118952 5.9671945170287986 12.015048028920223 -0.41732115342495224 -0.417428625537094 -1.4740365822936548
Ni 3.3755958351233946 4.246340708796214 3.8405767248895732 -1.0010219919611405 -1.367161223195639 0.6701883780064716
P 2.677428833379708 2.206556776240601 4.160748376220945 0.15383578700795442 -0.4505472624679338 0.3470698733078732
Ni 4.510366501468177 6.036377345570702 0.35817960561246576 -0.4567819305237359 -1.7728157389159402 0.1768715857814954
P 1.2020247274378244 5.795037977794806 2.859000753907751 0.13138105754886403 -0.064680728007837 1.078934131057587
Ni 3.3125270121354045 8.188226412084637 0.48810269178055515 -0.06210396841959626 -0.0823812306113936 0.2803592593542011
P 4.397552331607384 8.753252282164247 11.699590622300022 -2.058209218259939 -1.8864045054783898 1.8214149879808825
P 7.7509486151713185 4.020291036379491 6.339405437684288 -1.8296831415269457 -1.0564544618978322 -0.3009386261674495
P 1.0205520541668582 6.630933956105199 8.390165555095724 1.1797301167307424 -0.1838379897969995 1.739433821021385
Ni 8.289018555710783 0.4746921402417045 7.605592580527709 1.165665153997244 -0.5431141753630776 -0.7387090485856891
Ni 4.670884895367539 1.9351342540317458 2.797717445252274 -0.5347727453769178 1.215174059360649 0.2195526695897896
Ni 3.847666349706453 0.35489508318013396 4.973510380683546 -0.024447848629719188 1.6744111362930971 0.2043798185040932
Ni 3.8598100942752516 3.539035469042391 1.094800237999216 2.254157875277544 0.3237581951651263 0.012026077926598643
Ni 7.571133183834568 1.3147733566571502 10.66759798101781 2.08535595387806 -1.2433356093965298 -1.8504954502866067
Ni 8.660325015514038 6.839034855708981 7.363901165877651 -1.1952860621874706 0.4384695053677932 -1.1867708256276077
Ni 3.1244440970251386 6.053258742222624 10.159742276194237 -1.7303048621369232 -0.28992633421734587 -1.3936263593657032
Ni 6.9440122374401785 6.0149736446576165 2.7154133802888496 0.6476158920225943 1.96074075429812 -0.5501530844877299
Ni 5.965256386631157 2.903515957591555 7.371712674045537 0.7919900193970166 -0.020303744554358582 0.11684841115032779
Ni 9.201241292482889 4.553913576248037 4.20920444504662 0.36916824786880936 0.722903191901684 0.6195551292306363
Ni 1.7178014869300189 1.644096354126952 6.630661494295676 -0.13204491638510807 -0.5125530147467688 0.03036678521731544
Ni 4.428936935920886 7.969479839716998 9.42621422578981 -0.40759672704833677 0.23009213566853276 -0.2967880943341856
Ni 5.0885379516361375 6.77424325014531 11.358562066264367 1.3212444060588666 -2.0722201878270505 0.5094108695733613
Ni 9.142423248241416 4.60056915002315 13.19402492163904 0.06162959988633903 -1.6047841200235782 -1.5417211301248224
Ni 5.777491811779441 2.635557726431624 10.588418332062563 -0.37932641934873385 -0.6907965411751265 -0.3500677795939326
Ni 2.1987387140085684 0.9995415971025693 2.2680863304490155 0.19886685910566396 -0.2271381952465314 -1.1045813993120461
Ni 4.06948396927422 2.42764408580346 6.029662238705057 -3.9773595507107826 1.3834280786764626 1.9844761502418469
Ni 8.837294110421402 8.130803447211516 4.320957792810538 -0.10177454753634084 -1.6128887514085835 0.7805087582302945
Ni 0.9474461500857673 6.341731194161458 5.364625094927627 -0.5143185912876239 0.7724861450361342 -0.883130227147963
Ni 2.092001097906566 5.143002224694502 0.8149903862724506 0.018792193005838603 0.40701848594736356 0.806626795473585
Ni 6.413947618108365 5.457419407705147 7.223850178013286 0.12010831284852216 0.20506578882752424 0.809610046471625
Ni 5.118059329142245 7.403012075525132 4.251110194905193 0.4279953453093468 -1.3667560173374202 -1.0668424900003757
Ni 0.47325118242432745 0.6090186212214405 3.673283301252367 -1.0374686648239488 0.143501752071798 0.2580999337353684
Ni 6.60832243479938 5.0055728624887825 4.840708187765338 0.4805237542253659 -0.8205971416107479 0.32271149906816676
Ni 3.0154593732157253 1.6366247209998117 12.43258404832906 -0.7594048863721438 -0.08027112624692627 -0.34207421986549474
P 3.4050142201929114 7.81147071609091 5.358431504309077 -1.0731602046882873 -1.9554183136439423 0.4324742070163068
Ni 8.732335454587767 -0.27753840035252475 0.5817012818583526 0.5786972146740098 1.1467927425727733 -0.614352244873458
P 8.896608390948261 3.0916925021896295 10.521956376436384 0.56788058367448 -0.02949723812816855 0.0411474207725872
Ni 0.14836341379202747 4.473120691217845 7.136188633757444 1.2712976418270943 1.3613785550755908 -0.36878103973271975
P 2.845662297074513 4.364360678179174 12.653060893631405 1.1124006382461487 -0.6643062081940817 0.02753882885021709
P 0.30109089801082184 9.440754885246514 5.824381459274076 0.07442366632721377 0.7230620860770515 0.8339843615509315
P 3.8591921396557134 2.3147175605572974 8.568805936360473 -0.8927574658250819 0.6800917531631127 0.11481749676322806
Ni 0.7280151461622459 6.582995658347107 11.35865850463681 -0.8359453419320443 0.9670649182894054 -2.9219294163124063
