# total energy = -381177.6403159863 ev
CRYSTAL
PRIMVEC
9.13937701436604 0.00000000000000 0.00000000000000
0.00000000000000 9.13937701436604 0.00000000000000
0.00000000000000 0.00000000000000 13.37640208291950
PRIMCOORD
 96 1
Ni 0.8855453338229861 4.6220663865612375 7.04791940387409 0.40858865864796085 -0.2725456768470532 -0.6569970761271782
Ni 3.2961712347307746 7.723239868685051 0.8587102943964509 -0.7273835962705408 -1.2264316345523394 -2.5636621316268173
Ni 8.23635192458178 0.7294036435148866 11.53337494927051 0.16975914310643023 -1.175732565535575 0.7950272635614437
Ni 8.69701309454809 5.995568554389527 8.314142647823688 -0.37764234677809155 0.8045177195503822 0.9519440034875669
Ni 0.6402270841182259 8.614246894341461 8.304284915542011 -0.37300176268228663 -0.21728367104995483 0.5855808291677205
Ni 1.4391503144806987 8.44756293239706 10.743658727530846 -0.770512566249531 -0.21440043596488884 -0.7053880658360562
Ni 6.731005100814793 2.159004222726603 10.108199656514188 0.696443969268891 1.714688238645589 -0.7679172947185292
Ni 5.496101588699127 7.873600902894355 1.8350416319465288 -0.28290619414577084 -0.36520643500758393 -0.39324328654014207
Ni 4.394084621526525 5.947586823925216 7.990340910082886 -0.35323383602674 0.19570568776886293 0.7429732231786816
Ni 0.43672057130892794 2.5450240988449084 5.1045825493007495 0.20805109670809332 0.300449859456489 -0.13210970818477247
Ni -0.15587664836839185 1.3404267616282248 9.470158711429688 0.689445940684503 1.051185243079093 -1.2081282082574614
Ni 1.5066080578249044 1.4852858907442876 11.391919324235383 -1.1843709579368633 1.822303818343739 0.777032626756236
Ni 6.1694269274604965 2.1731702574351135 7.754033172390462 0.20881728545015654 0.09499429138971381 -0.907675777697811
Ni 6.918846721049647 7.773899436678132 4.396689344037445 -1.090252898504516 0.6325158031563622 0.24982509532108588
Ni 3.2343524871382794 7.646816396276943 9.339618244621898 0.8465136043661937 0.4346182499425031 1.6116962737623792
Ni 7.648525459819195 6.910895462858418 1.916089629233674 0.04637961570580399 -0.09632586571694379 -0.6836964397952354
Ni 2.5894049146800886 1.4268761308590665 4.510442602746787 0.6250719452838074 -0.6584160679618919 -1.3103673541350465
Ni 0.4576214130991818 6.104080380256721 10.701670600654818 -0.8472013744618375 0.03699406072584597 -0.47431299742896377
Ni 3.739979393082574 1.4033879313746322 6.769502899526186 0.1319209892127341 0.8655567370405739 0.2962664175027608
Ni 3.142346376550809 8.683185216797137 2.731929846851278 0.7140161738246993 0.8227159877259638 1.8570198816686856
Ni 6.904662407586673 0.03257731014095938 9.236231781506017 0.63776188204665 0.3028993494382461 0.5127892991272911
Ni 8.644662741767219 5.516016291686124 12.97017461592732 -0.5370072911343913 -1.044557967570562 0.4136046238053135
Ni 5.311047478519819 7.68519264127116 12.642786586560955 -1.3019503337159448 2.872101437046686 -0.048140307150652574
Ni 5.040777815035893 6.011608161430454 10.656578741271046 -1.4170588793570307 -0.662832966082665 -0.826045566319829
P 8.229835548615863 3.0916319722943406 7.862729613677727 1.0814777234150472 -0.24392132824214122 0.3651133610731454
Ni 0.37205490770888355 5.482566171019576 2.3345296182045607 -1.4746757585395507 -1.7083471269189094 -0.08683618105895369
P 5.171662836365303 8.329866032412411 10.511216946407261 -0.1942239610170139 -0.08779083166273913 -0.6278294534242865
Ni 5.770209790620196 6.480129195815681 6.267527174785796 0.2803258350131043 1.235252061057447 -0.5128204094755426
P 8.297631448917627 4.428083104826951 4.103091420170633 2.5266786124239324 -1.0428309575771264 -2.0954444484623136
P 4.648561441154768 2.353362218927372 4.818889272801287 0.3048749851073782 -0.2188193909681909 -0.2464129843157434
P 2.027314936200839 6.39326855460943 7.766873997400435 0.317139404297028 -0.3955847901891252 0.39969084193769877
Ni 6.930801026468185 8.977445745513217 0.06158386559765089 1.150650939976599 -0.6963133572282976 -0.4746984057928405
Ni 8.712805938403772 2.5448413113002823 2.6077430750946866 0.3615508405328676 -0.7787485810060781 0.47490100872194985
Ni 7.314554337033128 3.2385200431557513 5.568984466367831 -0.7971018867022853 -1.3643085842381921 0.8718556826754083
Ni 6.1781733114708475 2.894111751571542 3.0386775066784804 1.0993816002786616 -0.24545396283658372 0.7923515165014934
Ni 0.7886222382850777 3.8961804893426764 9.504629700532973 0.243575000646316 -0.3747313437788836 -1.157225250760007
Ni 1.3632569259520055 0.41244272963170964 6.0858217324240345 -1.5592771367307148 -0.46454460518829027 -0.8814970624199141
Ni 7.376254272721617 4.69746624871944 9.799190914759963 0.3414679537400635 -0.0935318479115744 1.1954719529460316
Ni 0.34809511635931445 7.632577246550581 12.907345053213042 -0.44566807999876146 0.2914378857658658 0.015804571132424394
Ni 3.0058863351103087 2.757615152622116 13.398206381302453 0.792418622294003 0.8554193914962558 -0.9031917737845283
Ni 4.023528571683574 4.600451759409219 3.904237764309788 -0.04858382244597439 -0.762212531024268 0.9197612481074354
Ni 2.8327773909723053 8.482685559096936 7.323499959467123 0.23032250651178396 -1.3353883016594164 -0.2512975661015543
Ni 0.827363144430824 7.854910876456353 2.2035751376081936 0.1798808049214644 1.1291056097056553 -0.4205507161058435
Ni 3.2785230972971395 6.0185906456351645 5.778405070183502 -0.8677848550401441 -0.13984178672170755 0.4731786267142044
Ni 2.6887133876753655 5.369274450860414 9.976094528324401 0.02939567955329776 0.009208148861829303 0.3733563178082279
Ni 2.1331763426709567 1.4210726263171924 1.7005556959879884 -1.3696832182865442 -0.9024438398749103 0.5461226231720981
Ni 6.012522099153583 1.5492798101178318 12.100881836634748 -1.0877370740611976 0.3048767848795911 0.6516152429899745
Ni 7.905488190054352 5.5060635098812405 5.8911283210788765 1.3378136232714573 1.1491332177804918 1.3508714848966799
Ni 3.1964606291373205 2.9072084791439914 10.250002577884104 -0.6627416919204392 0.891310191855594 0.8899505925039061
Ni 5.4386057665370355 3.1203478955550765 0.4897289592504525 -0.9518671275030445 0.11636041577031572 0.7032977589659306
Ni 6.372622701443929 6.910639560295942 8.990695100685429 1.249439151191106 -0.9826339763722561 -0.14830611543897684
Ni 6.63355192139747 4.306054140034669 12.116947033931924 -0.3164647468275066 -1.1549595946542819 -1.290621796077003
Ni 2.5731825200945355 6.01749392036741 2.7591103547371567 0.6046555864109845 1.1058854628354502 -0.7539898860041596
Ni 2.4219806631799523 1.1009476600365407 9.12734798298551 -0.9108343779314506 -0.9392491816287178 -0.6188673591349922
Ni 6.407041596096996 5.158694060074092 4.239169435642865 -1.8795512300019823 0.964330807187694 -0.7202331012686887
Ni 5.278246253636692 0.36531461700080176 3.5571196473764997 -0.05456626528165442 0.9867300008185007 -0.0693349389503967
P 7.465408897612922 8.014703747968355 6.911908105855646 -0.7684947644885539 -0.5063643694375538 -0.16528619493674115
Ni 1.6388274282300832 5.410748944736041 0.4344704566345825 1.8537406966967818 -0.5147129985125651 1.2060373871667036
P 3.307458365611427 4.154075436055425 1.81969935938835 -0.10790225770063352 0.7854851283989633 -1.6368133805449812
Ni 8.66911971523817 3.041868063269926 11.162073126245485 -0.19427281197707832 0.7485728287536463 1.533172983444495
P 2.279013385150768 9.013765630630393 12.746668403922774 -0.6210078025167628 -0.35937800125126496 1.354316763132803
P 1.291128960842607 4.462584253875098 11.937208385550338 -0.12122391451020413 -0.6816470134653745 -1.2006133879376548
P 0.5767148099247712 0.6633222903817143 3.666364451297643 0.4590810109705577 -0.383521688377004 -0.28031915014488495
Ni 4.592655870630922 0.7301192567520972 0.7469183460409448 -0.4036475125926016 -0.14841281622017022 -0.09679817736767202
Ni 5.055245449193037 4.120625315388877 6.069676108607225 -0.8521962565732678 -0.4648009441734705 0.3739993507088656
Ni 5.034398529728447 3.803881918683805 9.011240420701386 0.7880567457808815 0.21221319850558293 1.9213188008570716
Ni 0.2977389756903123 7.2569031454581046 6.446917612894869 1.0866541254096642 -0.008003329920450733 -1.1044435881826011
Ni 4.7100968680530935 1.3555981278321787 9.302712525424198 0.007152294774065102 -1.393458466329271 -0.25193571390618547
Ni 5.380753508662924 5.315580609626542 2.1297371950188193 -0.6715610899842822 -0.04877922628623212 -0.7750091685683039
Ni 4.003623008073808 2.3383553615135817 2.5908215181509395 0.425128565284513 -0.5094352950533936 0.2820800987000497
Ni 3.077694422016612 4.006712117577987 8.077033386748079 -1.686288090236341 -0.6645795164601265 -1.4971315164399055
Ni 6.972385192870587 6.623242703880566 11.667713741255625 2.4973580090829444 0.4979882295587165 -0.8619314815831607
Ni 6.657423974725618 4.595434241309236 7.651930791775577 0.4904914069610391 0.6116662134008628 -0.3311184921849394
Ni 5.850197620148512 0.7154834580538976 5.8214634181333125 0.166493584981281 0.4226867886122398 -0.2302921674944808
Ni 7.712775281755216 1.1072172728172107 4.464882807248769 0.028697110824376384 -0.6575313513640934 -1.1114027931092536
Ni 0.5421835009317605 2.9048231016866226 0.05246825074715492 -0.3343593677197403 0.7322062144701648 0.44026027871962886
Ni 9.467389480128604 0.5586288963217569 0.4918090815082958 -0.7405355602714666 0.32766730041154535 -0.10419781226585278
Ni 1.956978289028775 7.67490170250872 4.424431923623048 -1.0979258416687414 0.19654283895817762 0.8210722814749536
Ni 4.337712942763883 5.8288297561817375 12.866373225085136 -0.3730382723471769 -3.752883475677446 1.783136661225974
Ni 1.7390041420623334 3.4066023298165407 3.134652848797503 0.5986268637184012 -0.2768718150262328 -0.5767004959589552
Ni 2.6759913745693997 3.507921465802703 5.623921262905159 0.3851725937168657 -0.18756506093959954 0.5713423169708354
Ni 8.92928122750428 6.8287598796807485 4.117604751213933 -0.5127982979883555 0.2558147372456175 -0.1475836354506555
Ni 1.2458890435476853 5.04765976609106 4.591704461461144 -0.1505961970247342 0.8121122440681885 1.1989488557510386
Ni 1.338955321893986 2.2769387465192636 7.367454880323324 -0.6577686641858801 0.58343241536615 1.0020386061511128
Ni 8.071879691927352 1.0077534304090017 6.811598871053542 0.9676323607571012 -0.2079441388165838 0.7001234750030072
Ni 2.368231985682693 6.72027547194525 12.121856707380577 0.8107824695131715 0.573578919610838 -1.2823209895207914
Ni 4.020183559616919 8.23967865789397 5.280254174814408 0.9417202688770298 0.5164870596938524 -0.09036861969224437
Ni 3.6728049704325385 0.725376833906777 11.367320690417346 1.2532379561119062 -0.6702151174793489 0.2313614892992596
P 6.481975350016403 5.617819814665545 13.76605717548494 0.40611062942111353 1.8103967824935077 -0.3595443516258002
Ni 7.178030319952009 0.4312086129007325 2.1783742188306143 1.027448047363153 0.9026546703341358 0.843506956329386
P 4.868473136094245 6.96219478725769 3.693612590575033 -0.17659776329481844 -0.4205162633234822 0.6021919553618403
Ni 5.353289680082875 8.541086179604925 7.665802538537241 -1.5030160002451405 0.2402217679033669 -0.5363866268312568
P 4.617661206735751 3.598291627865771 11.654885711373778 0.20037224000659684 0.029343486159123657 0.6173745766395496
P 7.54260921708569 1.9244146879536626 0.31724789032823963 0.47928268272941327 -0.20497605732719537 0.35307879850611446
P 8.403054165280642 7.924507234072681 10.354138469932952 0.2472632481311806 0.12812784071888902 -0.17467509235080886
Ni 7.593058579402451 3.924503419382467 1.1812955810277679 0.22219242120548183 0.5494925680855955 0.09925126689385487
