# total energy = -340887.99984302453 ev
CRYSTAL
PRIMVEC
9.07949388604356 0.00000000000000 0.00000000000000

0.00000000000000 9.07949388604356 0.00000000000000

0.00000000000000 0.00000000000000 13.28875707153463

PRIMCOORD
 96 1
Ni 6.474723328773543 1.9897620198388661 10.945218279996299 0.9527834686697269 -0.5915828123874264 2.921342433460685
Ni 4.8430474708629765 0.4753578137471119 5.915211317393411 -0.1789348960684273 -0.13128952627632226 0.8915567606487613
Ni 2.938605455680421 1.3466342248170025 4.7968954951613165 -0.6513249654430653 0.37599581231360407 0.2159662377901119
Ni 3.525994237337903 4.624431415513966 5.010752079781281 0.19887482952546393 -0.9951861020056538 -1.3612266028787587
Ni 3.6409406307558974 2.743895707904047 2.771237695987692 -0.2052038570672853 -0.4495962114085741 -0.14054549765695148
Ni 5.043123199564312 4.531384761505466 2.2434612398140317 -0.8563033367631059 1.3122856542036818 0.8824198313444995
Ni 5.0515308109628165 5.037357720905511 11.325555557749993 0.5566880573927703 -1.033628208031936 -0.8639109739070348
Ni 5.4256332002204495 8.149145444204796 12.63633213710683 0.8690634646422517 -0.395150530865184 -0.7548200952149389
Ni 1.9721750400560338 6.620630796563997 0.2242144713191156 0.3478836274584202 0.782347096990614 1.0187065537250972
Ni 2.6919065255413748 1.619527495004304 0.0017523423325176075 0.16883046064457374 0.0199720722465527 0.4621843324862298
Ni 8.116205040151046 0.15825648751303187 6.396928408703712 -0.8954139296113224 -2.828649022290006 -0.09977242950464753
Ni 9.002336411273951 2.578821428383308 1.3936850704197976 -1.6692779288315895 0.14868303916242134 0.3110240354279095
Ni 6.691033192659032 1.023077378383855 4.521366447880078 1.3304432989493153 -0.3646451631874752 -0.5532525493486601
Ni 0.6893024694584002 7.555065075505524 2.3435653844705415 0.3585009979629503 0.24058763588321794 -0.056904426496527806
Ni 8.001412998130217 3.960738566693385 3.667138602601733 -1.6471039638377116 -0.8035121611040031 -0.23463167541009916
Ni 7.850929465388523 4.226713262490126 12.724198031866965 -0.37423614931001997 -1.247765105922793 0.061645026505306746
Ni 8.575445844185971 6.9583334945725985 9.078573290181813 -0.7489374111819166 1.2125736456233245 0.9341337147790235
Ni 6.858277471234028 0.8615250345666579 0.2521566139529132 0.2370153451509273 0.5006416080211636 -1.4448329641465052
Ni 2.0952566600540066 6.523434813819951 9.001524704514745 -0.47501156615788515 0.17693072115420497 0.8617515043618708
Ni 0.3708246919413685 5.251152564966611 1.2620787135513547 -0.9672572368058696 -0.9312669347541898 0.8681936604427887
Ni 6.829667985794842 2.0490783538198896 6.828839935946522 -2.898210475428912 1.5575593827086596 -0.4650662820197151
Ni 3.400343120551835 4.212149754192932 0.37563228398835335 0.2351397253947692 0.7701433558355705 -0.5463722772890589
Ni 5.679686520459699 5.68294605878806 4.777400913699408 1.3075882487280126 1.2330540249648636 -0.27864896153131363
Ni 5.47823070867783 3.0045770587274307 9.275884312975112 1.709352171144656 2.3106606954602786 -0.8785528921899257
P 0.35661346800946925 5.728461561963764 12.258453586315031 0.5745777931889976 -0.2882582024863035 -0.45860972776109404
P 4.064144923299826 6.315314653478145 12.700490565211851 -0.24913783944607415 0.5761453947864336 0.1755166144154977
P 2.3471581402269 8.662427396235291 1.143436058145962 0.014783586067077767 0.17286349306336682 -0.061934532721267525
P 6.370581533157081 7.939981142058641 5.481134330843317 0.6186704126328376 -0.3875683476425519 1.0578557131207331
P 4.780507916529395 1.293110607976633 12.482501902894848 0.7818035657823181 -1.464237336815046 0.4658828643837396
P 4.087343030344295 6.247917569880849 8.203309165368703 0.7065468620308476 0.8297973200527774 0.5847153958436317
P 4.784239588543201 0.9862600304130834 3.4985442032762424 -0.5308417857536277 0.6807620397572599 0.22479052094996124
P 0.14064408514713728 5.757216319306164 3.5517391424355904 0.7436764198932934 -1.0917184273064489 -1.3762153629781073
Ni 0.717278206219816 -0.08608449804697378 4.8279918539936455 1.7685556780880056 0.6462213256679129 -0.9607595448966679
Ni 1.6944242406050178 6.560488228633445 4.670878474769029 2.325527585269782 0.9615121067919762 0.4697883700857329
Ni 6.1687988595929815 5.700741866931763 9.101656087653108 0.7093146545839719 -0.15261554144760814 0.8946675383636011
Ni 8.715288210017247 2.4978051038597093 9.790744281054266 1.365293830969597 -1.7408003623516084 -0.5437996314658764
Ni 2.5228281891883024 5.3129566802901715 6.877555960739907 -0.6727407121146801 0.633724992973115 0.6577948894381253
Ni 0.5310287309068616 0.2670142978541143 9.053111665295393 -0.7826126919471748 -0.8992572146168125 1.5085690688528857
Ni 1.202497258346966 1.3507926330465 11.261796627378809 1.1416772757230789 0.026127550324987262 -0.15563504500022227
Ni 4.385586247642421 7.07188164592216 1.5161411132845553 -0.5703005059698824 -0.8538247933156263 0.047163802169996195
Ni 5.917051730817252 7.989328191681611 7.795317564939453 0.4219627659620217 -0.06239758840061513 0.0704482266192335
Ni 5.505641700915501 3.1585289581583558 4.391230061082281 -0.9162987434801316 -0.3604810045074566 0.24358425661769664
Ni 0.7834495581337451 7.554847167650704 6.97162768961546 0.22001392549692428 0.055319855618227304 -0.29962684933456135
Ni 5.15809683146416 4.6988197094534305 7.272432232157126 1.042973910912894 -0.6215973564716456 -2.155133379682514
Ni 0.8937263678128078 7.703569278565928 11.231551017129677 -0.17069013956113185 -0.4500914058774378 -0.4077713049529881
Ni 4.560457301136147 0.5036059353270538 10.282361652568595 0.008014642774360389 0.12981474150300867 0.36055865182292746
Ni 8.40199119174858 7.250266463574871 4.753348426274162 -2.050195346816527 0.16501031556753518 0.6418051988780882
Ni 7.276896619332768 6.108320350386247 6.868347537974936 0.12631752698302762 0.29991404155767704 -1.0972352433596197
Ni 2.5644031919893293 5.257308461865299 2.563388104565622 -0.5702390566043276 0.35170505808703945 0.20458293565383476
Ni 2.545744831920295 5.501256305337232 11.481074577836837 -0.8055883269067416 -0.9529665312148105 -1.605835444106228
Ni 1.0784532119902015 3.198787434336506 3.8194416659311807 1.9942394002761976 0.9521304084667601 -1.1617277666160508
Ni 1.5714061770647014 1.1920195223276637 2.626682164846521 0.25160815536343767 -0.9231695024580359 -1.0758421223958246
Ni 1.4399895816198316 3.598539394005342 8.01369210574937 -0.753029064752787 -1.1688049851778064 -0.38974118692415455
Ni 3.871913877372039 2.794858907450272 7.0319854415526475 -0.5271247419133567 -0.7442441194713053 -0.8431979097293995
Ni 4.177111987036531 7.056909560397177 6.103566327353572 0.29671070412903094 -0.36165419887995137 -0.5602269237839642
Ni 0.38043533628836274 0.36377900463549456 0.22469931629609197 0.806836854601862 -0.772835815066069 0.19107975896107737
P 0.2376512144170058 5.614713661747285 7.709990296687982 1.3338258422683027 -1.3060890384746668 0.13804844226671065
P 8.696720644887721 1.7111395889685663 7.641673460353464 0.47528821685803946 1.4341106926329947 2.7710249440186345
P 2.2209168563340254 3.2452381253891494 10.420923809752798 -2.3764505973718943 0.5361344016111347 -0.35452992913034426
P 3.9661862630639066 6.450508318406576 3.795548069650075 -0.9243725216272015 -0.14929676148702029 -1.1333085920434094
P 7.327024505435513 3.868082330924773 10.294215839870846 -1.6855393849957747 3.239983104893588 0.5102084257739923
P 6.788156539451471 7.946309549342396 10.055483257724294 -0.12107556185779793 -1.1620882352792632 0.30813077304051445
P 2.6162017049790336 8.528786324772458 6.084456716435179 -0.3658504963494861 0.01607325141277877 -2.151548233434417
P 6.9348266847338 4.121227701768936 1.5968832370908381 2.175703747634698 0.6977889133325595 -1.034817857464663
Ni 5.511098476779974 3.2248183434936464 0.08378012248224337 0.18041019506237316 -0.45454249967025584 -0.8632723118817713
Ni 1.5137059930069325 0.9032462172202934 7.137152312036163 1.1223811464976283 1.2070663426518502 -2.0749339872137877
Ni 7.253634955830643 0.6179521741948957 8.964395929901459 -1.122452366055196 0.6874793038764353 -0.31370723868702743
Ni 2.7596032324390496 1.5787878056467575 8.936822414722066 0.45530920263295127 1.0745221180328204 1.2807472172757686
Ni 6.254227818176703 2.242199190154861 2.196658264396095 0.22218830744042378 -1.1147722238021187 1.0379155225533803
Ni 4.795071424826586 7.279402559663208 10.237272885608581 -1.3822937079617033 -0.716238892507631 0.3217128826003234
Ni 8.262548323651144 7.327723626469729 -0.0939509716060062 0.3719578947988046 0.4920417821672945 0.19245504204204922
Ni 7.77165640370349 4.062837476170901 8.080720561892262 0.1830525177812267 -0.6095129145032858 -0.35498347172799505
Ni 3.0617960296058033 8.326994571714406 12.136555024378858 0.16969975062340453 0.7300179485695945 -0.4756659119124324
Ni 0.5475770165817144 4.677873316908778 9.990075491251632 -0.24047656422665037 1.2569747974465193 0.8968164663858038
Ni 9.01986891409308 2.2458582262170608 5.5925206546831765 -0.21086979710381104 1.0229745849728318 0.4177137608776806
Ni 4.071898811133868 2.7490437809741897 11.161200374150162 -0.21643006480040788 0.9054065220476601 0.7560688800203753
Ni 1.1554564001875167 3.570520075672962 12.744529742671144 0.017681733550479226 0.018447408071910167 -1.034733782391289
Ni 3.5807617448495415 8.47967534199221 8.02476182477427 0.42165371936203505 0.25142972080404435 -0.07159648129106379
Ni 5.774185893500338 8.061128829845078 3.2856981663330096 -0.09268518364056295 -0.16340774696710567 0.46482485543287044
Ni 3.112005631154106 8.465847272705037 3.292515050391321 0.1896052312980799 -0.40590442694757833 0.05646168253215437
Ni 3.715428799128822 4.261778268128379 9.096419943491641 -2.03512482563665 1.2758824329842993 0.6594295968280708
Ni 7.396146692883474 6.097488514102861 11.283882496414297 0.23286275643513443 0.11405465045527453 -1.0601473373683872
Ni 7.925499349207006 0.11899493977068659 2.154838115258395 0.3022563165376085 -0.15938499896095776 1.0416971010829994
Ni 4.611938031837571 0.4168976760456553 1.2343572026205631 -0.6408551762599931 0.42572506121793136 0.9547943284521686
Ni 6.029138083640723 5.710529561410798 0.12194486735532374 0.709630643162494 0.3553441975015235 1.0364808469893825
Ni 8.057941927468324 9.303121886878321 11.280772769736124 0.26973751797429674 -1.2828619496259261 0.06118017105374624
Ni 0.2496080000009044 4.81255853017596 5.652200168422235 -0.5963624931642568 -0.3912969614470487 0.35448570615597014
Ni 7.184113270648844 6.075507059247808 2.797589111281298 -0.16838128892229712 0.20024754150327448 -1.1627055571482878
P 8.694005876196412 1.495229222816915 3.604455592263728 -0.3490419094325795 0.20893195665114986 -0.4954006713371984
P 1.9148834332260543 3.314260438403651 1.6382775579622424 -0.27768685472836047 0.13271288898641015 -0.5482052167327398
P 5.0428871327215905 1.355423174961443 8.296304066261682 -0.343372369851628 -2.889685468677036 -2.6515473227755755
P 8.541288787942804 2.0050518876521286 12.422702539835637 -0.39777614141348916 0.6753089870624887 0.410806492234886
P 6.658147265568986 7.649201268788128 1.22276722859228 -1.2847221427631164 0.35909929366858157 0.2616115464330527
P 2.026833593640262 3.1483508454394324 5.780755815323186 0.41192955009573573 0.3058442909991829 0.9022700333012074
P 6.8461018698459135 4.141474973279372 5.660664980632629 1.5709363182361977 -0.6129617922838347 1.7070173523638923
P 2.394090044458939 8.627353311103086 9.737230651657242 -0.009544706265641627 -0.259246902855618 2.843302510537123
