# total energy = -340895.7506359159 ev
CRYSTAL
PRIMVEC
9.05019346598352 0.00000000000000 0.00000000000000

0.00000000000000 9.05019346598352 0.00000000000000

0.00000000000000 0.00000000000000 13.24587294504833

PRIMCOORD
 96 1
Ni 6.4090845165329755 2.1710780474273093 11.416326654732613 0.31562939541040486 -0.6275512600622354 0.6285629891562013
Ni 4.61854900156065 0.49475506825522797 6.013189235979231 -0.02254446095941924 -1.0189523511873162 0.04002590557363429
Ni 2.7327330503800376 1.4875259894508897 4.765440880740882 0.3096839764602473 0.32915211248718795 0.2472107976266904
Ni 3.381505215086278 4.261772276997284 4.798171810223299 -0.3001112451701477 0.6106269735030709 0.04425614160489798
Ni 4.95035624250902 4.7156847274177505 2.3688121031397325 0.17272568193392188 0.0850844884751696 0.32762179188559065
Ni 7.20317563680499 6.128573771825921 2.7027542847132486 -0.32998772101460594 -0.28141958229791536 -0.7871758858378249
Ni 4.91730493617993 4.663157404872832 11.456487793003689 1.4598299517759696 -0.30425946301056633 -0.33786763798331493
Ni 5.7429993318356205 7.74512836870667 12.621435928744544 -1.158095312069786 0.3698940702912404 -1.3814958946507563
Ni 1.787729955015584 6.450290047123433 0.49260745735930983 -0.47420038311049945 0.07799827105234955 -0.9311188392120996
Ni 2.9620287505864558 1.8344108526183909 0.4126897244625314 0.03029993653512201 -1.2629911788439279 -0.12403181627264444
Ni 0.5212395542468629 9.092638815929366 4.772157029269583 0.3093397057469511 -0.2502848085663238 0.2722607986167827
Ni 8.663605347189806 2.2692907463000616 1.328190094333501 0.38534254363582665 0.1722104328604002 0.3222127050548773
Ni 6.954847379859777 0.6052588347965284 4.729107974281744 -0.6400154539675171 -0.08603965329958731 0.16864379855506442
Ni 0.6508301786874109 7.446951646465555 2.581090724679505 0.8738202626009467 -0.7050836472217599 -0.036752119918368964
Ni 7.6074025254109126 3.7697494621321863 4.002849863647682 -0.05505374644103422 0.5569827058150536 -1.4410480431827764
Ni 7.728874221344389 3.6721793269914618 12.724276896526579 0.10720626007487344 0.7555932259355375 -0.27262203861094336
Ni 7.883134767998099 8.908756986248516 6.983422460528854 0.857333320689517 -0.42619660153771116 -0.49683766089404113
Ni 6.884853184035794 0.6606831242516171 0.3418511455935032 0.1297643478810475 0.9804279698598727 -0.8498557813655493
Ni 1.722143203381707 6.337008776224959 9.255129608469076 0.8167736540995998 0.8526693395549444 -0.2564932513698809
Ni 9.058067077107589 4.809055572816772 1.4457602518884252 0.21082300302627566 -0.2448808639419331 0.045527552118153854
Ni 6.488880071818734 1.8983504690518587 6.989621843013912 -0.050593396676835455 0.0403074413697951 0.7216387233669636
Ni 3.4724777592319565 4.352790072110008 0.3239055170831106 0.004988711463843022 -0.08481220865038942 0.7502944394304433
Ni 5.637854184811696 5.634695667312009 4.634942521901426 1.2735982649358129 -0.5848899737482831 0.8165458543595099
Ni 5.548420173545519 2.831117702927558 9.32882985849398 -1.5582055009330906 0.258413094100413 -0.5893410675411012
P 0.22404296795192646 5.481665946961902 12.355829947562512 1.1802978163087543 -1.335699919362564 1.4047854613063162
P 3.9872527603268835 6.274082781453281 12.593725141546011 0.8235832208222654 0.1134995492827529 1.1407367661866807
P 2.3752323103439648 8.504168089906239 1.3519133663160983 -0.1588260411336942 0.44234904292785754 -0.21872271748932653
P 6.459602696141131 7.670319469989183 5.763795771269798 -2.3028003188755948 0.7080414442985031 0.17717369040294648
P 4.892009645602217 1.0927927537308413 12.652921551613906 -0.7325918799443577 -0.6716881024804497 -0.48013294654485045
P 3.98525266758353 6.12318890674766 8.287996075161983 -0.2520143896629208 0.6530383485897462 0.25925358772383733
P 4.786439139488077 1.0605107138415024 3.7976973643980307 -0.16964472901575298 0.27813371245779195 -0.08990196446847097
P 0.10645923510688901 5.5808379663359915 3.712116020465999 0.4415286039090912 -0.8030141384216622 -1.4034700849290023
Ni 1.4914447231969181 1.0896885373916085 2.5947737120943333 -0.15398465388099286 0.47083403774142785 -0.5714433613250739
Ni 1.764054649058054 6.536420737795381 4.782395513073006 0.5157776923316537 -0.14137776375025976 0.3843169305847898
Ni 6.003735403944356 5.780014622877784 9.245658581066722 -0.34915272397883096 0.49494275786417347 0.34099307098617404
Ni 8.796254031983203 2.0953007780150763 10.254213039567405 0.3886574669416726 1.8497580578999497 -0.5153619449504737
Ni 2.4184107830975496 5.297277306450157 6.9742962454953785 -1.031610663381275 -0.8264998802484281 0.2688132063878145
Ni 0.5442759165497291 0.05955298768820234 9.021949565251584 1.1381983160355431 -1.0252160727088409 0.40843876333365786
Ni 1.5469133585997101 1.0929556572122006 11.6584473840187 -0.1210663058864173 0.5202328998895298 -0.5818815259392625
Ni 3.8380965227557606 6.786359929167368 1.5766830647987546 1.3336610345556643 0.8370012940003843 -0.26432277471662863
Ni 5.758185556375657 8.106755996937174 7.922793620534986 -0.8302740025788797 -0.5379727403714542 0.0682134237514438
Ni 5.211164716165026 2.87259473932028 5.143756160597949 0.37169821337951475 -0.18203693203251872 -0.4810539156972231
Ni 0.8562089327722827 7.441557731193885 7.010166687071323 0.05963622360539407 0.44684076015062396 -0.3161698412949071
Ni 5.1138208358595225 4.476985876259545 7.3178814081460155 0.15920476462935162 -0.37741763236179515 -0.8853622018022752
Ni 8.00950261856576 7.249060117387819 8.924817459471846 0.4944197954811678 0.1175292392674363 0.1427003392164252
Ni 4.758998953072467 0.46615464704460574 10.449721652720596 0.24887018760698432 -1.068051165596496 0.44158593950958785
Ni 8.110267471979805 7.2200089965454355 4.610702483875184 0.6632440854781545 0.4695623701178558 0.4677106616210977
Ni 7.133670151425084 5.94556076071232 6.857931573702512 0.1206490158433406 0.10297782381582266 0.4026177857765066
Ni 2.182363638608135 5.258252872471231 2.6406971085088196 -0.05198102105298145 -0.49674612962149933 -0.10523602372238006
Ni 2.5560189738789902 5.169760081319574 11.465561516915395 -2.474581120397745 -0.39283885201287183 -0.709974399655158
Ni 1.1698551506071302 3.258268731438078 3.8380177860731033 -0.7075048550687428 0.21868955025854594 -0.6004284357035143
Ni 3.714995792008693 2.741303583538211 2.7574201679606762 -0.024696474305415533 -0.3693497677519962 0.10025502556802088
Ni 0.9876023557398721 3.426014066270962 8.076803476831271 -0.20367945000295887 -0.13133709168480606 0.36793951766803085
Ni 3.4343854951741406 2.6684042756299893 7.292435884357715 0.07379117494953742 0.12465170924483047 -1.0498888928651724
Ni 4.056260485069303 6.724945316694966 6.090412726298198 0.5956963203351676 1.346314718763933 0.06547314200214531
Ni 0.8516132445592728 7.318583703154542 11.4833370017897 0.7120806473648833 0.1612873581899932 0.06704202915116196
P 0.10449353309848855 5.623156670715736 7.873532512791318 0.286083563432488 -0.31726821656540843 0.1672338055814152
P 8.573429220064106 1.63099870556126 8.034681161648498 -0.3114058442473604 1.108962301988561 -0.6031643465774386
P 1.7458004089524195 3.344109815920943 10.409917997089167 -0.10161951001571533 -0.981728176728535 -0.3109512732084451
P 3.819625078008314 6.281214333859449 3.747667895233953 -0.17211298805058747 -0.6410518656518315 0.029769003732316477
P 6.899985107415378 4.124317939503794 10.500043443131778 0.28465994361208397 0.3796454932510494 0.5404219732428951
P 6.342185486854817 7.8434768204805545 10.319502039838133 -0.29302811307112114 -0.04602917434492073 -0.3090165180795775
P 2.499319512172596 8.418317955229965 5.720866178834957 -0.30349353137881924 1.0314952208493333 1.461367985687051
P 6.971879843855217 4.074188918212219 1.755316687321817 -0.2673649039770621 -0.7861528438899493 -0.5527355005029255
Ni 5.36595017403645 2.7725720017657594 0.6236795984608852 0.0851323109939695 1.1508674268627792 -0.316729570453119
Ni 1.4508093547912182 1.1072006616377177 6.910014531751056 0.028474196180292895 -0.061982869460699704 0.2313424631358661
Ni 6.96216898632753 0.7793528803057156 9.311424526530097 -0.5895048468124751 -0.26112740770778253 -0.841301464037635
Ni 2.844457688012191 1.437478419899994 9.40535105380442 -1.2442048993753605 0.5207664037954967 -0.6623711959548979
Ni 6.446597568212624 1.9883908432764268 2.596138481260387 0.1876866741191284 0.043775345313737515 0.6743569075618644
Ni 3.8760439837190344 6.903668536132777 10.483498784561075 0.9225791771722045 0.8865256259827571 -1.0301441061380774
Ni 8.219756711839974 7.033421159035342 0.43791080345429195 0.439868699708165 0.02631935462081919 -0.3430838920769317
Ni 7.460382133484277 3.8837547485033674 8.290220612701876 0.7279872912928108 -0.3464291544000808 -0.35266896466220554
Ni 3.1192215599046307 8.426119221948387 12.393752973003583 0.771883992675761 -0.14784511664215827 1.264692734916067
Ni -0.04940229076084527 4.885176749578541 9.907104636622705 0.14270573853306392 -0.8744239576232167 1.3956593306353318
Ni 8.584751012018568 2.3965002648547435 5.733012443408963 1.1638556115923309 -1.053688212006605 0.5723918412812723
Ni 3.6804240531869166 2.610401586072722 11.32565819708547 0.1360640648468302 0.17766297133453918 0.5713050359749968
Ni 1.187846935103908 3.389939995343318 12.641979867782617 -0.44140364829545264 0.3564747115615409 0.03307904194215593
Ni 3.1147688647474805 8.373383744955065 8.137072334818113 0.21498536193408135 -0.7153742305144906 -0.27714075241690334
Ni 5.407698716231438 7.96869529648529 3.573657111504127 0.6425721589510998 -0.3544116583849251 0.17939383798271685
Ni 2.881527280214807 8.345889257379003 3.529057758385354 0.8542536533229287 -0.11617838166649669 -0.22427295788359441
Ni 3.353703020934315 4.145956951944335 9.175177484837345 0.23425886545171268 0.5118243641108604 0.44847495331993736
Ni 7.638779545959368 6.273005808437628 11.331155284562001 -1.8422342387190789 -0.10532909765681861 -0.3201681638210228
Ni 0.48944803484028304 -0.06834525058489224 0.34149094789583134 0.4409786449428922 0.42979434619129847 -0.18397605803676056
Ni 4.666795582623187 0.24274157255393472 1.5909090638181134 -0.4105488676981252 0.08378942381282989 -0.30493669158324904
Ni 6.271177669369043 5.542465146282502 0.2602880875349974 -0.9419277569021456 0.01493888069801943 0.36665088076359437
Ni 8.231521963271469 8.821504071593871 11.034805796370131 -0.4504523887612823 0.06827898688205661 1.1211907257339528
Ni 0.1206607986040437 4.844604732526703 5.7629749187276165 -0.04952921707837921 0.005906595292422085 0.5539174366261687
Ni 8.040924890081257 8.931436770931075 2.292568748766944 -0.0757146172244954 0.7056361772911203 1.2711546884913267
P 8.566460571139299 1.5793311513901818 3.615302481494254 -0.03443786996289553 0.7949581008864052 -0.5651814395757621
P 1.8904315498191222 3.2721879289008764 1.6134929164505372 -0.7850066461006481 0.09127750465975892 0.008828139814591247
P 4.724083306901155 1.1197713802825993 8.183445525845018 0.14403345620555194 -0.6103132989173942 0.24760340507941872
P 8.511290592118998 1.5716384869926663 12.334821733602567 0.05963339539191665 -0.056912911136960044 1.2406071547217732
P 6.458761028154108 7.855757932936353 1.3854913939015834 -1.1802106559115868 -1.266367808625645 1.2764552747686342
P 1.715446060259164 3.2804779060633757 5.957728745750508 1.0936544679868971 -0.7761090865007021 0.21162390166101616
P 7.047150302436555 3.8580521992222563 6.087604451283434 -2.019411271556135 0.9150527868881725 -0.1889449720062617
P 2.3043873963395503 8.524033264438646 10.378234174984152 0.22732254334319563 0.00633596952035683 -1.5955924262219812
