# total energy = -381162.18023559125 ev
CRYSTAL
PRIMVEC
9.35024436518422 0.00000000000000 0.00000000000000
0.00000000000000 9.35024436518422 0.00000000000000
0.00000000000000 0.00000000000000 13.68502776564109
PRIMCOORD
 96 1
Ni 7.753203868477039 4.520057695850324 5.4987402859559396 -0.4251506767717 -0.34893957952676036 0.7070767663923887
Ni 5.6364488138758775 8.540400935627565 3.0502423038850806 -0.07795481940892382 0.7280626246154364 -1.086158416720168
Ni 8.782366557479582 7.45499652719385 3.993592190850794 0.6725612491140224 -1.6376898696126636 -0.8663951737814691
Ni 0.38105050573209864 7.349320066177871 1.2923131593525163 0.30729670717499336 -0.6188439620962245 0.5176214304086117
Ni 5.420028059436323 5.24334584324822 5.092321632428543 -2.5246147879163683 -0.5542023148564391 0.3649742643921198
Ni -0.10787096335188828 4.50134785701711 3.7165930736762967 -0.36437211203174663 -0.6430370144026603 -1.8822089793398036
Ni 0.9610087583402294 3.9027732680187106 5.810594308786892 -1.879399020694834 -0.13540303422406358 -0.5052647086154717
Ni 7.3071130634326815 3.995247184090913 13.440462844873435 0.3655972426880994 -0.01859010429736153 -1.22980003680394
Ni 8.251927198654908 1.8104504017589709 12.27733079064431 1.0619080288132356 1.4303339991993818 0.030802330092837275
Ni 6.35746485191022 1.4672122839536654 13.303229309363658 -1.673059764471525 -0.037202834302542384 1.6644658521549272
Ni 3.945017671741078 4.312575774956272 8.948653172061103 -0.6045432292028363 0.34467026272744516 0.012464193905281758
Ni 7.395538323725383 2.6128696666208766 10.104792178582406 0.31352083370783423 -0.5505883722529356 -0.7771377848755325
Ni 1.3579453291286143 8.88451797639655 10.366340017060306 -0.9329600061858965 -0.15803876934570849 0.6053508127057962
Ni 9.289252650926514 1.8210629290331821 2.005061711381699 -1.3617739907417965 0.8459068240201303 2.6484265177584065
Ni 5.9352358703053225 3.023354741391933 5.266066936883756 -0.15456366631291446 -1.4653786495083407 -0.6996995000917111
Ni 6.693924042602043 6.715382853257826 6.4039907324950205 -0.40439878893632936 0.3554359858843814 -0.8742604354621588
Ni 6.184878042723091 0.31008402158601167 10.02153199323796 -3.2300000255389474 -1.3666508592181237 -1.8152870207062737
Ni 8.606011599841786 0.5390116627938347 8.639864159309877 -1.2379082677333713 -0.709680522563823 -1.947376160065756
Ni 7.129851132098322 8.084894434578686 8.206719702515626 -0.34368321622382747 -2.6009595825256953 2.664782590518927
Ni 0.6286898558219935 1.7216978829159633 4.2680321461618975 -0.2263486094657005 0.022348028677896998 0.018413983730813446
Ni 1.6175361614756874 4.862257936538943 10.37620732986425 -0.2604298674201257 0.5370278599596816 0.2951353892221111
Ni 1.394177525769644 -0.09953896066109562 7.749653580718433 -0.008772346875991344 1.079022319896019 0.5900797454793386
Ni 2.2602065025667564 2.639368258951374 11.310661394408216 -0.11118709909949238 -0.6762096444998871 1.0665822943604533
Ni 3.9366959543190094 6.289909336882752 7.372192633770976 1.5639012657662872 0.9313913761471958 0.13391719370715646
P 9.116011324638771 0.8537838968690883 6.021672333636593 -0.6211705533468722 0.37140613606039263 1.3588161936650534
Ni 7.458615071735805 2.8856630439117255 7.280612601053325 0.07275733436838437 -0.8889481193813207 0.44553618240658754
P 5.092545103267181 3.706240483193471 12.595617781549851 1.871395176553751 -1.5765621490634074 1.9065627255938196
Ni 7.291591657903879 9.03295310457109 4.812955968423119 0.31031286829349786 0.09619319679382143 -0.782141408737711
P 6.268693632578624 6.636691197275657 3.8946628661176965 1.3106535179168977 0.7437538100984481 -1.2422326061403381
P 5.873664511626309 5.676636163853463 8.925854471397924 0.16085978373427134 1.791812077512785 -1.27016892753929
P 2.15258519073753 3.2035807001676355 9.152956944919469 -0.33318925867103905 -0.8810286074239279 -0.19370151285464063
Ni 8.230028926517283 6.288431998284227 12.879732434632432 -1.3334808002240581 -0.8778957182219009 0.778020701701118
Ni 0.6252732765567982 2.474532802284352 13.800940008084437 1.734193141447736 2.1255500095984425 -1.5410778401138685
Ni 4.69934863019658 6.505535320557277 1.7959958591041663 0.045710614663237406 -0.6857101277911545 1.1987089718260904
Ni 3.7826506795677926 4.551960729383018 11.325948108805228 -1.3087673566377784 0.7609334072015282 -0.6027244308265426
Ni 2.443302986340858 1.5822389892641036 6.386980768074539 -1.3605714857932634 0.23004097071562318 -0.33439896270842406
Ni 3.0498907346996083 4.543049946570399 6.259134877836398 1.0334358895154718 -0.5659944223953607 -0.28317307465391234
Ni 4.8056141566031085 1.775760995426527 11.422591298808328 0.20339945686869487 1.4214816910150745 -0.0781849331418589
Ni 1.3032744507389111 8.107372421862566 12.938838133890998 -0.13356700945658934 0.1778483478724679 -0.9249183668283426
Ni 7.09487186819275 8.643113369202199 0.6434136855124786 -2.5910618637960083 -0.7692010465269592 -0.4270684626197032
Ni 2.245423766337216 9.409898853057921 1.1077935683967983 -0.23931545403901364 -0.4143523006046154 -0.4716205381984652
Ni 0.5143737690779345 2.6601164510407793 7.858709220022429 0.22454035261236813 -0.6148682652779281 -1.584048944358756
Ni 3.288508969094209 4.213276180549115 0.031229815943493968 -0.06860603120417216 -0.4618642301426497 0.12399659215933484
Ni 1.6715244720318951 7.114367127546697 6.80711061983533 -0.4354440882779081 -1.7430215383726433 -2.278190233636399
Ni 7.3075151239373435 6.263074135757654 1.974557474395455 0.24962969148082814 0.01641572235386205 -0.3018364553913705
Ni 8.303082385189894 8.929773158781732 2.4841196077594607 -0.2245112991466456 1.676235076875713 0.9549740485631425
Ni 3.246152362440309 -0.005198735827719354 11.974823272010099 -2.206238940109078 -0.698385666376294 1.114486831351216
Ni 1.054183942734516 5.000332994035223 7.83374780785394 0.5347295508438081 0.5566134954010931 1.138999728890916
Ni 5.342346229837954 8.882928434866491 12.053470981844084 1.8720706053542209 -1.2328431945056382 0.71960806609018
Ni 1.5741977791708686 4.542732038264387 1.610960134663394 -0.9703361328415095 -0.058501595780318605 0.7199111991528956
Ni 0.3366237549914049 1.8886371445492394 9.955146193771732 1.6071755030738901 0.7618970566663782 2.6756467869269405
Ni 4.227563353831048 2.9861688198328684 2.727370888201966 2.501095107527873 -0.1496294622360907 0.23627949542616725
Ni 6.016096782963806 4.32618038040471 10.486576678491618 -0.06728911216496153 0.13389893887471133 0.9952745479544021
Ni 2.277710159885984 7.032094327999751 8.879310825348965 1.1775053411652818 -0.45838809866859126 2.6010585699974045
Ni 0.1790496980434595 6.846258222647373 10.907500365993009 0.415827085377929 -0.43309744242260256 0.24645309352505945
Ni 8.036665874507866 5.460963428957466 7.708064629121107 -0.04657656220795849 -0.3054395993615966 0.6935455646751733
P 6.015489017084667 1.117438345386533 1.9871073722874781 -0.32000489877028115 -0.12248426927986647 -1.792515531337713
Ni 6.632090877082784 4.22821787093166 3.312693375961828 0.7127403924360692 -0.026155061128813023 -0.6264426003790888
P 3.0609240229670704 8.752155918164183 6.4484941552389285 1.5329305284163859 -0.07347904302575732 -0.106163677742972
Ni 3.5545795207373425 1.0739784099058864 4.262844630627331 -0.24824052444278538 -2.202806003168129 -0.6231945257554363
P 1.3936726125777432 8.729098215734048 2.887034724749723 -0.6393860479136344 -0.5955883340023936 0.49557550635216585
P 5.416035505122588 0.7769641597946698 5.0676341824178825 1.3838759648471586 0.5357099124792065 0.3291767950775363
P -0.12077243042938317 6.071431528698416 5.46703173750457 1.4234426713961872 -1.6272877004427329 1.1807544442301987
Ni 5.445928236131975 4.164290250690442 7.217949133840718 1.1322516115338048 1.7043603743570197 0.5907549171694924
Ni -0.2723024894653901 9.545009883112856 0.47117283536424437 1.7526675461028398 0.7693529987237911 -1.159054590659262
Ni 3.7250344742253345 1.5215278530601795 0.014409661482191182 0.2626662129498122 1.7972108799308533 0.20335883343874656
Ni 2.324676436977053 2.123384377805934 2.34339656107899 -2.1784370874054617 -1.000451207059335 -1.8752304911394415
Ni 4.535906359929432 2.1005136802616864 6.85973005462683 0.4407369612457313 -0.8411009179910547 -0.19167934021828922
Ni 5.299129400708964 2.1963723847684826 9.039645074412634 -0.36271555026493013 0.5921451126487997 -0.247178144616542
Ni 0.998297532586533 5.551614047392248 13.117824250273255 1.4071318500513057 -0.09532776346973261 0.2626664700601283
Ni 8.650509412439117 4.801443947647781 9.91736185657782 -1.02248324715871 -0.17336717217266273 -0.5017088729434133
Ni 8.763245307897412 7.995160140084762 6.342544667089552 -0.6131006318545441 0.31940120374801123 1.509219043732059
Ni 4.474680960289312 7.538082797994414 9.595475956643343 0.37986198013722966 0.0392049523342357 -0.481011749605378
Ni 4.934871933729714 7.849604887152914 5.241639423664481 -0.7594367680513437 1.000306968171987 1.552817754258616
Ni 7.199847060886644 1.8003147369437769 3.608536975487378 0.5289072877350762 -0.030132043498690038 -0.11678567623319243
Ni 9.511349003652805 7.532949513876756 8.656382300880468 -2.2878431833451307 -0.8071207043908681 0.4008483525809096
Ni 1.8348732398560985 5.873636460893424 3.982685130881307 -1.6855311574656582 -0.3417253211665083 0.909253406597576
Ni 6.589537915298699 0.24517743076716375 6.88028469665934 -0.43708162388133115 2.787594161231225 -0.3555380586798844
Ni 4.532540271983426 8.757457506679144 0.7147223885997428 0.4055894668103209 -0.36538204135349983 0.30629654804525314
Ni 8.311703310429385 8.407085152477164 12.262715423787641 -0.4943804576028002 1.783450335811651 -0.8363515762315273
Ni 5.487864081792625 4.13233111569198 1.2260292775490949 -0.1377028860018338 0.7286503787981065 -1.1362306507862108
Ni 2.5686430111080845 3.0060567894471832 4.414872122659803 -0.27463444105528184 2.1982759765082593 0.8191799495482471
Ni 1.2772246701345475 8.744946879813156 5.088558159100024 0.9612871352653638 0.596286645620999 -1.1528497474001307
Ni 2.8661677845577778 6.552118237632273 0.26655021917543875 0.8761072588629104 0.9351852959719895 0.24508629508451985
Ni 2.5899802685880404 6.8483526773693315 11.390500325365315 0.8583296231645152 0.00844864498798545 -0.026115980360761473
Ni 3.3953729111355844 7.381213749466271 3.560173771898717 -0.27272719673024 1.1998268874806175 -0.7043632241159675
Ni 5.073358401974951 6.527078283411711 11.424370650297565 -0.6424181498717387 -0.9153332942430688 1.3241299551367776
Ni 4.602835408589171 9.217424074256478 8.07152545528647 -0.8122112315398979 0.2863049354146746 -0.8910805923432911
P 8.577409202545034 4.049020439028348 1.4843877476981577 0.6740334627841746 0.14911267050067223 1.4971973366808344
Ni 5.832009173294492 6.710324371094525 13.542457179686256 0.5255175453272368 -0.1029135462367905 -0.39586555465433754
P 7.957609558998213 0.5632718066402388 10.661553410120412 2.996344340888872 -1.063408781728478 0.5290962638174307
Ni 7.096835419494587 7.096704516074465 10.669175729269254 0.5518710956201012 -0.17247474226538037 -1.1583431664145343
P 9.23403945836773 4.325881172587287 11.890413941641869 -0.8875903198018456 -0.7765978532116625 -0.06964655665354456
P 3.5834624253629266 4.792495763857983 3.652137164632442 0.9644753031853583 0.7930739964898147 0.1394077845080825
P 0.9083098464722276 0.9189205036975798 12.33406900804752 1.5785881783545006 -0.707724941499349 -0.8825496720541445
Ni 3.1907241142627543 0.7518624939617644 9.904237853686118 0.877739909370327 1.0158251184122442 -2.1938171694059574
