# total energy = -340861.5489649561 ev
CRYSTAL
PRIMVEC
9.38994662609428 0.00000000000000 0.00000000000000

0.00000000000000 9.38994662609428 0.00000000000000

0.00000000000000 0.00000000000000 13.74313603764027

PRIMCOORD
 96 1
Ni 6.508866666843193 2.357421149154929 8.15939575334148 0.6806172866492795 -0.1415256021820337 1.1932345789750805
Ni 0.6970335579903997 6.754113285447773 2.6399467937386043 -0.4515224818970095 -0.2998831883197416 1.7368663174045247
Ni 4.8083473840003546 3.3746434265135576 0.5465615458219848 -0.04307831924671291 -0.2554545256927213 -0.46975597418590065
Ni 3.022586168249468 0.17791037437932078 11.71820795347243 0.5708684626582105 -3.6661995039256405 -2.0943612427004643
Ni 0.53814909289267 9.189095391401608 1.6157937969836957 0.8591307789095719 -0.7911796076805794 1.4572465073195096
Ni 8.07749476334252 1.1770016043429121 11.386709982727856 0.6229584984852304 -1.2997096173108842 0.687678307261119
Ni 2.5333605737967084 7.9504675692050375 9.037871244531063 -1.9667828467271415 -0.10392476111012425 -0.23329547309717885
Ni 5.929563317115385 8.491009220426081 4.018108279607822 0.4437274113326229 2.9996726339311564 1.3867147198475345
Ni 4.0636964691064525 8.443430362302587 5.453015089221246 -1.5875153056408013 0.04940297591316008 0.031230161658875245
Ni 7.769222824879071 8.225743236216747 10.6479615881056 2.158162653427141 -1.2598562327593723 -0.9196961991974548
Ni 3.896104706764216 0.31166546507205867 7.922299608163226 -0.6581988097447632 -0.13409588537686584 -1.3236003078855527
Ni 7.045755628936541 4.604519818717806 4.569469027006068 0.9892460823721348 -0.4809472149160297 0.15564224408907387
Ni 2.0010351256263967 2.3688674937478904 4.246052044084878 1.261659347406382 1.7940502228146844 3.932482230582117
Ni 4.924895398018275 6.1923691353826715 5.42066390708332 0.413769431517952 -0.9410484396209857 0.7276705313833404
Ni 0.778991826662057 2.8886573635493717 2.522745239455163 -0.96445859101481 0.7402738219696476 -2.4406955233938934
Ni 4.404147753689736 2.893455626130999 7.524532091098039 -1.4491359623972333 0.7763445995502758 1.1153972589806274
Ni 5.277638122365453 5.281694579185929 9.384719899558306 0.05478892281542177 0.4474835359409455 -1.0228072061570321
Ni 6.219412180852507 8.911472237803975 11.883043766562793 -1.4814485584870098 -0.607082193574606 0.8293661460526297
Ni 5.963705162021054 2.2419154191811588 5.758689768526028 1.8492975733237633 -0.015560830552734491 -0.43571405410984315
Ni 2.97540168787241 0.7065690485024202 2.986795448765847 0.4958902093791073 -2.4421461397974906 -0.8453807763133312
Ni 4.300492136001707 8.14970345072552 13.229980863855326 -0.8986468347263232 -0.3901723609243022 0.4806811057388367
Ni 6.257413293705433 5.002033807231714 12.96038141940838 1.1169224373759024 0.7407006250944211 0.42069881164793355
Ni 5.113736608936288 6.580784265889541 11.562870071108714 -0.35302686222225654 0.4264845650917752 -0.7374569213461429
Ni 8.177385012546727 8.730236883424352 13.59282717046832 0.2105314399277858 0.2170430157940585 0.08623634269142567
P 0.8151309131550291 0.9526100565676757 3.656608491300515 -2.750186410006728 -3.2364349825310135 -1.0430806116940876
P 4.413049422823558 8.013596178473687 9.925182675230063 1.0692241028586746 -0.5257090925127527 1.0756186935311087
P 8.096011737532281 3.119490414516382 10.480034604678893 0.2130529207980589 1.1487285261429054 -0.3693425686631446
P 3.2532220303432604 1.4721651777105644 0.6798480781921724 0.16631926418694581 0.3678233038051407 0.2620851436353615
P 4.49095780763718 5.9213283341719665 0.23547356245006326 -0.7896148342966207 0.5899681596021388 0.1598025461143506
P 2.141180074806018 4.796093504021835 2.951503335433076 0.13657545726560996 0.3046155607984044 0.50799239195928
P 0.8737316902967497 7.289809724355471 0.4551607471071095 -0.5519721399743397 1.1104442858507262 -0.7579753530144688
P 4.18051679156834 1.5817552414878078 9.480111425469252 -0.09630683955355027 1.1700280589516303 0.8408813457810808
Ni 5.872247084633482 9.117769358974915 6.61764919523488 1.9154132340059142 0.8750847311356671 -0.8246363446771281
Ni 9.243557080195028 7.284880002525031 9.124507584471148 1.0756320632675473 -0.8125701575412134 0.0014894400613329189
Ni 8.988657596749134 1.462502922922904 0.47732947142993476 -0.6713325189132439 2.229598954991257 -0.573882824004502
Ni 8.038047598752664 4.047198333380583 0.6326560858580391 1.5838437703264852 -0.6545838386999953 -1.393204441336936
Ni 1.7411965304037187 8.498455447876628 4.698695346577242 -0.32228006795770303 0.7810309492823517 -0.6480655779655032
Ni 1.8838016455253872 5.850227660457522 7.591378180124155 -0.26665965037992134 0.36475134974803636 0.19252394760677166
Ni 7.796284650241595 2.4231413836144373 3.933464486281868 0.7321234249483713 -0.48827125938126875 -0.20747516959996526
Ni 6.308569721385874 4.416016645868165 6.940860538331143 -0.5738941368584116 1.1890141131358296 -0.11251275988945139
Ni 5.968925972188147 1.6643210396879025 10.679832004990729 -0.886157444010061 1.0176955959620797 -0.24090799533711413
Ni 7.354102686970738 6.717961992024555 5.315803559279395 -0.4113078573513368 1.3445918225355553 1.3813087183406145
Ni 3.26382327976529 4.691883879499527 12.505030056390494 0.8103677505732559 -0.7450643013797555 -0.23871510145085342
Ni 0.9856908375365069 0.7629782121675227 7.146746379852229 0.5430738090434454 -1.1769684948252053 0.15682418021231703
Ni 6.745812572879949 0.029055310971289886 8.875427050774439 -0.9756966258224744 0.6332899623182254 0.5425870992150138
Ni 3.551183807721334 3.6331110895700567 9.95027730683358 2.450335360476503 -0.36437005514921766 -0.5080181029908928
Ni 8.819798191650499 4.699076578398797 12.033035952473044 -0.30262167029682724 -1.7487820950055044 -0.10763563430280818
Ni 4.243429432071084 5.459305414276886 2.4778049562542477 -0.4352540837542891 -1.0196655752042567 0.023589614394481956
Ni 3.3224447147889666 2.1608426224497115 12.085245932133247 -0.2578245685867947 3.8620021222836844 0.6966619988169679
Ni 3.8069565561771923 1.8129357204695344 5.570285190112997 -0.8629614655095719 -1.727420855720909 -0.5234460075101888
Ni 8.234551005887132 6.305780907321798 1.3896237933709636 -0.1253867876386421 -0.04663801157351323 -0.10315034483794493
Ni 1.2108148011265516 9.211584312894754 12.968517807915187 -0.8390712891555356 -0.9994621036731884 0.5113237703253581
Ni 6.895535267330137 2.4771054052516424 12.992802087149249 0.562371995151425 0.5507256691617483 -0.22576548326872087
Ni 0.7783345304179985 1.885576345384345 11.975466191439862 0.8536944383853491 1.0500287608771466 -0.461254878693425
Ni 0.19325354670491549 6.604043162982868 5.010870685735764 0.48280355139847814 0.6754632532521657 1.1345918296312072
Ni 8.062452069299923 9.352245709123277 4.873123928852322 0.7195545871444252 0.295977168397116 0.13620778951354606
P 1.195706377459549 3.0739679546421574 0.008561753076179466 -0.27362014085815456 -0.928817958993065 0.38353248701028136
P 6.903582451346682 7.34208355565081 8.510931869583494 0.6649063036719258 -0.983847537064383 0.26430349144291904
P 2.152410450633075 2.4836126380678216 6.933439663735723 0.1718113976497686 0.9920200455728463 -0.4102781305352418
P 5.117013700210238 3.6796664435420876 4.328015946724341 -0.9044138191170876 -0.039691405052351 -0.8946798796587753
P 7.567639456772666 6.966204003512771 12.569128647116445 -1.4017330476332377 -1.162883477487049 -1.03354824672362
P 0.6621630532484606 0.03048633879406873 10.407635301385117 -2.022102702345369 -2.1694184288466185 1.4932406660259316
P 1.3386213608105597 7.877826944290227 6.755534923324208 -0.7595113300430211 0.014041308584414526 0.27248808413624037
P 7.689502180421115 1.2447031174809404 6.690996883109371 -0.0258293023582781 -1.2275829745479632 0.9820750185449925
Ni 2.4412921498967965 6.848397736684797 12.218870502571807 1.3562517753719867 0.6908677607326941 -0.2574041932199244
Ni 1.55745406035033 3.904602608205258 10.597029580142774 -2.492994589907926 0.2310089910558473 1.0062220481048412
Ni 8.699193720812103 1.5165326741845149 9.065741544273779 0.6802987269675961 -0.08346726458672075 -0.7297623809153625
Ni 3.0818085598391414 4.217391110860023 5.481600902875351 1.8273349530097431 -3.1331164875463204 1.7146062204547439
Ni 0.675557811707739 3.541991050250858 8.319516874372674 1.2479998476414185 -0.5534790635371694 -0.31976861438975895
Ni 9.172662985300144 2.6409036292710266 6.169252026479133 0.36838354718398486 0.7091259356119336 -0.5015188684197943
Ni 5.097332372673857 1.0057759327656666 13.071976236730002 -1.2292511062790055 0.1627063500247069 1.0176320897139957
Ni 1.8349081949137767 1.4297226202370712 9.657067781300052 2.0117781804909094 1.8822673433815647 -1.2941524349380809
Ni 0.2375355946671383 6.916625086818072 11.89891653186217 -0.9740174383478386 0.5993506292583033 -0.4374081539828144
Ni 0.8051099624170398 4.356465606156463 4.743154864525361 -1.0699437546335187 0.37403611748407195 -0.46600602022516513
Ni 3.527812231271881 2.8812299159915105 2.6421590650971787 1.0405588737134983 1.6943857796428108 -0.6209502098059501
Ni 2.6787732828751416 6.995725994817343 1.6098574729052129 1.7542282057217402 0.3716755876716954 -0.7173359822265517
Ni 7.516238890487288 0.2832430364843337 2.4429663773298773 0.8608919845750529 -0.017175226227705905 -0.1745845895195316
Ni 6.410544538678382 4.157520812972635 2.2458347827850162 -1.288564142217026 -0.29828576192563466 0.8797016610823882
Ni 6.307574387073443 7.307782081657299 0.587399361465341 -0.3454166539751664 -1.7511030298291974 -0.9523780057011921
Ni 8.047174626598734 4.5995807069410235 8.678542411818418 0.010262301157956519 -0.5328559879701792 -1.388359454539809
Ni 8.529357761293722 8.595866751246103 7.265184590069135 -0.5722781985215435 -0.4969752149131699 -0.35322046629030135
Ni 2.6357485487283387 6.148302117191719 4.9828351229373995 -1.4693957410875338 3.7729097982007027 -1.5379981727472802
Ni 4.685630175234627 7.452190066476957 7.722171681740093 0.3916006087303966 -1.6745816004326903 0.6303403927715984
Ni 5.440140533789409 1.3830921466942907 3.5259933986651077 0.15165497730655172 0.7626773864758285 -0.6973150590199346
Ni 1.023635610711371 5.190490030349637 13.622745417508593 0.38554077568956185 0.4212765385282745 0.399835337935363
Ni 5.305075545581725 8.921012423289167 1.6060367037379641 -1.7125105142679797 1.417129841804282 1.1602601809315887
Ni 6.053088061266669 6.518247223240544 3.3498483341984016 1.1126868020279999 -2.581771182522702 -2.2221054748276887
Ni 7.329707606369824 5.498114062515371 10.475128357714313 -0.5352699967283104 1.6262456323314638 1.8469486134756126
P 3.9333546239096466 5.137521343024863 7.633541856191242 0.8426914024066262 0.08972815789476804 -0.4535881061767866
P 6.29365848659209 1.4558830107506004 1.1159002844898662 0.3268754006378693 0.9423959547878157 0.26678537732450824
P 5.220030801546896 3.5166194152301986 11.853990333580771 -1.2895982399084953 -0.6027120895313685 -0.44316408262998513
P 8.025634089686301 7.702075318575321 3.330923836337322 0.5697634025194896 -1.0553226622862342 0.032685148937846936
P 8.557950147910269 4.329244151706096 2.6376509518575713 -0.4909498346546964 0.45483611965127474 1.375832782827708
P 8.529545560220598 4.829822191288381 6.472123806800322 -0.07835565439176827 0.22935062951681792 -0.47386459703763556
P 4.038334224032137 7.773654879553294 3.3532700306460432 -1.0997171292412093 -0.13482402179214198 -0.24823383957456602
P 1.469301244075738 5.996062917121421 10.206518613611992 0.19034108102283995 0.6122843066008359 -0.10166553276230232
