# total energy = -340866.24522082385 ev
CRYSTAL
PRIMVEC
9.33520882496351 0.00000000000000 0.00000000000000
0.00000000000000 9.33520882496351 0.00000000000000
0.00000000000000 0.00000000000000 13.66302173270232
PRIMCOORD
 96 1
Ni 5.001440792487938 0.9384778741073069 2.3060990300268167 -1.047198747627519 0.5248973952447347 -0.25488605478376103
Ni 6.395327491837716 2.8916836076568773 2.4085725503525204 -0.2770469071515164 -0.33500471461322306 0.7557258948586598
Ni 2.70363516194344 0.013829178290304129 10.115855348140066 -0.25444716747412954 -0.35927978511050385 -0.077673283612763
Ni 1.9597123740709297 4.249359032139577 8.411365715139244 0.21302489577360087 1.8296923974983264 1.559308247078966
Ni 3.7545836314615633 6.229823575333867 1.5129610214532918 0.6349005013384549 1.2288374157803548 0.32169051400282017
Ni 3.281279210983158 7.711087828887268 5.063078375515743 -1.1614714276308706 1.1809881575075596 1.2939284918527327
Ni 6.1887206510647905 0.3143090115376724 7.070490865902298 0.8587487129798049 1.0596845387993559 0.18021839076654125
Ni 8.015322283106933 6.940671718490197 4.1620020153952755 0.5073236480270295 0.6521842281195671 0.5383962010621179
Ni 8.078801702827512 1.9358795860493645 6.609391297386053 0.46218870336160406 0.13750079729335674 -2.152745339066312
Ni 0.656540566064496 8.89419484913837 3.934799837006535 -0.4973616517183112 0.7643110654245094 0.35202130377587765
Ni 3.437195868067443 3.7520537898815225 6.333001903922645 -0.5079571678459703 0.5754231719084284 0.8345047528307756
Ni 3.9815318921714216 9.208763379480194 7.097994258017118 0.1043973298711686 -0.6700212563009881 0.2797583925454085
Ni 5.0260670732560095 4.891556049909856 3.1624840116222392 -0.7335043644562981 -0.4630520798031638 1.2246717144384391
Ni 0.7933396490832254 7.049454906431952 10.759110045065395 0.34530378254638594 1.6374003633967027 3.105121544995291
Ni 6.819948798515706 4.005439361863246 12.658311595808561 0.16051808412413648 -1.3136545095267504 -0.04384219399593095
Ni 4.7402883267992255 5.317857694168685 8.836450048172843 -0.5239563714877041 0.5581741550199936 -1.1636188129911766
Ni 1.8954768024389714 6.930944430938897 3.3820079807874235 0.19273092141125517 -0.5584474632860382 -0.17466223683500243
Ni 2.8561538030309164 0.8176429316274253 3.9388027745324448 -0.464760063633206 -0.18761365478934786 0.03381283478438692
Ni 1.8532256474896556 3.359293550777995 4.363860035460574 1.2407398236448954 -0.22263850760396495 -0.2286885704527868
Ni 8.675069493388197 4.314789510495687 5.814627095442628 -1.6964228646774977 -2.236548646836213 -0.7967041370432344
Ni 6.1416338579661724 4.800295048852739 0.9240885832900565 -1.175038367682028 0.6705077090191034 1.7870293114121611
Ni 7.239753137461957 4.597095559285404 3.8815275345686726 0.7704799132393827 -0.5295696039094235 -0.30426331966530823
Ni 2.2606888404255234 3.6409741405792886 12.342749799252285 0.8900842898682929 -0.6083829146639006 0.8032884751289714
Ni 8.331785860831591 5.611543362464194 9.78678177039209 -0.6825466424615083 -0.13425169422843974 -0.5945645207235696
P 9.093268176423868 8.990702237531218 1.8072898856339115 -0.5143656424754754 0.21814627616056625 -0.045862823970385526
P 1.9186561258457657 5.321731805813396 1.9034089293414094 -1.9013256455645964 -1.0724305256111142 -0.16370316672033744
P 4.205912970466109 2.5405210588878946 3.622230908385909 -0.07405137058945956 1.6095172638331896 0.23230431282850314
P 3.2407457344498107 1.711731887974238 0.7767425813889283 0.6594591645144254 0.4579345560709404 0.48202604980250535
P 1.081726652873823 1.5422511725290702 5.4338934058135155 -0.13418535976687856 -1.8359075251701027 -1.847462576997554
P 7.4151430400664085 2.1325257590514277 4.371237650961335 -0.4855268638669122 1.096433573393931 0.6922245318709046
P 8.387423705174925 5.100281983076394 11.916778621384355 0.7080103339502517 1.1162830040196903 0.502935803371979
P 6.214849900446835 8.259811401118991 5.30871199012453 0.7362227918287255 -1.2600626923432234 1.0689718776385526
Ni 0.6167959146732649 2.3005688523441 9.945259075245396 1.1605409453968014 1.0154785337061027 -0.5821221811951588
Ni 5.807536070851486 8.128399667088608 1.8092026699134331 1.4757149984373423 -0.759519300462821 -1.8658189680175543
Ni 0.7707587125593853 6.020518859222817 13.228715256916619 0.09152947276956495 -0.8636379227513062 -0.36051417173823713
Ni 1.252598314427574 0.8699144996838104 0.6665693808594695 -2.908780537635274 0.7846243230605648 2.6065625305347693
Ni 0.22025491601284977 5.084598832321898 3.8922536894596944 0.9423108512731772 0.2901741885620938 -2.050558900803533
Ni 1.8411832281603102 9.073804266112484 6.74910950019105 -2.6130910756819064 0.15003466809430935 -1.1340868649703306
Ni 3.016616706792249 5.814892215372048 11.669039917195128 0.9161272508992738 0.6553927077545358 0.5794191804416989
Ni 1.1954201606351393 3.158567891538006 1.5977807284505263 1.5949519644245047 0.710672454163447 1.1929435300972229
Ni 7.179569046441577 0.5679027586752441 0.43456423755216456 0.9880955137074595 -0.4440387719254546 0.7890612757859959
Ni 2.9338507457271508 6.5725097545283955 7.2543132625999265 0.39696855791052926 0.1655610458646826 0.8486879863096931
Ni 8.488664044420467 0.8743636601895205 10.968973940182513 -0.09403784101371546 -0.08547915281042698 1.9910617738791645
Ni 5.175383737731112 2.424867157282266 13.598231759672753 -1.3117315814724249 1.7370210978148342 1.6256272820211748
Ni 5.3751852113016385 9.266800372480613 9.286468723864333 0.3351034449746164 0.17981832711464515 0.3182786601077938
Ni 0.7863261067249794 4.627313630114157 10.791245567778061 1.9515704006527614 -0.7039346212189812 -0.25694936507069294
Ni 5.615268110768388 7.276496519229634 7.511341433048556 -0.7698541067299258 0.23842328124204745 -0.060651809354102006
Ni 8.683461846083608 3.6984696914703266 8.112978835700899 -0.4444717456978151 0.23680014381632766 1.0958126519804805
Ni 1.2708859884323709 3.0449210598206022 6.769248346097405 -1.2770427718409878 -0.8023464229306763 0.05703503853712112
Ni 5.00987048601848 7.280912072983727 3.705411352720948 1.3019791300713512 -1.5055428804320523 1.2407552502638632
Ni -0.018081365890704786 3.413204381496576 13.409121900720754 -0.029114400867453084 -0.07819984554019435 -2.7192025600307037
Ni 1.8731189774050316 7.897558624316473 1.0609950212097838 1.2719316758666674 0.50776459221919 -0.12602750654643458
Ni 8.586394345163814 4.631271758637911 1.5480474036620862 -1.050128005459172 -0.253070341731261 0.920908217227685
Ni 6.313028291211739 5.957254149304232 5.683994851345576 -0.15654932928437554 0.1203080875641541 -0.10839565239728428
Ni 7.47192911508998 7.340638738773768 8.775594755641006 0.26794982994625466 1.7545349383288815 -2.2593018813723282
Ni 3.699076480041185 3.782850643654786 1.449974500756424 -0.3411100561800125 -0.4281064169659143 -0.2724711148553759
P 3.171198429020645 4.197165879836964 10.267651444067782 0.4874135393666639 -1.3678065700891215 -0.5248315750038057
P 3.7085050409114477 8.479618227110285 2.5175480435951925 -1.424117843086341 -0.20613562485293527 -0.032235205884621906
P 6.932839478321731 6.305494777724311 2.381860783942451 -0.0784027055796198 -0.5563800392340483 -0.28774269630246574
P 4.625689303786013 4.685061231642321 13.01394570958433 -0.7671225667313756 0.06149410274973925 0.25620348804360393
P 3.8573082689035147 7.699624192502434 8.914096580741651 0.6942775577451914 -0.22337332888746048 0.3842742502723124
P 4.665606656539719 1.9099930520956632 6.7327131394855755 -0.10561834676246327 0.510410000261837 -0.3069966594360713
P 6.843118786713718 4.892302866612452 7.566116704100391 0.57204731345766 1.910572618084161 -0.4535521107325285
P 2.314861056990013 7.633922993091633 12.591868247299555 0.13178446363486981 0.7437538100984481 -0.5078941758185189
Ni 3.705461762848373 2.4410544093110147 8.745795835686584 -0.6290183315260651 -0.2795768726622217 -0.5568639208490023
Ni 5.55509335495679 3.6897786120938765 5.5796094802612295 1.2942223689440677 -0.8516383271872687 -0.8579413865871612
Ni 8.003167841272198 1.3487509648866887 8.794450010339775 -0.3815324258611171 -0.6355155092146345 -0.24837833557223027
Ni 0.10478958562462665 2.067057939860188 3.4487108481005806 -0.7544994786507264 -0.694116606687295 -0.042106442251746846
Ni 7.417327478921498 6.765197799006705 0.18422941180054203 -0.5992364722779421 -0.6929626955885098 -0.23024280231378408
Ni 8.18043412084192 8.723799283232525 6.461488917041491 1.3258749628523423 -0.9418956181126295 -0.11052683980767417
Ni 9.212992229058639 5.948712433268302 7.119417628651935 -2.8395934371166516 2.659181699392382 3.994339373098231
Ni 6.158306540851607 6.747470237528854 10.477365042323504 -0.7411030027391624 1.7020083291850752 0.48460023828758475
Ni 5.429226734943175 4.766408240972488 10.894825310344483 -0.869382024323935 -2.282057172790973 1.209681154566878
Ni 9.013806879267753 8.27259130194215 13.148048784306692 0.8059192278835992 1.0827982419986837 -0.4275104352531283
Ni 3.8894773983677973 2.1164878703631986 11.106957661195734 0.7056878564646621 -0.07715932009082195 0.2332988155312885
Ni 7.761964716751557 3.4442812915333136 10.508216040307705 -0.2787687749386296 -1.0681203282715346 -0.47034090015509317
Ni 5.267148840062479 0.7391721001231271 4.679175382504993 -0.3105146998916588 0.9596249170715924 0.6677309176049145
Ni 4.963549180040021 6.937357719372432 13.220421857434301 0.07718477401211868 -0.40361151714834353 -0.6288645795570201
Ni 2.487833140519813 0.567921429092809 12.676223994420303 3.5087302339301574 -2.018879310312065 -2.313290419773642
Ni 4.394988289145615 8.664044611816136 11.455951640964557 -0.2534467512340732 -0.6593987435901354 0.7493613860932127
Ni 6.5846268555280005 8.419303443166951 12.136534103727344 1.3951479382165521 0.4010805231963738 0.3020274883562541
Ni 5.986874766770909 3.0955832378828947 8.18615847086731 0.13163302565867008 -0.5858456527933329 -0.8372818013552806
Ni 1.4434193171493959 5.394854496206236 5.910951513743338 3.413444122331637 -0.8549781901937792 -2.8615321461712715
Ni 9.310246434154083 6.788190418237851 1.6974256805151513 -0.5693347996225033 0.37658690893038366 1.5808738890648837
Ni 7.514983097994586 0.014264199019565757 3.8882087434942636 0.284082216731743 0.3910275098357459 -0.9482333874051992
Ni 4.913176393449984 9.444150668929378 13.776561319522795 -1.3833177783508435 -0.3591250047001944 -1.5680479409448091
Ni 0.2803204498816927 8.453927732541015 8.732187901844423 -0.3109646429448838 -0.022984890930947514 0.02190425627225905
Ni 6.340277765647677 1.5852864850161108 12.041726656853779 1.1906434212091366 -1.1771114481609728 -1.807947806732383
P 7.8334537456074695 2.5469250121126477 0.9447081924487062 0.018732543412496774 0.2159613526941055 -0.5510763676329478
P 1.182248181043119 6.359676329497584 8.929563154652394 0.3868335263590564 -1.490000304711763 -2.5319622294203747
P 0.5684395331802343 7.445641167158635 5.597671242213491 0.5036130319446618 -0.06235619363971842 -0.392833195585917
P 1.504760974058798 0.854874544814424 8.64943034246723 0.057108057866901644 0.905158410592596 -1.369598628992538
P 1.0303923397791948 1.843582376817397 12.114345245972366 -1.9165077526216734 0.9001807548723465 -0.8144272653546102
P 3.814730381646813 5.622736277794338 5.143553476345631 0.49275449196360305 -0.2682930722182863 0.054781209505937914
P 6.177070310504307 1.9433104122401854 9.929642204473256 -0.5081998799843958 -0.5781323433094753 1.1322187014133405
P 8.239236600962498 8.175374437681837 10.579946851071082 -0.8082818145785048 -0.616167443705326 0.9416500777607267
