# total energy = -340862.2352613638 ev
CRYSTAL
PRIMVEC
9.33187477858685 0.00000000000000 0.00000000000000
0.00000000000000 9.33187477858685 0.00000000000000
0.00000000000000 0.00000000000000 13.65814201882225
PRIMCOORD
 96 1
Ni 7.857569367643161 9.030483400247963 3.1038674669498336 0.2452423610464099 0.31421683133359435 -0.3635421599312836
Ni 0.0882170136163307 5.299263841332114 -0.013010500077633025 -0.2471112959343486 -0.8382050845004985 0.9808781700234138
Ni 8.102297788627183 4.888232076578546 8.364328438985716 -0.7381979132772254 -0.2397751672842516 0.237532651106978
Ni 1.6791682495116975 1.2935658440405498 5.373085504625853 -1.1499258888851163 -0.24179862547218353 -1.2677950279904748
Ni 2.1497000490486453 6.61394771842078 7.020353672753688 -3.3467643616159006 -0.1529929793916849 -1.1652213815916064
Ni 2.010197850181527 0.7046797406844916 10.316363512066495 -0.7691025732758818 -1.0289490573887117 -1.3699436710367827
Ni 8.466978130424502 8.348836593354617 12.41516938142543 -3.720194212974542 -0.5350964472649237 0.46678686425524774
Ni 7.165816140161607 4.14318451116602 12.354800549082713 1.2117282669038938 -0.729743354751969 2.0478543573881764
Ni 4.5574917640326635 8.197594895780238 2.409063649541887 1.023347137820902 0.05040390637384868 -0.5134585572801738
Ni 2.6493659622295254 1.8255013808539464 8.168265745949517 0.3264817647438764 1.7070795730603956 0.09831667089472745
Ni 1.8546168307479467 7.811385918436299 3.0720989650029926 -1.7946135515173223 0.689645715400135 -0.21882710427767474
Ni 2.0829958067914935 2.1802526076874136 11.967715308679464 0.41813259358265403 -0.5971451369665522 1.735522401782121
Ni 4.920305730836777 3.594899529412147 2.9053056977977323 -0.6392690627197958 0.17853483241653126 0.35859252923549206
Ni 5.535201636098141 3.110565886800447 11.029728428781867 -0.9690446677235957 1.2700223746590964 -0.06433799995643757
Ni 6.280361184010259 5.716361324813598 6.483533832583074 -2.098052575509122 0.34297899106795127 1.6181502569178392
Ni 3.772970367513849 6.038880255514413 10.201635574859182 1.607017637339787 0.777224688162384 -1.5898532097453588
Ni 2.809136993522851 4.05811513897573 10.921350832488935 3.1045918977440663 -1.4922343362486044 -1.105007173995555
Ni 6.831958981377072 5.214595739765363 4.341254490507413 0.835413123577658 -0.232000151324523 -1.6114867288547343
Ni 6.099220159044735 2.882485530755813 0.6486716935133986 2.9816139766572327 -1.149831529399097 1.0684766831696888
Ni 9.12342887490958 2.1334065953579646 7.028903536597562 0.114571442190693 0.5297220703268877 0.8694617285219349
Ni 0.787480534070541 0.3598566956273795 12.68271890263887 1.092290240649519 1.2600711769836557 0.5514455780469083
Ni 2.1298138234960446 3.228278157621895 3.60747049817888 0.02785044655336494 -2.9580518730665766 -0.2743030258577921
Ni 9.16360259663832 2.2501016918081156 10.969372661064101 -0.17284832355471522 0.1436382776496623 0.9455440134984943
Ni 0.7624916392865173 4.385122701535202 9.86885438125823 -0.616647468665538 -0.4271173135797677 -0.8317292469681676
P 0.7343812323263582 2.18845532578255 9.085642246797148 0.20579598212532943 0.036079519331376576 -1.1963415000351783
P 7.632633853462077 8.969602247969613 7.48346009938017 -1.2533204885233833 -0.30038841009093425 -1.6098831318130402
P 1.0333371787379573 0.8938032514959549 3.052417107512148 0.6427811896381124 0.21973958878961514 0.19827961914362627
P 4.643811607468401 5.5261123898812325 3.8837471888605473 1.7516195644542996 -0.18594552305830556 1.3232701782396437
P 7.513605788270419 3.7457399563629865 10.092834311442791 0.542925199280723 -0.8258673888707518 0.5794055535949441
P 7.867909085105517 1.1602786739008049 13.02172725640465 1.4620647546437595 -0.6019677551661762 -0.7995822299219778
P 1.922226264876803 4.53580448661162 1.864541279774315 0.7783078939242338 -0.5454690487484993 -0.6290095897753167
P 4.35812558725849 1.9767057509284611 1.2211252982417824 -1.106387085062217 -1.2483849988949791 1.9912682334630156
Ni 0.5159313712466627 7.81175919343494 10.828243916390406 1.6115564057504053 0.9592024848221931 -1.8189996936711705
Ni 3.625918681799216 2.39548297190383 5.497784550234365 0.7061252011123968 1.108294072276943 -0.8256925538557844
Ni 6.2798479308871284 5.486087978151949 10.78761013322584 -0.5801506592910848 1.879900128700969 -0.6466704973901896
Ni 0.2611254584868276 7.5478631012707 0.8099610208636969 -0.7067144979569635 0.2883001114678325 0.5332668502553526
Ni 2.1229735591459478 5.414531160912464 3.8477448152416196 3.4129761815562834 -0.8281885808047609 -0.1769862569824887
Ni 6.950483125320565 1.51223967011943 10.599497264473198 0.7750351367102329 -2.014304546457189 0.655515092265013
Ni 8.731555449461263 0.22392207255977298 9.07811608963705 1.2405994414122892 1.758354826295604 1.712834987486934
Ni 9.348672340964542 2.6382050397701584 13.4610010075554 -0.44238709525464454 1.3978733075675152 0.39070432216837225
Ni 6.4421292365463145 6.714377356805148 2.2175633101765775 0.39756582517489597 -0.5065384331215728 0.957956528230234
Ni 7.9639714060057845 2.1294218847474715 2.680984220989414 1.4547952175655396 1.7587417773213776 -0.5658501835080126
Ni 2.97944371165282 4.513706606692071 8.184696378202197 0.19748900492153085 -0.14424608643699027 -0.004722088066017673
Ni 3.7579740444434457 6.037611120519033 2.126136131571934 -1.6764217389652225 0.7583322221332552 -0.661517589705351
Ni 2.203619622602342 2.192803979516718 1.233711198008461 -0.3552642361932075 -0.3550207527238337 -0.014853520073064742
Ni 6.007441168753871 8.421811855588938 8.993340671508188 1.7454471170950003 -1.2624710446743999 -0.2947044723322796
Ni 5.506580775577341 3.713946258353736 5.598855288428899 0.8008140454465499 -1.4994586219111854 -0.027384819770856064
Ni 1.3294375714099527 0.06960365580909586 7.455993591792667 -0.816483890773323 -0.17993068432279336 1.1508214041161924
Ni 5.157400678098591 4.200976812830618 9.066643482553816 0.6546967101287757 -0.4507472942938818 -0.6940759832573467
Ni 9.390665778311657 4.654365958054976 2.848419521192336 -1.8717250490893442 -0.16395539194045958 -0.9860440304950694
Ni 6.173921818147771 1.2466545085863385 5.878204965536879 2.253816689888041 1.3368661717565233 0.6259993421940832
Ni 3.9916721892176272 5.414969759035866 5.9864323186428585 -1.2263174775719785 0.43029982507280734 0.06607503725220233
Ni 6.700034264982366 0.3259642589382708 1.0218897677171337 -0.1312833556287352 -1.1399512941709078 0.9068008312920254
Ni 3.78062250498599 7.661086740233489 7.514436325142395 2.2528640961667845 3.996400626502633 1.815107557705616
Ni 0.8653317009746103 4.917870111470644 7.405868358600156 -1.9756721787969713 -1.697709187589089 -0.8675598835135317
Ni 4.961058028813411 1.1655045238817794 8.95812964088638 -1.1615051090822834 -0.9924471058079359 2.145146443673131
P 4.644996755589086 4.946434980741649 12.223299499811464 0.23626741124130926 -0.822554265337119 -0.22420405231887192
P 4.791283227556505 5.98776957632549 8.010828616585194 0.35104454168490506 -0.5286283230420767 1.0213856432191573
P 1.8628662082179135 8.066678021881865 9.049475632178819 0.5063152613671732 -0.629054069860007 0.9435817475658008
P 8.530276238319056 6.882509748068034 2.6905587247045557 0.872585104642265 0.09334621426332955 0.07886653258991579
P 4.980701625616895 9.505167884144793 4.617394935814576 -0.7974937228240653 -1.8670147880978682 -0.0318125165249065
P 7.78395953791115 4.062837067708539 1.2218849128640166 1.1310833022573166 0.669681356463066 -0.5489341244789644
P 5.307046625053779 7.305532972152945 0.5030543169810437 0.13843513618216804 0.5469726298772193 -0.3445581626296131
P 8.206758796996876 5.822352760677718 6.336585730680564 4.234242067099281 0.048461180825181055 -0.5825307294874871
Ni 5.782888261446396 8.059903080656529 6.345053474024736 0.6171979418523693 1.049439978253212 -0.49385158168252363
Ni 3.916830551990101 6.927312079779923 12.536808505232582 -0.388706317901737 0.41509586363885936 0.24854211484360422
Ni 8.773950157431917 9.516272815354364 5.742319801406592 -0.24523181952344864 -0.520689013590342 -0.5540925287514522
Ni 5.908821914112913 1.4970473776747404 3.1252831868093662 -1.5091246842460397 -1.3146456697954263 0.3898049502825545
Ni 8.635586447310654 7.2499803204801925 8.858507209686573 -0.40060178378774236 -0.7716813897466516 -0.5353239898946973
Ni 9.1590486416549 0.7947612629190343 1.2537887269978654 0.8488988167689185 -1.2154573949290228 -0.12872536509357183
Ni 4.04651561839296 8.645403579774914 10.14341027419616 -1.568171868117183 -0.3718031143884952 -0.022304062813839006
Ni 7.029934708781307 1.996022732108134 8.438040919342352 1.1108600332319063 0.9608760158698744 -1.8282474375216835
Ni 5.510070896814635 8.48802150847289 11.980266680508768 1.7897138002228596 -1.3688355255742684 -0.2604416944946676
Ni 5.240678330295404 4.867449991029207 0.9050621586424648 0.5291754537947984 1.7388193273658377 -2.049651301387599
Ni 3.314224726058992 7.246508862992832 4.591867591845013 2.162330411651586 1.3080569608343149 1.1379358064027758
Ni 4.260962105112231 2.8343517196810524 12.89226242225099 -2.5676463130855454 1.084167097321752 0.5003991529930543
Ni 3.3848110283020105 0.4706932409738599 3.256469751894259 -1.8260206050736938 2.4041897151583758 0.09920601547821624
Ni 5.8400179999884045 1.2106148074675476 12.750599894329236 -1.347628295369034 0.06660956959943368 -1.2276631929665953
Ni 2.6655474334206137 5.294093982600935 0.00398004467300996 -0.20457727922687993 -1.066115896246996 0.20845398857346678
Ni 3.160752710367733 9.250864959445627 12.44141994570486 0.6495743013005457 0.689966074854031 -0.05326091620666956
Ni 0.2577846472489904 3.711865250236313 5.1438610607103845 -0.9093135704115503 0.21886952747983598 0.0914731656103328
Ni 7.3286386945688236 6.560298769241099 13.374654101682259 -0.9717461258151587 -0.35053880569308016 0.3601287633743604
Ni 7.868664966977765 7.448198676633545 4.7094781452293315 -1.540137073467154 -0.19450626814412308 1.5586415600292447
Ni 8.732376654458273 5.812330326964207 11.313271850499579 -0.6527329015341855 -0.24524107549482924 -0.23913599103835592
Ni 4.017512150998552 0.6457200214616445 6.754129277785425 -0.09269341117067907 -2.1949872784546587 -0.07916143812251528
Ni 0.48168059055885853 6.366587708696336 4.516720802306097 -2.5499090437067826 1.2771476728499682 2.1352973187931936
Ni 2.3583141139141497 8.670739620307673 1.1001020781823883 0.6259211806579801 0.9620929189961108 -1.2262681123912815
Ni 1.9268175473600875 5.989066706945767 11.467321509251233 -1.8627164178328306 1.1723453942308972 0.11548289826136886
P 7.275978924135541 7.451035566623217 10.681267818862999 0.4193446116128843 0.5834195598503435 0.1675446519536147
P 5.03133637918255 2.6116091961169854 7.590348328428525 -0.38567344461268416 1.234506441140674 -2.9885873226512722
P 1.2201053243079956 4.068361537688427 12.316133925160987 -1.0010158213135534 0.30892858635146153 -0.6719675813940814
P 4.2221881646283945 1.457461564068859 11.009733020292163 -1.2369932121182696 -1.3560214045287355 0.7316845376387399
P 2.3211919152992992 4.008880166654979 5.907515451617669 -1.1056440362486055 0.18620674713949223 0.10662210543662927
P 2.0488784719157036 8.513320221505786 5.769759246556695 0.04461198228241994 -0.6564800272814435 -1.3502521061451263
P 1.6337780096769488 7.639315475937751 12.759354126234866 0.4302347761628268 0.604480751396017 0.89812438656395
P 7.296975642809099 2.8671905876864967 4.5634585648859405 0.15578879696926717 0.22458457558674225 0.8121685512274205
