# total energy = -340860.32147453225 ev
CRYSTAL
PRIMVEC
9.45052299859870 0.00000000000000 0.00000000000000

0.00000000000000 9.45052299859870 0.00000000000000

0.00000000000000 0.00000000000000 13.83179568195177

PRIMCOORD
 96 1
Ni -0.012122185654904189 4.06305383677189 0.4167897937228354 0.8263630975602478 -0.7293317211358471 0.4826336014795172
Ni 7.984822356992117 2.5987142227888116 12.39789426336884 -0.9991121765329375 -1.2842912258732848 0.47023959869053855
Ni 0.9846594258752026 8.236414176205386 11.449268736054163 0.43165993864512753 0.30897075244330663 -0.06387931515246417
Ni 5.351613725814438 4.83056859920846 2.0345605362195958 -1.1873603795824907 0.5579077887324843 0.813572887774115
Ni 1.3078011535575438 3.609702805313709 5.343997549452633 -0.21027047295691528 -1.025202702972402 0.577525820073728
Ni 8.67388832928184 8.416210373355579 2.251484057423626 -0.8100160236607922 0.6706154382415612 0.3946100849806817
Ni 7.8411555086831966 3.6258064962437446 6.568899661655024 0.6710337567259025 1.7075133181637046 -0.17814916694233834
Ni 0.5872035117912562 1.6285708000054724 11.376776610457318 -0.488717602890068 -2.4877374552740448 0.2909434626279505
Ni 6.327682626422385 2.5264271735377304 5.10909157337673 -1.5295233025070496 -0.6487752024380182 1.199040129913264
Ni 4.529890764331691 8.836579080080295 10.852772525148174 0.7387599564282825 -0.02389120479530079 1.7183734008066598
Ni 1.4611547877838869 3.591879119225653 11.503378649662737 0.0881412730236224 2.740523690105983 1.4925485250549133
Ni 3.965855209298054 7.0247059389486655 12.713950934073338 -0.4497173103674706 -0.7519129488704729 -1.2402669977735348
Ni 4.721934839090643 6.584869155160643 7.042320768481818 0.7843067918201461 0.35836087284066026 0.6906047368792945
Ni 5.7800815306184035 3.693878612305392 12.362305484434378 -1.0773858127338605 -0.5928873901314627 0.5552035024274438
Ni 1.3027640248804844 0.008613206522085973 1.5024091551646874 0.4290867786013126 0.30069797091155315 -3.1063340772461534
Ni 8.836002598186672 3.7306978493144403 10.12907889209745 1.832520868086057 -0.3724122087274038 0.6394618954568922
Ni 1.4083547166418038 0.6875576688434601 8.847950894221205 0.30132480586227456 -2.209596029506769 -0.3637666172372638
Ni 3.7609773245138736 1.0496979241031987 3.092318811258374 -0.6001780102556051 0.4707322220562409 -0.11161338800363359
Ni 0.49818242173629323 5.780847022968951 7.292426965503654 -0.22320029364470595 -0.6268313511770752 -0.19707017221655737
Ni 3.7287604921309563 2.1160098673701313 11.636053594849168 1.1479330268248036 1.1443460808044938 0.6838478777714352
Ni 4.2402700411850525 0.9720618789211313 5.630453292498058 -0.8830150417263373 1.426705144197543 -2.2144780401894186
Ni 6.870596262894621 6.634484400103534 4.186870806894516 1.122056673278674 -0.2505246924912718 -0.9228717687119591
Ni 3.9636154353834887 4.098360990125537 5.920782804858167 -0.14694111677065017 0.12233643084809255 0.30241649626455663
Ni 4.263754590458021 4.026196797671456 8.449581114578026 0.42596648780477603 -0.2358632338243551 0.9461554218302479
P 3.458636197616162 8.095979406709887 9.022978357543172 -0.5708931452485586 -0.7111416804903817 -0.7416475623887226
P 6.660066965448373 0.13106930135485007 1.7524331326377607 1.0493605311655283 1.028701203043964 -3.093778094958014
P 4.353685765863079 7.2197269284041905 2.8440658617666914 -0.8045480585676853 -1.7275026168014376 -1.2025887664964707
P 7.697431957237197 8.490463131358682 5.233218520648714 -0.32313495975883055 1.2116141099235327 -0.3678112196202827
P 6.7488073749748025 4.1063372314077835 0.5910508196419707 -0.5101261504728312 -0.3109512732084451 -0.9560055751514503
P 2.117739313050998 4.2381909261588735 8.440272349574453 -2.0028384547991185 -0.36640431197042705 -1.9517596338454324
P 6.126320336137017 4.947112446948601 6.256577837579372 -0.6532424941807524 0.3272515530303654 -1.1758590638111104
P 0.5680567525047232 9.253186478712196 6.725240606153072 -0.6941909115686561 0.3616832523456739 0.9887735136110907
Ni 7.699558324877606 2.2008283099153605 1.0776383948981814 1.0857804645554592 -1.014922661202633 0.3348021116841137
Ni 6.043221888749807 6.009379566437333 -0.30692746563500417 0.4347156947523158 0.015448473344586298 -1.2055275374098207
Ni 0.9948187379349375 7.63545542841139 8.99842684424086 0.2408712285619078 1.6111828244610704 -0.9254549560581029
Ni 3.0949706279690363 8.636398105150707 4.297635659914166 0.9234610655565256 -1.7485920904818855 0.7257064656784341
Ni 7.501711629091048 6.704371016551664 6.4319228384689735 0.11858570555640867 -0.5181148251052625 1.9051509328479577
Ni 0.7328020469699541 2.527948707715979 7.744505011534443 -1.6315356770858094 1.7001216536853236 -0.9926059999833035
Ni 6.521380542679434 4.930687438241792 8.301262718924171 1.3416054862137217 1.049126046557219 1.1247794715264758
Ni 2.852942737876188 8.922295322295918 6.850016804344594 -0.06523582918035861 -0.434903899503722 1.3430090514294677
Ni 7.676754213249569 8.27577560386008 13.803094395484562 -0.5858780486931652 0.7184680389484659 -0.03612039987164102
Ni 8.568855218368451 1.6028275757722463 5.8630495607903335 1.148331547814803 -1.7696285994372105 -0.01350677623718319
Ni 3.0695581720354297 4.394682133970177 13.036314883725431 2.381551923154202 -0.6367951472580066 -1.8742763547562882
Ni 1.5419000549823754 5.9482441341448435 12.550902008459012 -1.321563737071498 0.8190264546895184 0.12894313753133277
Ni 8.893234964543653 5.23822635270495 4.980705275457934 -0.10148684109259296 -1.3900558684056254 -1.2790880844057908
Ni 6.609005790510004 6.967813791414149 1.7114632259946325 0.07844230056830362 -0.08129005442974387 1.0815854526375048
Ni 1.6217664235561615 1.0322522589289935 5.275778950286869 0.13631860405979748 0.461634887740663 -0.0964320522775049
Ni 8.32179965012139 6.584519485815331 11.751548434553374 1.6211412212253629 1.7573952905958123 1.7235647151996123
Ni 3.604996444936269 2.820867663335964 1.0396652490496037 1.2973760840817012 -0.8215695328263464 -0.3702164866276656
Ni 7.648194733208156 0.8306527605201826 3.5828642654826006 -0.25724581326518925 -0.8387830684911555 0.4659034332090299
Ni 2.7663759486044 3.5693868748515425 3.1076588999424315 -0.4570184720145742 0.6237187736900226 0.25151739542184426
Ni 0.4324587606019429 3.2528794142072788 2.8831966966639366 0.32933311814974253 0.08931523872706552 0.5975899378134547
Ni 5.764771683607453 8.61392476182229 3.247788417549996 -0.4712083903617111 1.2074381241689722 3.201723290081441
Ni 3.016777001939039 2.1230410563677524 7.3144882660359745 0.2934721425870752 0.10142539172703822 -0.34385676568721424
Ni 3.8772660081371653 0.7201326760422513 9.203040114385345 0.571417393183145 1.5918589273214778 -1.8566439863865056
Ni 5.680047746290687 2.4342373231724146 2.6827737883494858 2.190053074377835 -1.1899157990144926 -2.0948348399027727
P 8.804390599265915 6.292517230911434 2.805309267574158 -1.4707964780898024 -1.0905899701289605 0.9871192658371193
P 2.5042562469403924 4.700085230270078 1.1084376488541592 -1.3772332627196604 1.1060042478015017 2.116280154260742
P 8.100695217610173 2.8532546051301146 4.073090292034624 1.4698608536494104 0.6599813555664827 0.5755537839490216
P -0.2179167711551721 0.7677255090960421 13.539266984342234 0.5801295762451621 0.3400654169655821 -0.0246422240287124
P 1.3695414193121933 9.375381739114404 3.3957335175514216 -0.9809038810550268 -0.17424314701971283 3.3766542071967978
P 8.096669294877664 2.8510337322612425 8.490675768122724 -1.333934085711393 -1.904651881724352 -1.2071100514055921
P 5.964442330303342 1.478052322633009 11.359445296609552 -0.5276973265873751 0.6781780810801675 0.13235499142635918
P 3.630248241981489 0.6115754651594892 0.9794115505386716 0.9192040900523847 1.5893929822794886 1.2356058448524398
Ni 7.310140080474408 7.860727541497811 10.01226948466533 -0.9537188359998027 -0.3928159691947364 0.011971570539579382
Ni 7.680146950951378 0.3311122986508811 12.02743754800439 -0.17988286180399343 -1.0202085921919204 -1.2330457974347475
Ni 1.1423981027022128 7.120817756295181 2.1489628954827733 0.9120651650147583 -0.6049535772673775 2.023110574784593
Ni 8.66731076538084 6.199439031398569 0.42637356894123285 -1.0878468601661846 -1.0284842019371514 0.6114597538170116
Ni 0.8261458061747987 5.746947997519398 10.216246734622262 -0.012738787722907092 -0.557573288211201 -0.08752780780933958
Ni 8.939372417079118 0.003974889909139083 9.870051401508741 -0.1557054932268415 0.39369811468937355 0.4865979854439039
Ni 4.675305959367171 6.1136282839544815 4.716600963996211 -0.9064961555674129 -0.20033701589328723 -0.985409482234864
Ni 1.843948215671853 5.611616510360882 4.339268993261102 0.7438638533137513 0.8552895507866108 0.4438168857226356
Ni 2.19126438079494 2.6638850283366553 9.618796965961085 1.229279902634412 -1.0773431324213831 1.46898822123647
Ni 5.581648902415376 1.5232636239295407 13.784393700876372 0.142783900069167 0.19441576531284582 -0.31039771469782024
Ni 7.928969766970691 8.796811279943212 7.845795715400712 0.7208799908240682 -0.5162435762244787 -1.3722028993846045
Ni 5.821229107091041 9.005535527525822 6.321683434519576 1.1800875000701612 -0.9666363153924191 0.4292207330760156
Ni 3.0765610094645117 7.135513319321123 1.0617133188499401 0.890394364909544 -0.8413611136309769 -0.32076311709254435
Ni 7.140106273424408 4.996018902678022 10.94299761181375 -1.995021272747545 0.08096146744573153 -0.7364027690500156
Ni 0.2062945181588353 7.394476546354478 4.897672981730651 0.23931468270806522 1.5121310751725314 0.04960532173195328
Ni 1.2878038472148468 2.1951579962076013 0.9918559990226334 -0.052670590920838325 0.23292060625626337 -0.9320518925493303
Ni 7.860689739406426 4.245174862542264 2.4705802538300117 -0.6930220880715354 1.8112982112618548 -0.21990799604667932
Ni 5.063438932663278 8.592216910844419 0.1868519575072142 1.0280887662709455 -0.32287630678080526 0.6952939148248478
Ni 2.654150989805003 9.183583377949455 13.322523023072284 -0.7999519545565708 -0.8797281434449494 -2.6568263117863276
Ni 4.12125015645919 6.468627724151583 10.334660840833676 0.06092126096540476 0.05034271411861008 -0.2699115816583158
Ni 6.648669634895779 0.9287444624029907 9.169954778952857 0.07674537248185492 -1.137302800804467 -0.5450299043285517
Ni 2.7623878279632765 6.082876282612736 8.239960012377304 0.09444664641635993 2.3471086538746673 -0.375641771408295
Ni 0.680253359735582 7.777383380516599 13.894730445211087 0.13006928071597598 1.2646983913430219 -2.219717948432119
Ni 6.301495227615385 3.0629239049973513 9.79062920750873 -0.9501262335525379 0.9206014846205436 0.7698785322099579
P 4.274896756893767 4.435102020183653 10.832481307544958 0.5974418422713647 -1.3635146275819872 0.1583010218681596
P 8.43718108355144 6.3339483230694595 8.854064437450454 -0.2727050852430529 0.2621843882173872 -0.0061683335942409896
P 8.879144234979872 4.386110509748614 12.252093487001234 1.7222552523595693 3.0945674236285283 -0.8341615105587441
P 4.618876887452123 3.337215880087349 4.068553096016132 -1.4509958984241076 0.8256015368038749 0.6594990166134255
P 2.951785756325274 6.992593062317057 5.851955592021103 -0.9269490241051263 -1.3288139908760084 -0.3076782588841282
P 5.278022504410572 1.5511993694631003 7.363453315007043 0.16336532376494445 -0.043400478472822024 1.1193385030165623
P 2.5394499940198836 0.5850194959614843 10.92763011661344 -2.045271684262665 -1.3226572272459929 0.4796408373997804
P 6.2064229677819585 7.9206155047745925 12.004726051500246 0.2870837225622282 -1.1299988109438863 0.6605230870025657
