# total energy = -340857.9629592648 ev
CRYSTAL
PRIMVEC
9.39001460718634 0.00000000000000 0.00000000000000

0.00000000000000 9.39001460718634 0.00000000000000

0.00000000000000 0.00000000000000 13.74323553484273

PRIMCOORD
 96 1
Ni 5.369942773738241 9.252263093260277 0.31152500262310256 0.9460736607497191 -0.07412798946366589 -1.1913021378390578
Ni 9.350754956478902 6.632026467095628 8.849681240984811 0.7105593256243504 -1.2525347593972944 1.2000924824371784
Ni 2.476916833209567 7.3570576649886235 8.017226397978487 -2.985629011353897 -0.5864226083427255 -0.6529326762498174
Ni 7.385227708811283 0.6652421578823232 4.247470756567414 -1.973115730923705 0.799828541604829 -1.0968356939283561
Ni 3.635485005533288 6.0378826828173136 5.487839102143374 -0.7935411659342204 -0.2038892520209198 2.4535266137202902
Ni 2.847906920339381 4.71718651827958 13.532634583009635 -0.42541550039731246 0.3782792090311421 0.00699031527490409
Ni 7.1082222778884665 0.7747550812458326 10.45619724315747 0.17034638306846792 -0.5685138463831048 0.6316660535615574
Ni 2.0582160818587747 6.550183099776195 10.593615411931705 1.3831203176280567 0.8610061415554139 0.0906702100930632
Ni 6.297826457198206 6.717315969776032 0.05343857313158458 -2.4878546975781997 0.7578444838635593 0.7109529615183433
Ni 4.9820131002564 7.70539903688502 2.5731457029077704 -1.176731953334367 0.6274967526752161 0.4778719184248157
Ni 1.9476580498694447 1.5369106408912503 5.708981458162935 1.2678701042027845 0.9567118571898556 -0.984925086399278
Ni 4.5695942686780615 7.248997376884902 7.2753119538211095 1.1269415121748012 2.155068073662217 0.17549193182514936
Ni 4.06554767455922 3.789687825418525 9.465474642942299 -0.6458996806624361 -1.528478663292619 1.402280178385959
Ni 6.746716105512281 7.350259294412755 10.72906918965004 -1.1327496342161458 1.8903367506532605 -2.4028375720058555
Ni 9.296818712573117 1.838358279837527 1.6680168418462888 -0.19142660077753484 -1.0135643474025253 0.5607519430494988
Ni 1.8295692261648573 9.323298553766415 12.164124464090243 -1.9907085043048036 -1.2074286110872754 -1.973771619340149
Ni 1.430878595942761 4.54553705125351 8.42082424983449 0.6207697183640277 1.4738578906239457 1.9170931928114985
Ni 0.025000913892610076 3.566599858372279 5.705669600010851 1.491030031527858 -0.5276209648234849 -1.2024221590116195
Ni 5.237449667625667 4.635549731281514 13.46573166793228 1.000725286656328 0.38781311666350626 -0.10775699037202087
Ni 6.163887288836069 3.395757932602458 8.526729529585777 0.5398750996004896 2.42792459688147 0.1313543180759867
Ni 3.9837606473274323 9.402409426835051 6.674292800847145 -0.8835596013758976 0.6978933001209078 0.17306455333057938
Ni 4.1018400810174125 3.287199973724537 12.040723709122162 1.4887636040911845 -0.09384192295282548 -1.3952253284217069
Ni 3.665457932160598 8.6723357910978 9.400455364795219 1.4816825288746869 0.28135504760856705 0.7551561383981188
Ni 0.3565426106546335 5.032850639341692 10.704358427208804 -0.7639613953945746 -0.581924720472372 -0.13686882013631269
P 0.7888692122024457 6.9628085116759 12.363057557560017 -0.20884093959924035 0.6302437192927338 0.33425858047581786
P 7.676853392478059 5.397220766173183 1.0154643497046127 0.3904484974038243 0.635836382889163 0.08187806572272996
P 6.990678075031118 8.625733148600512 12.658151912622824 0.6016846767081185 0.4480252673770284 0.019554525093159872
P 5.785065929523555 3.160171856113559 4.063874373956154 2.0241207612166625 -1.451884471676648 -0.36992800885296934
P 6.167906215088102 8.16993244953528 4.739726309343552 -0.35120240741900804 0.008656647233733479 -0.8704667727476815
P 9.09868001433914 9.255051927598721 2.5571629590442546 -0.5451180931669838 -0.957198567018287 0.005415000367984223
P 3.863061399561945 6.4879179129135105 1.0327767196365585 0.36618705375329835 -0.572989365655955 0.020533086956345287
P 3.324553451833383 1.7861591886341395 7.991678046234256 -0.44438741351412503 -2.9752450970164115 1.1404703998991712
Ni 2.2372085403079516 2.1676003620221604 12.370465340083918 -0.2511718391569674 -0.13488727092990963 1.2555802310918376
Ni 2.389204706760413 7.920590001646315 1.89854545646756 -0.5732418479863934 0.22655506904955175 1.4134791324255722
Ni 3.3375961821232747 3.6334004222904115 7.248772955535782 -0.9089857547584861 3.749148434115047 -1.3361763447783506
Ni 0.2616846830891323 4.333397841239671 2.8456326588014322 -1.8392296475648002 2.334212257527973 -0.6848200118767174
Ni 3.91968318764549 5.92350291488271 9.05750667828794 0.5703586129013274 0.8859599832872742 0.8622634110012827
Ni 3.7299485524852725 0.6089274232764452 1.6995569619115989 1.318186078848517 -0.8298279161803966 -0.11568370141826528
Ni 8.909320979763223 5.788136464300225 6.312955648733896 0.38695462531795294 0.9131211170830983 -0.1595328373927317
Ni 6.86725572302944 6.866673542123771 7.8211243939128865 0.5955734216040581 -0.1371405857404606 -0.31787962489716215
Ni 4.343679907234942 5.423371956855218 3.561408119295763 0.9636499790705855 1.3427192881031909 -2.646303814988449
Ni 2.868067281701798 2.6683886210721814 1.3308289293007438 0.32779971222435156 1.5143908177409853 -1.4254234492716418
Ni 3.196285852294208 8.333421993867384 13.592417050010082 1.2760667810809636 -1.0055049674331586 -0.13964124067512726
Ni 7.92302201542967 4.107370799621261 11.842367162549289 -1.3603935654545023 -1.566174120960864 0.5230426014241831
Ni 2.032975722593672 1.2924885606566436 2.9582039099226214 -0.12472267169208197 -2.179934497886594 1.4232572948582585
Ni 6.992941068551538 1.4438743761596144 7.8303050111946915 -0.4247755528204684 -0.8744499257651457 0.9536602148477255
Ni 1.8064510102010616 8.07705581505197 5.817896237595942 0.597278577220623 -1.1980744235658851 -0.07586914052448869
Ni 7.688337380343096 3.222061442391942 3.095540385569771 -1.564768498862589 -0.18421388507917952 0.07978081687406906
Ni 3.962520434285147 3.537988483863065 4.596479758502407 -4.017504241250468 -0.8637441093118673 0.8786968739669576
Ni 6.214668487833716 5.9434379158945445 5.288850607587412 0.038713357409797845 1.6878767748796997 -0.22942390595691456
Ni 1.0142248677764159 0.2700540031088443 7.255068021328685 -1.0961119283884542 -0.8119826604688597 1.6248811478837695
Ni 7.1215467086165845 1.7039683907742271 13.309691222188345 -1.1983968399023104 -1.0532827490380698 -1.7738068991846159
Ni 1.54658235593703 0.7724573446713643 0.5895464331264557 0.79302848796386 -0.8105001623860623 -0.44463732474140194
Ni 4.776982131300479 2.2923842661419336 6.400568241028209 2.649449559706282 -1.6788506601216895 -0.7842281160634107
Ni 7.112936065221458 3.879127714555468 6.1795629792219176 -1.7821781539674466 -0.7093735328463654 -0.8721097076677432
Ni 6.699756642459907 6.030361281116663 2.9803164553219483 -0.3401867730347948 -0.2512543715684447 -1.401196201293161
P 2.8482543508798606 8.462731885028 4.060548430782158 0.8274768994497168 0.9605230034058297 -1.3372698349528451
P 1.8565091780739271 5.089688397761211 6.457822916096303 -0.661885257457415 0.5090159481277878 -1.3501497762393069
P 8.054585510096096 5.071105558852864 4.301866172187507 1.0567087440004834 -1.1791086810966596 1.5571973713835505
P 5.960818832933126 8.842905406444 8.517383648046879 -0.7180751743854215 0.3460889974518427 0.20898183605247878
P 8.217906034165267 1.6825967175274363 6.21998229710013 1.5367684141052371 0.5493131050849378 -1.7422648627122768
P 3.9658351094416133 5.7378717161059924 11.888380112129221 -0.6604729504909206 0.03514029534655884 -0.8209141586305346
P 7.567497282358495 5.4909800620296 9.350883599679024 -0.08821120702960937 -1.6378384793753857 1.2909110451826478
P 9.335683983033778 7.790021848528288 7.177803225131896 0.36675423911067806 0.29617000113421255 -2.0764185421791144
Ni 0.1392097835613567 2.0152849350730424 3.972716112146028 -0.8570983218605756 0.09257359776336316 1.0045122645025861
Ni 1.15780758114051 2.1623982939295763 8.445630790424723 0.10584254695812739 0.5215382489645147 1.040398179765918
Ni 7.543299214714832 8.87422110516019 6.376256554207793 -1.1147102602159318 -0.32779894089340317 0.648055036442542
Ni 0.3902321050636124 6.559939324953443 1.4836373320167588 -0.6054917091590346 0.22038365013151723 0.6072089489604575
Ni 9.022799306295502 1.2733892709448809 11.96902531358473 1.2800707600340342 1.1097313189441016 0.3896823086617612
Ni 6.637989126371424 1.485256170535101 1.7540631797040622 -0.2255842204958502 -0.11808356910900954 1.0765121518796559
Ni 2.452624865419827 4.938236852155987 2.1439994993075366 0.8750379370581316 1.6681926661872106 -1.4632700878057703
Ni 8.249550383392721 3.3782925054324098 0.6033873146579888 -1.1019221073123282 1.6436903101704723 -0.3762218122814811
Ni 8.816866895937256 8.380456577036618 11.258032187530024 0.8758234090739045 -0.008333973786992098 -0.03792711406307662
Ni 2.003312666448412 6.446141737924507 3.860969304307382 -0.912006800972997 0.23190913427261348 0.1632701929479769
Ni 8.17276823394676 8.70536986248717 8.789403920214545 0.16664707984000976 0.5218226129741529 0.10091682752173588
Ni 9.026498972050879 8.638522348496 0.17698769033046424 -0.07706650326669953 0.04766773838960823 -0.5587559956653925
Ni 5.029911564769528 1.48372559815407 9.550284315876256 -0.5158597105224987 -1.6516663863974135 -1.7920781866899784
Ni 0.3947393120752379 5.039827420195105 13.447535697625765 -0.7443058259471762 2.613588584143615 -0.11858621977704092
Ni 8.751024113509093 3.828224445367923 7.808754927670356 -1.1951785900753287 0.01742230924150548 2.1836929364877617
Ni 2.8848472378054955 1.5196048439695302 10.396703049605474 -0.33963707117891184 -0.6500399280830547 -1.458552884835759
Ni 8.817073476258622 6.989804803672615 3.8282882974672545 0.4153288055852718 0.9111033153221212 -0.30469500788608816
Ni 7.130720752888164 8.036528512005772 1.7304933040376433 1.617220546014718 1.5761818829058531 0.8428358984042904
Ni 5.796512357330162 5.29718894055892 10.92752151437191 0.23255885204147048 -1.7651121996240953 -0.07084623338860056
Ni 8.465060608650672 2.7740168953925464 9.96223740273006 0.07351503847001532 -0.5656879468985354 -0.3481916456171423
Ni 9.29464961919877 9.189716205959366 4.907847008880103 2.2172561171551877 -0.035437000651371224 -0.3238569255265197
Ni 7.846474616348898 6.371096741180943 12.302064717676657 2.7890092964111965 -1.0313370980049141 0.6377287148158695
Ni 5.416601756323172 3.961534482751354 1.9103505828321758 0.26849104716170535 -0.7854419338658537 0.5972518377477456
Ni 4.274691469913249 0.8572087995147563 4.094837947124559 0.34961115167248824 -0.45588590107202775 0.6947251868055713
P 3.9250354959717955 9.080416435927448 11.649454007444415 -0.6866323824951077 0.4648335971836188 -0.9166134465070731
P 4.923785619674964 2.2103530985303497 0.4424894143575669 0.2545872925964196 0.009183466271480959 0.014487909203529888
P 2.1324441473314817 3.7636680949409955 10.526328445256901 0.2791940354015063 -0.5666454257157982 -0.034183587860244356
P 0.7309253100621571 3.115081005968089 13.21230644169195 -1.6588996709210593 -2.1758996656955882 0.8494698587810402
P 1.8860595540438967 3.3650807548795827 3.3379567586842045 2.5394883625940907 -2.0882656713256873 2.0099077029410735
P 5.327067967040153 5.3622241817308325 7.102613622163376 -0.07479467651338731 -2.9522586634235672 1.1779439713645972
P 0.20240739887457118 0.5696104931131597 9.823637031116736 0.06722817702003905 1.7291434948389706 0.6792733710268753
P 5.991758931065013 2.644106043297049 10.954842700874046 1.397765578345057 1.732323692339165 0.8441235068674624
