# total energy = -340896.2398828561 ev
CRYSTAL
PRIMVEC
9.02962144534588 0.00000000000000 0.00000000000000
0.00000000000000 9.02962144534588 0.00000000000000
0.00000000000000 0.00000000000000 13.21576371339271
PRIMCOORD
 96 1
Ni 6.259306635356975 2.075729423722061 11.478419819430709 0.7035533266201626 0.5107511856513397 -0.35607747612312224
Ni 4.5889891642461595 0.300938327217968 6.108101106102852 -0.7907574325414962 0.6205779140681957 -0.5181310230551787
Ni 2.684678077830257 1.6718073586822186 4.7852958476920655 0.25226352955924947 -0.6965100466201359 1.0208025170221775
Ni 3.707237581003237 4.3806757928990745 4.923545675810133 -0.4144137499701702 0.2958627543064389 0.020425357733887404
Ni 4.8894769133440485 4.406654014371357 2.6250735453524885 1.5031895497085273 0.40396607227428494 -0.41843007021841494
Ni 7.152733519386711 5.9990458506869695 2.6524035011850082 0.7920967201782101 -0.36227254919024054 -0.40207759700232043
Ni 4.9898592171700376 4.460226759590354 11.457327526230463 0.6378482711128692 -0.09330147706832319 0.1252569469289972
Ni 5.499617477509368 7.755244053262117 12.293436177982912 0.670938883019251 0.655623078597787 0.9775527051946067
Ni 1.9545880197345231 6.321096336272801 0.38260583722280445 -0.13691561421384807 0.6666363989891552 0.6145034257393417
Ni 2.5813069692398174 1.6475989430523297 0.3345664441477822 0.7084643907685347 -0.5942315628641831 0.5595558658588685
Ni 0.7136119015560156 -0.03768061112403062 4.641442236381193 -0.6841908629331507 -0.5885476251055283 0.5967083065394498
Ni 8.75894067681897 2.203083207401267 1.4628266982955778 -0.8700875350313918 1.1580400333518186 -0.48062582702086903
Ni 6.806537825522505 0.5288351419884411 4.750023436660721 -0.04623100594308167 1.032990574447937 -0.06458431163928877
Ni 0.7859816101531324 7.3457507116673915 2.5309641196831896 0.005897596431357585 0.05035119875904232 0.018187983762936417
Ni 7.521205289848805 3.467257326547603 3.8331529459544167 0.5755090467540153 0.2836479574078018 -0.023761106975339723
Ni 7.445997571168706 3.9953366892043687 12.495914607823083 1.3904626169257408 -0.698143468458501 -0.010006219283092444
Ni 7.908151666196297 8.653059333411257 6.760101190289446 -0.40588000146754616 1.0794285541955022 0.47848718341131136
Ni 6.701062815088811 0.7854479595139207 0.3102614115662933 0.9020270640524658 -0.738493075920141 0.03650323713235649
Ni 1.7832960971313934 6.57232749929794 9.264382778012054 0.07095576238327135 0.12338312694505203 -0.12126916592584278
Ni 0.05095415494198534 4.8811696614307705 1.4193463611890489 -0.013523488407731548 -0.8074904290254609 -0.06424981111800547
Ni 6.381946956537561 1.8611675541967276 7.0699318889032785 0.5370777393610106 0.3072666252680063 -0.4595790336528988
Ni 3.3609245020576477 4.206846546613737 0.39874718887516897 0.34140547593324433 0.1539082921171027 -0.2153229477791582
Ni 6.111870973139585 5.337373235794394 4.742661586133661 -0.695872413036137 1.5625596641367283 -0.1325462815015588
Ni 5.087785463908622 2.8337481015653685 9.378487397851746 0.4214189776434097 0.38785708252756423 -0.04475802094198098
P 0.20225901003420177 5.566554062762768 12.315255355725569 0.0017612056654808378 -0.5119866007203376 0.44124012613439495
P 4.073876338271424 6.063995919178499 12.642371459054171 -0.6599715853744698 0.05446856336152556 -0.11239731735750966
P 2.408994699390818 8.417259793777196 1.3423254944826613 -0.9420593973840032 -0.23110206499028588 0.7300855685827362
P 6.043814714802221 7.752589344498526 5.709381909054782 1.5292587359917533 -1.0768744203150808 0.2385793472039375
P 4.677271775068026 1.0335666119580738 12.65702834090812 -0.25207301081499817 0.539827791302322 -0.2735563774997547
P 4.049225471180936 6.15978214558725 8.217601314776717 -0.1579300116819861 0.9644207957983391 -0.2244339089414909
P 4.550757746201793 1.078200031748652 3.749140443208408 0.6832881486132232 -1.8569458338976408 1.160518319688982
P 0.3195447655793813 5.457006692967239 3.588423110513582 -0.4439379846815323 0.8048936148325623 -0.12001112514902558
Ni 1.4103546639550901 0.9857005876186329 2.6072851907121004 0.9064922989126711 -0.04211389845091457 -0.725860474757795
Ni 1.9446554359251693 6.53932423218595 4.761124453510921 -0.8692331574508965 -0.24782786238539897 -0.24743808314614807
Ni 6.090696510382371 5.701285047325831 9.075608604942296 -0.20666347233194732 0.009454974765312749 1.2453685806661585
Ni 8.387633605160387 2.31775940229108 10.103570530745401 0.8109475343361259 0.8778327261944495 -0.2976113615664294
Ni 2.3606771939691336 5.5329638702438615 6.972967296869873 -1.0171978303900544 -1.6762412475233002 0.5318745978935162
Ni 0.5229640819949485 0.0871367518351325 9.191867692506456 0.417954673243893 -0.28290619414577084 -0.07536160476045085
Ni 1.4249465325331956 1.1302467709096664 11.419648721030761 0.23677186168155356 0.2838554454329176 -0.7827296771410133
Ni 4.168371328784958 6.784189511951459 1.5978655929567307 0.17954244774543918 0.5992637259714517 -0.44026696358784817
Ni 5.703163208627963 7.736056107266774 7.925361222089249 -0.7172161688192358 1.3107867010606522 0.372212691122088
Ni 5.309381408695305 2.7144848588799633 4.985250498282497 0.21720808061701302 -0.26808224175906087 -0.12779076909444442
Ni 0.837693350351122 7.4996244941175725 7.047358737753275 0.2183159689692111 -0.3991313698898029 -0.007623063762896549
Ni 5.242047520089532 4.74967128141657 7.025963049265762 -0.6164340671031512 -0.7211291307203967 -0.18754757743810282
Ni 8.18393437047383 7.178169963560302 9.092022651168335 0.3428455508138805 0.03582575144935765 -0.10575152990621788
Ni 4.7206681366932575 0.5073708283764273 10.526805150559285 -0.625926837084935 -1.2765666035355177 -0.856537307150783
Ni 7.999441141025904 7.288710591736765 4.634940005834725 0.2606751506617124 -0.703044248194228 -0.05440222889996437
Ni 7.274019397320567 6.239739445252549 6.9482405809575685 0.40137131496391526 -0.8769973747773476 -0.782555356346678
Ni 2.4067463236012463 5.162162457397391 2.6593815927921614 -0.6069456679967419 -0.13209093913169506 -0.24979064253872463
Ni 2.270715073521322 5.295051399144901 11.428701819691906 -0.21452179203410152 -0.584734164896709 -0.0803207485379391
Ni 1.074868101361696 3.1982197496387865 3.8159063686127204 -0.033035333188414076 1.019901859584779 -0.3782146743417938
Ni 3.5869269022070274 2.5308855619748796 2.6488485391434238 -0.6600829141413534 0.8567751341932018 -0.7977354065212261
Ni 1.1059751479282633 3.420167849669621 7.98524206098935 -0.11667820412105066 0.3196752833450043 0.2215478456429475
Ni 3.73664705870057 2.813864874703371 7.127724176316923 -0.2507764034907617 -0.23247683385062545 0.0864713415203672
Ni 3.9487348118952097 6.867821867626218 5.959186391860032 1.7345440970292514 0.7228443136392906 -0.21816864475806944
Ni 0.8784629950398617 7.480490725852099 11.517379927941816 0.0720605654116759 0.09962613373477036 -0.18572055153169303
P 0.08880903776376191 5.499391736968246 7.946572706295206 1.1642399915149433 0.8705161379283783 -0.10743765935938916
P 8.537389880140509 1.5592711841222393 7.80755626329949 -0.9499765953485511 -0.07045131194302705 1.3131806552141256
P 1.6887378992663444 3.2074570525814856 10.22629211852079 0.07494585737927094 0.11555900291494291 0.1333086135888801
P 4.088964836039996 6.114625007741269 3.7142111577995682 -0.0749491998133806 0.9779537972877672 0.44335588692581707
P 6.829301501689215 4.04962277453331 10.266758367922263 -0.029437588534826725 -0.4660350736908877 1.0659351476947578
P 6.4944741014758955 7.785312693339524 10.28321214448354 -1.3908917340433595 1.4910796538188706 -0.9158559995157581
P 2.3795942513151305 8.537236376572547 5.869068058957764 0.9413572291106562 -0.062114252832241416 0.22969181490632057
P 6.9682132010738504 3.892064906452023 1.7259128515782627 -0.5402687354944825 0.04425896981837539 -0.7914534301672562
Ni 5.31148531053856 2.8630763126678973 0.5500854535674714 0.2200481211689694 0.31955521282737226 0.027335197479843247
Ni 1.4600085533802147 1.0885570077753146 7.155239239393162 0.7782089064525243 -0.3250920834852014 -1.6004039886780115
Ni 6.949404499187592 0.6215169844756865 9.154731567567609 -0.9371802149148311 -0.21013806114410905 -0.2784165338055334
Ni 2.5875554674180656 1.4681623017255296 9.161207612211308 1.0271472282932828 0.43369522390760146 0.7235094580271153
Ni 6.248985777816892 1.6823449271417787 2.633624597050178 0.5467610280870454 1.2166658134148272 -0.41281041003879226
Ni 4.165174842722675 6.715293498801122 10.456444532778152 -0.0012246164357204716 1.2404644584963216 -0.20067408751773183
Ni 8.38843724148678 7.101987045742558 0.470829755503979 -1.0345826015254054 0.009407666467145089 -0.2311321468972729
Ni 7.518857588221139 3.8609398006421665 8.20564158090809 0.6492883946290108 -0.4385762061489866 -0.8025356561233469
Ni 3.1826436523013903 8.347271196407831 12.528795072080703 -0.3226783318373862 -0.004053344133767213 -0.5306078153659507
Ni 0.1055644036879774 4.83092884659873 10.061147562333487 -0.46406689422092334 -0.396388259927027 0.6393963323262796
Ni 8.808657773595607 2.472183991661598 5.848609645196989 -0.34594398723354614 -0.18652710659338842 -0.3107864654958067
Ni 3.411445235160679 2.632658427534177 11.42362717232749 0.5081708265186732 0.2605411961870094 0.0895990885160715
Ni 1.1207295496959764 3.330657210304053 12.630001780362868 -0.7132497279723199 1.004726437395921 -0.30483796122185564
Ni 3.2089198512879538 8.306069032842302 8.142668096594623 0.08453967171529311 -0.03704136902401362 -0.32882455394444016
Ni 5.6573830268884855 7.81081234486463 3.4506355990237316 -0.7408456353127176 0.04634130626870084 0.16933079731976
Ni 3.070667314283393 8.327749154411629 3.579238179376423 0.6604495534521528 0.15558156605446752 -0.02011271158947504
Ni 3.4295044784504136 4.601729960387067 9.47172456207015 -0.33455991376632055 -1.496172752071062 -0.5564319755179062
Ni 7.219272801287738 6.252751130042801 11.407490335485948 1.2532009322263837 -1.7544102398255592 0.49137560933820534
Ni 0.5752401735457423 9.108359945610394 0.2186044311357403 -0.056403318490393185 0.20374192780977818 0.515984409025821
Ni 4.409696996865677 0.387087238445152 1.5705085482592767 0.23258996238972202 -0.886929289179079 -0.21599426281456993
Ni 6.101947418951875 5.590356145418637 0.3866059596114806 -0.6169166631665246 0.42879727238535187 0.42115518245906175
Ni 8.220179271756326 9.096892326121413 11.160184348989834 -1.3071843284213747 -0.5859428404928295 0.9052779668895957
Ni 0.041235573165614825 4.980793477038591 5.698756753265267 0.08245733526496767 -0.36606081258807927 0.2379913359109514
Ni 7.887645395440804 8.952833742399202 2.335806907072676 0.701195110800631 -0.9438224028216972 0.19773891614880784
P 8.554735783320298 1.4989713707778163 3.684938027389074 -0.5019351300216065 0.4242574755334694 0.08319961274763091
P 1.8293020194119913 3.2812561502849844 1.6210988094489738 -1.2595014205231148 -0.4843541837150497 -0.08113758801227963
P 4.686942499849679 1.0692426470769438 8.22936329993132 -0.059385026826536444 -0.6917015694878991 0.027558883454875116
P 8.50602097454624 1.894532006174512 12.325721590174133 -1.063813987586697 -0.8876656531244712 1.128990681394346
P 6.335345079228401 7.748462807406821 1.3157729890737648 0.20377432370961035 -0.38712123280280425 -0.5006536922060216
P 2.041055676605771 3.5123693162853598 5.897706406966626 -1.3576244873497973 -0.44855260063540814 0.5527640397480158
P 6.969892710699796 3.87152251720995 5.993798737549137 0.29200815644703904 -0.4274893522072057 0.2976309019504551
P 2.5064062576956445 8.462705879515813 10.320322083519615 -0.395352619573661 0.2204353293050591 -0.33684202493227794
