# total energy = -340873.9219586143 ev
CRYSTAL
PRIMVEC
9.22439473681436 0.00000000000000 0.00000000000000
0.00000000000000 9.22439473681436 0.00000000000000
0.00000000000000 0.00000000000000 13.50083411343727
PRIMCOORD
 96 1
Ni 1.1552263123815434 2.1782670466830822 9.189315390448336 -0.3891619173819169 -0.02730537268317233 -0.6344263899155138
Ni 7.046635136624629 4.699165015362236 0.7740936887561533 0.6383267534111845 0.4493738109851229 -0.23154043807928512
Ni 1.4032795140667786 0.4600030443999653 4.321792255074278 -0.9864422943747526 1.105011030650297 2.3521140775090585
Ni 0.9513118400133236 5.820196496066 1.2317085373316305 -0.498564927997793 -0.3065508301479043 0.10744562977918913
Ni 1.3258499437664601 4.783715818480263 6.625440043762723 0.8653109395783549 -0.3052922751504549 -0.6902476106501919
Ni 7.308358891465104 7.914263266635036 8.91939391591214 0.7534502114506056 0.0443975522787687 -0.03774610840052209
Ni 3.246212135073488 0.5608026190314556 13.148745742960378 -0.2829830701302933 0.6803830591512863 -0.18832045104838535
Ni 1.684761922657941 7.971242353571546 0.6145753063210286 0.6537371744289837 -0.906315921235807 -0.7404291166005893
Ni 1.281037833626009 1.511278728872131 6.805311130976336 0.743301553052378 1.0215982734505955 -0.5338034394851129
Ni 8.460162953360417 7.917731639095474 0.7388371292321068 0.2798877190344212 -0.18328186018321338 -0.009008888366829648
Ni 6.480755410672363 4.436860123646742 6.351143438753161 0.8113406560094866 0.9746440161882441 -0.9120499955061067
Ni 7.811678771601698 6.321007340805682 6.703865848705934 -0.14584865503741978 0.4683848048699869 0.9263941800429206
Ni 0.5144943120476984 7.064899438410981 5.793194847485694 1.0237261184268756 0.8306000184597307 -0.15114795576314613
Ni 1.9932994813194909 9.08178569734042 8.314191517189654 -0.41448008443173134 -0.5299863797318679 -1.2611101597711312
Ni 1.3866294813777063 1.8784557655416776 11.612094393636967 1.6496066756549075 -0.45296152833638115 0.5569138002503312
Ni 0.6183296350215564 2.939187377165959 4.57177427772089 0.4775569582875582 0.2819219758556306 -0.2917754716109427
Ni 3.8004137771563 0.6160862621960813 4.181491976852126 0.7262312278336525 -1.2207890915545814 0.4180333490006285
Ni 5.981319000764078 0.7922814280653191 9.660994673838788 0.236117001706374 0.7087891210978051 0.4387636395694444
Ni 5.072116523202619 6.629019108961261 0.9349911182200958 -0.027254464840578866 -0.431674851043463 -0.1921789055625271
Ni 2.7620974449970865 3.6776832037889267 10.483343939329758 0.28373203248117584 -0.11352757430721093 0.1150031304114729
Ni 8.908911313614155 4.601921444942179 8.41060120231603 -0.8180982864482943 0.08375214281699124 -0.16613157365617195
Ni 5.707954059633516 5.189469274377345 3.0736135607529866 0.13561155069044387 1.2357014898900396 0.36879492368979067
Ni 8.254006953045689 1.499222444814171 5.8680028447720325 -1.3568667832481665 0.7580041493698753 0.14163744516954963
Ni 0.652687738488032 5.377453216854137 3.79012949934741 1.485860057291144 -0.12036388050275403 0.8978508211875892
P 2.564160380486218 4.251689621596636 4.593672068635344 -0.1423198159485549 -0.22674918733822885 0.9094105010007306
P 7.043729452249528 2.6248937961232555 3.520652640642579 -0.5829835007541895 -1.8882492719966129 -0.615993637131623
P 6.431626283746046 6.36029403843602 4.979985112403772 -1.0301266226365808 0.6484934095315412 0.16222863905733997
P 0.9157268920329162 2.0536823699525484 2.3979367854407405 1.8762170234224267 -1.065555652868152 0.7701940065678478
P 8.256617456785861 1.5073214634850882 8.517352356499314 0.024758695001918653 -0.8391821037017869 0.5661175782367862
P 7.417197526201041 4.350934885697319 11.798216853234726 -0.15163800802568725 0.3015294656739129 0.21042576758785694
P 2.5316720618541324 3.5003257641696486 8.088484412008173 -0.033987412689038245 0.03661765122303371 0.5634968527844877
P 8.464996536257411 9.163836689456376 4.48767731482907 -0.21786654013661833 -1.6045385796716753 -0.7840471104008562
Ni 3.266478130540464 0.9402517905982554 9.931847812253986 -0.013996057168775895 0.22174942013079227 0.9406218936065284
Ni 3.3201087621494767 2.3924482705099934 5.810948117797821 -1.7974332803543043 -0.2572692103039569 -2.1782059452312614
Ni 3.3561669215852574 5.196230755796232 13.461762667757005 -0.6230153198650947 -0.1198763993433742 -0.07452959577745874
Ni 6.405179943735204 8.644374118346997 5.2967286927164015 3.065831746256733 -0.4124972496737477 -1.5284706928728193
Ni 7.888130556048807 6.393464962286383 12.630543224186361 0.5796924887077435 -1.1616305789165542 -0.20283844215890226
Ni 1.390512951606016 6.192179442448015 11.897448280743145 -0.33631134923978856 -0.040003794086447234 0.7696561317865067
Ni 5.17118652380131 -0.050420542204138726 11.690588459102004 -0.3644633861939723 0.9860147199190309 0.10239186940536558
Ni 3.177610310636572 4.972151756304292 2.672125465030656 0.15130916393135876 1.2796958931931186 -0.6413089759679601
Ni 4.675218486353464 3.049584934630125 9.028129237425851 -0.5099230333230895 -0.888213040987509 2.5500584248004534
Ni 3.3511304020017487 2.666274431382635 3.1953774175409615 -1.047598554169099 -1.0711812265850456 -0.6487500056270374
Ni 4.546445934364848 8.277141735308401 6.281397789355888 -1.6906093433195144 -1.3577443007571133 0.19578462063591442
Ni 0.36545853191055816 8.930164319329183 9.803252368646326 -0.48653936429182654 -0.9449230920850435 0.41131531355050455
Ni 7.508786542583202 8.385085603744704 11.1927312655906 -0.3982211993707077 0.8279121872149225 0.21133388122442315
Ni 5.217428415142209 3.2475496723255186 4.458974687839974 0.5159242452118469 -0.27873457926658446 1.0461577079575144
Ni 0.899176482808133 1.369518228946554 0.31561174706556644 -0.23478105650376987 -1.8304462449452155 1.0159138214713084
Ni 3.894493380145691 0.9898513616614926 7.573279821557672 0.6441888686189164 0.36739521512878665 0.5104385395069274
Ni 4.729144298597408 7.494673218475566 3.68004372642889 0.6880889124359763 0.15431504063721813 -0.25058331364334907
Ni 3.3245087984889157 7.740890765587325 9.503912454081329 0.6092882000869894 -0.14478473254927968 1.1383135014571688
Ni 6.045170261857574 0.47779321229145855 3.2816743986025014 0.043047980229409734 0.8988723204735681 -1.2770957365661102
Ni 2.44001847470808 7.479702025647664 4.387190447182709 0.4816216152752351 -0.6386612539324679 -0.2174821602140061
Ni 8.544621512530027 1.469104795656375 10.858396764315057 -1.4356304717116306 -0.5238108470487752 0.09976343064358302
Ni 2.1208267400044924 0.13761874664170246 2.281236198981315 1.297187622219979 0.9309625161398934 -0.9683962355063194
Ni 2.396783736085541 3.1297818233829204 0.9728683283186386 -1.3745989104206067 0.08380973552780405 0.4011676835935414
Ni 7.5365335222667085 4.538780462251486 4.317513058307265 2.07975737674436 -0.16434928494476855 0.4792271469011295
P 3.28146777215805 5.911730166079112 10.916207891666277 0.5656164702306518 -0.6792497168777915 -0.4171190647164752
P 8.727310652367745 3.56282103922143 6.375107494112131 -0.7895713826531952 0.9910224575462674 0.18932138150907393
P 7.836446271751371 0.6832287873690569 13.3067328758518 0.17254390494041896 0.10643544334711992 -0.2600493441522554
P 3.2079493452705665 7.092415808223448 2.109626479787832 -0.9108199797537475 0.6886635539925237 -0.4814264685452935
P 6.218662680038225 4.660763859636691 8.4676291785452 0.7974867808455298 -0.6226733631446437 0.4397632844785523
P 6.118799381483156 7.478761137373822 12.606822692851209 -1.508725649035408 -0.3545391851017249 0.5142833671743142
P 0.0007591676954629741 7.1368128205960275 8.373716537102442 1.3168994988266094 -2.018851028177291 0.11948276344938133
P 5.444782074802912 1.492940631927047 5.911488486934263 -1.0346093409982828 -0.01960543293575333 -0.9977829161985526
Ni 6.456679740135809 2.5384796652472272 7.616779300312165 1.3213469930750017 -0.20236304518438053 -0.13222875026114
Ni 5.577585687337304 7.054374403896725 10.381088755192264 -0.017997722129001262 0.025984596989219764 1.0932855146832525
Ni 2.7976205895320554 6.737830070512674 7.261640098910895 -0.07692509259282881 0.3787605195429348 -0.7825070196072459
Ni 4.331443739397035 2.8902058405571083 13.335205815409338 0.9355179967210597 -0.8452563349203249 -0.6854581596813485
Ni 6.4029384157886975 2.2716455956645123 1.2253658434385524 -0.0551542765746405 -0.1407370448424673 0.46234528354412635
Ni 9.041714926148547 8.954258438655419 7.229196979813533 -1.048654249127123 -0.33084029882288823 0.48375460245783786
Ni 4.388109196908932 5.638402122527917 8.922877047404326 -0.41041414189247377 -0.5302591737772804 -0.6276613032775383
Ni 8.540765715486241 3.355272155285623 2.2281239783623996 0.05193731229923958 1.069820341681777 -0.4957873652526558
Ni 4.440632901136953 3.8176541711152345 6.975489224090404 -1.1148177323280737 1.628225895986286 0.026852601416469883
Ni 8.722200337625504 6.192945067219869 10.429300054831844 -0.2659592818787871 0.2968215186752824 -1.021729399711821
Ni 0.33874099469137275 7.784411460449954 3.1566709343461596 -0.5949463295430205 -0.6262104297636247 -0.2418140520911513
Ni 5.017950876692794 4.658974327037423 11.360520240440698 0.5337746431297065 -0.827209247610627 0.12263776413859524
Ni 6.789744964681151 7.492994378614397 2.203376771881378 0.7659717409563841 -0.640059162721259 1.8122397492395177
Ni 6.4522797037963695 2.195156913638036 12.097152739305661 -0.4810024936339974 -0.40885553915610234 -0.2287685317611028
Ni 0.3253444060629296 8.537371138184538 12.276295099326788 -1.3021624497267508 0.27198054837220254 0.030601012715308587
Ni 3.614911196891897 7.422381636102015 12.419349781848641 0.24079486679801754 0.13345568068970565 -0.10073119387349104
Ni 4.340133119337814 5.4926659084256135 5.1760440901248925 -0.5318645705911872 0.46513621602570215 0.15561319062335138
Ni 6.311303277432328 0.2721556229668292 7.4264846469275545 0.8326471307967467 -0.9100699889616004 0.7004752019154711
Ni 8.469147513936127 2.7961446863574 13.076637726044174 0.858896808521895 1.7340283337350977 0.3157067856155595
Ni 1.8062933246959079 5.6164480628049285 9.205030991939957 -0.5738830811148181 0.14320427543603725 -0.1299371260134859
Ni 5.800493188684361 9.063152419760407 0.6873437899078909 0.7956049904417846 0.18330988520767139 -0.3819232335416326
Ni 8.255824158829483 0.4385738527434642 2.1873106433857785 0.26896001637832395 1.6456541187650626 0.47178560302141975
Ni 7.242745770956864 3.1584512425505866 9.896988824147611 -0.7846235517296164 0.9825457875338239 -0.7986612607696052
Ni 0.1862488338070883 3.769899479020316 10.816517089294747 0.1791369847769044 1.2193004228241968 0.7771241580287778
P 8.204813255355482 5.714429584812313 2.5794156846752414 -0.429525408800628 1.1321289699130115 -1.6787064212343412
P 1.1640632826397883 4.3647438047751805 13.097956224962575 -0.10532935476713473 -0.862139740939225 -0.5948159746127434
P 4.212476719125031 1.0394693815144127 1.4756956257706921 -0.15688640090882014 1.229973843377643 1.7052900852601405
P 2.118243909448847 8.884614257601404 11.43868960720731 1.7478616400737639 0.1783419996794348 -1.297719583464049
P 5.038207647764929 4.304831360279044 1.3708207134981867 -1.8158940581626535 -0.852666511341467 -1.8984025583805304
P 5.386253289533015 7.583900789778281 8.187135625081057 -1.5831490582523058 -0.11255492598129647 0.16652186711605516
P 2.4718610857012537 8.755657217715955 6.2247489357547074 -1.2156589694168678 0.40981507485589413 -0.6561347281268829
P 4.508478325196858 2.185065425681335 11.141063585203879 -0.005390574887952007 0.7460508336627408 0.3729295146834545
