# total energy = -340856.975758558 ev
CRYSTAL
PRIMVEC
9.39410509350958 0.00000000000000 0.00000000000000
0.00000000000000 9.39410509350958 0.00000000000000
0.00000000000000 0.00000000000000 13.74922237504243
PRIMCOORD
 96 1
Ni 0.4874319337817769 1.105451323217195 8.519884085895974 -0.34568327737299176 -0.9915875860211182 -0.16065409548136847
Ni 9.320896885960172 8.281354604456952 7.325489375143446 -0.7985193358751022 -0.889428915672481 0.563467799318765
Ni -0.2797846336042296 1.0118578536339113 12.187049639350052 2.5940510283313194 1.508851118869679 -0.1459044479760197
Ni 5.096208101398735 4.390983233880247 11.583816571416602 1.1648447149784777 3.0926732919296094 1.7823097944493047
Ni 5.2605110004263 7.135630752472966 3.531391612348571 0.7459695868028443 -0.8054242905250517 0.529938557213068
Ni 4.29557670200352 4.647094722513095 3.2189540086625854 0.3663014678439756 1.4301349958146983 0.7405173054390215
Ni 3.5793231550420157 2.5406545253175 3.746016853829588 0.23773525403608736 0.532346138213296 0.6737192739778655
Ni 1.9666747008129697 0.5000754598996271 13.551769809940128 0.3469122646840864 0.47461355938851807 -0.3891490618661104
Ni 2.0649652229699402 4.260827907063385 10.33849453783913 0.547469881228612 0.15686763185574276 -1.0391373107756234
Ni 7.127298181207245 8.066774454680642 2.400806360809578 1.7184729024990018 -1.4738890009721972 1.4049448697023157
Ni 1.4463540049102375 1.6975523765510092 3.3640638114635517 -0.3934106653559418 -0.3802530449280613 -0.28261128861317136
Ni 2.897301727237541 5.98189372879827 5.82582100529032 0.01744184962553125 -0.48068881904832056 -0.9856231409075671
Ni 1.1259022901230273 6.320316366732406 8.032708611184722 0.8929433565836428 0.31922071230608895 0.9333916944066764
Ni 6.596972763322561 3.232408246054654 9.487458127865168 2.046516612413359 -1.7954463318312626 0.516892008441755
Ni -0.12724785127374985 4.211837648719832 8.242933653814708 -0.15840155200176592 -0.49621288282584863 0.17104289491486027
Ni 1.37366241927986 3.9249416775190396 12.928930305153592 0.15664111766723346 3.6997981658166927 1.6323651149656404
Ni 0.755161112250382 5.112196868359565 6.112065965004398 -2.6184664810612066 -0.06929174441728712 1.0913250485227721
Ni 9.33507259062756 5.827830404381342 12.919195193989369 -0.966424456491929 1.720966872565449 -1.935343397270938
Ni 1.602465244249293 6.259696206216404 0.5691089809856171 1.5713168415040681 0.35938108657505846 0.24439981054045648
Ni 5.8842232175810265 7.469713313829015 8.337350047008902 -0.5005734737873895 -0.1630786457624611 0.5944660474724923
Ni 0.5074639235980365 2.1473327369021127 0.8520876103399537 -0.4405598122379187 0.24779726625777967 -0.8607413179298016
Ni 8.414234221766552 6.7245165289084525 5.696371175770024 0.6747253466448767 1.9971254635747413 0.6420425116998749
Ni 0.255868181309531 4.691791874804299 1.7206327534875914 1.3803304135877452 -0.24501610396821677 -0.26714044667108183
Ni 4.2486061762666525 0.4407808076199193 3.3176869931719972 -1.9866708439003204 -0.9434940729480008 -1.4018451477310696
P 0.35148232291001485 8.516526632716303 13.00823534080772 0.5140411692565212 -2.570636506062121 -1.3481196331831558
P 7.809047179962446 2.2247119810010294 10.999859267835044 0.8812201546094436 -0.2721445847538926 -0.06333321284100706
P 5.357533318388375 1.5369319667412145 8.97069404017123 -0.3800771814718293 -1.0033552680800073 0.23818879663373818
P 4.038450650014756 9.301920793562479 11.119147493817424 0.3366869874116524 -0.5981735782310666 0.8644262229805563
P 3.516025674559012 0.9555683755908484 5.32310768066531 -0.8426515503076262 -0.32762127766495835 0.9144948575021734
P 5.850855356097555 3.006921540202244 13.57724756251032 -2.8983470010067762 0.6450635579143857 0.22625373575904903
P 5.846111332998132 6.916607190961949 6.07297615407566 0.14761217469574578 0.46239644849703593 -0.04759420483919545
P 5.163676564567173 3.5299101619668303 5.041729806828085 1.250318725582582 -0.31216303412835916 -1.9024055088923364
Ni 2.2477275386120947 2.4789164662889602 8.556415881993082 1.9252803566079808 0.33267606648004644 -1.9995093904258854
Ni 4.103993321627982 4.478094770911843 0.8269151661870514 0.8459106806748723 0.4636758294300918 -0.9487594351119983
Ni 1.8294456128201353 8.265018255605668 1.8059744411094223 -1.4644772207399939 1.6699273894901303 0.1735695179914559
Ni 3.8255238627443844 6.539988121498592 7.782472195911041 -0.47765311754579026 -0.6323162855510465 1.2456611722059128
Ni 5.117917878394315 4.8899699169932935 6.5521647605906175 0.6733019839347888 0.9715160120822236 1.1755788135665302
Ni 3.9145424031208975 9.066673612461948 8.904092652907895 0.7038004096339621 0.10824498575203294 -0.24945074270080267
Ni 3.628839483273822 8.274628425171432 6.256515362213504 -1.7603263481996778 0.11913309341944645 -1.072152075138747
Ni 7.452935442035806 1.760173481463402 13.610149476378481 0.5565307058792996 -0.17296582296918597 0.44281107016594057
Ni 7.79190293806849 8.646691353638314 11.756272614301572 0.8494395197637371 -1.5118189432487512 1.6685503066369458
Ni 7.170980770142534 5.602108845900248 4.413390053477762 -2.2175507655774713 -1.5635459393093976 -0.31605337032170083
Ni 5.502249508183667 -0.23023354718337777 6.863254310187955 2.2879480843541113 0.5159101041444599 0.08474047487218955
Ni 7.103098966347611 6.074021717978564 11.716839918534955 -0.07982863939286897 0.05066795866851274 -0.5396118186367739
Ni 3.7174258948135557 7.19409966291022 1.3911467277801521 1.3903821413967925 -1.150913449609366 0.06180469201162259
Ni 1.6415447216623675 8.818124378472735 4.204223726497885 -0.42457732076673327 1.3722471223589787 -1.3529435369343603
Ni 6.153805852995208 3.562836500508375 2.253965224429951 -1.3312855923449525 0.24820118656441773 -1.6170536814195506
Ni -0.061220443834919376 7.137810184867156 2.8469004743008517 0.4156509648113809 0.006728319862769058 0.6062095611616657
Ni 7.336767937783383 5.705162179366937 7.510980678330913 0.360241891913457 -0.3896553120785677 -1.8570327371844921
Ni 2.5021480883184153 2.988706370321487 1.6465517797059175 0.16710165087892512 0.026047074796039012 -0.1460653990339162
Ni 0.3030218920967731 8.46464298998736 10.301426338338109 0.7493729560574385 -0.022442902384548446 -0.4069259262335573
Ni 1.8103473970555246 4.264519790386303 4.473749057870668 0.5906818978397117 -1.5597692458757848 -3.189312575121914
Ni 5.869089314188607 8.83967445568081 0.675088578205713 -1.5726769550763882 0.9789670690436301 -1.4766966456243213
Ni 8.28344009579967 2.8276726198852074 2.3727311381661367 1.4634120127002732 0.7726581518376241 0.378792915442767
Ni 2.2540497713762773 1.005319556451339 10.349534490208324 0.6009971637227908 -1.624616067147841 0.7509914654974679
Ni 2.01982654773681 7.667928932438599 11.798510389865193 0.8246905949538312 -0.4726973162024117 0.6440250893475424
P 1.1222855596412886 2.8978559794412355 6.3839698838004955 -0.010054041801892361 -0.1914065461728768 1.0079341456999416
P 1.0538307154323767 7.187505001096763 5.27732269099804 0.31940197507895957 -0.4409881580245889 0.9322678652148783
P 3.0054090892735172 5.509201145992723 11.60402704923066 1.2600202691410622 1.623949380098119 1.8710236521469454
P 8.755709943873583 4.018854546677335 13.648302695024025 -1.7796379040440962 -1.9776215892138587 0.3553282566619235
P 5.994472435590604 9.131596273135447 3.9387669820644295 2.390175917377787 0.19111164064027733 0.8461281960023169
P 2.018041667758809 2.3785874233150097 12.065753893097678 1.87329599312089 -4.479185923068666 -1.7981099947063548
P 0.3976327432675174 5.954491124083382 10.087735810319256 0.0578837596906616 0.9123395017220675 -0.04757723555833096
P 9.044888682625187 4.796893123193115 3.719191986581262 -0.2580539109887814 -0.41279986851583106 1.383065038910089
Ni 5.192788896418883 2.038633546241852 6.90476310319214 0.2713578271865391 0.06515998163710068 -0.3495970106051012
Ni 7.455471850425597 0.2957517941232206 9.734311725875278 -0.08117718300096342 0.8700973052234047 -1.4953983357988827
Ni 5.823274263384866 7.9666238997044925 11.17087237616938 -1.8442044750715723 -0.0881063060206289 -0.7803814886238107
Ni 7.2282754174363655 3.2178567771813724 6.642071043903558 0.5199865882066788 -0.05385998324324917 -0.16866770981446436
Ni 1.3833477416868025 0.24846468704288582 6.300801052699253 1.2554480763893476 1.748993182575046 0.22182912432879215
Ni 7.87960630372437 7.23702132932857 9.478851248729145 0.597884329125422 0.3798110722946362 0.5519258601174366
Ni 3.390360730002594 3.25388317042155 6.211101439699555 -2.413178291810231 -0.00921791905384219 0.31086462703190976
Ni 4.346492751902286 1.4206141568064337 12.924076371023945 -1.2986305253140924 -0.06961673185687366 0.9322035876358462
Ni 7.621672358692932 9.499882771333084 5.330147623062752 0.46476237762605116 0.44855311485604044 0.6182821760554835
Ni 7.184404946398129 0.8421909205671956 2.180777630047792 -1.4212176387204103 1.813526329261425 0.9344859559121196
Ni 9.063545375447871 2.370621222150037 4.889828066005568 -0.12100099986612063 0.2873632014758599 -0.07325869948483511
Ni 4.383223703028516 2.6753659931308382 10.732244697449238 -1.9819037615289803 -3.4809767179659725 -1.6257046722263293
Ni 6.666517323728567 4.950430377721791 0.06864084749082983 -0.3587601651616079 0.2730915220481942 -1.047267138971609
Ni 7.526810684914753 5.688309154732549 2.086279508138816 -0.05723969834875948 -0.5325592826653667 0.7469792590142813
Ni 4.089160029600279 6.740232866820009 10.104524015628128 -0.22369343123104055 -0.012038676332088943 0.965182613665028
Ni 7.757445360387923 7.3165706117165294 13.956422767984279 -0.08854030823425396 -0.6954155280043766 -1.0738572307553118
Ni 8.598189588762423 4.273679042904992 10.845785609902455 -0.6605788799411655 0.7507371833948168 0.4808158315444881
Ni 0.6254679754067707 2.639283235259776 10.059412583299924 -2.747117541273417 -0.860232753724499 2.5877988767740203
Ni 6.12321864663536 0.9923838736634056 11.54674837191558 -0.2134262449770776 0.18421079975538598 0.03327367445146528
Ni 4.3386486741042285 6.573947811606347 12.936532954449362 0.5822311959691973 -0.18109179451043006 -0.5253270265829856
Ni 4.823854204966078 4.422293786336444 9.037336761497214 -1.3612955084434812 1.618522038434961 -0.4122553088662706
Ni 8.778866413061861 -0.1306804572946002 0.8972525890674968 0.7779101442651829 0.6739830691622135 1.2850779834406383
Ni 3.0797634315149796 7.154625633080955 3.7016203129030996 -1.4160008704061613 -1.2455470152255517 0.139962628570288
Ni 6.781275712208884 2.5001095675014353 4.136164374115678 -0.4281493543887078 -0.9798798106658867 1.611421422834438
P 5.802447532273139 6.726714749512938 1.2825480540449685 -0.21276290036146583 -0.7714121952456651 -0.7767678031306235
P 3.6106618898136538 -0.028500775606616936 1.240255792671492 0.49124191197381856 0.8349138153437362 -1.1266504632969436
P 2.8402231443620987 4.40953659154631 8.126395082408964 0.5370098622375525 2.6490358692076312 -0.6150608409047084
P 1.7897743067827763 8.81610464586605 8.631294415301769 0.09969606774075733 -0.9506787636218981 -0.5411022871393714
P 8.129752535588636 0.6405661811996296 7.645502385220275 -2.713451002258908 0.03541128961975837 -2.0486076906144333
P 2.38302144094457 5.060050190686494 2.314310137665135 0.5635102225209263 0.7345302346176511 -0.26326630842765625
P 8.957335622651666 0.5757412192196629 3.464927379020388 0.294111575943287 -0.16014758815859517 -0.038229475794843835
P 7.069562010971487 5.2847102152859335 9.465693865059732 -1.0039872452370517 0.13225368996180448 1.9954832999856278
