# total energy = -340894.6711261677 ev
CRYSTAL
PRIMVEC
9.05340460565315 0.00000000000000 0.00000000000000
0.00000000000000 9.05340460565315 0.00000000000000
0.00000000000000 0.00000000000000 13.25057277253802
PRIMCOORD
 96 1
Ni 6.445227273181096 2.0553763068690483 11.39856665954566 0.23929874186846528 0.25905458433915385 0.4969790715679119
Ni 4.511818431145195 0.41154060636285533 5.964347547429093 -0.4626931538018483 0.06254594105302132 -0.10750399382095034
Ni 2.4975445805070327 1.568384627768704 4.615201067310774 0.5676900649302288 0.5934561181507393 0.9623546572979297
Ni 3.2464150369057454 4.399583376102401 4.619017077289038 -0.49990113031071326 -0.17816742177478348 1.085720300741485
Ni 5.014445339741297 4.870143126114847 2.5297728896900074 -0.6112175558992183 -0.6867660798594947 -0.18514770974735856
Ni 7.20254455593739 6.127670058477452 2.667763975070081 0.3133395709349636 0.44582620284318053 0.036687585229020686
Ni 4.940623879805914 4.350477710332285 11.541050044216872 1.0233713061906182 0.5675859352521967 -0.3779053706314911
Ni 5.533178254864876 7.708457850351071 12.504234501582275 0.3029965371377427 1.2864573802866683 0.5991413414609745
Ni 1.9626875520470646 6.308810574835945 0.395332296365024 -0.03616102330158933 0.4643006074982842 -0.903671027413792
Ni 2.52336489001595 1.5536909523363849 0.433220794013979 0.9320598629691303 0.371722895969863 -0.18550355042488054
Ni 0.33877567872750375 8.95384416733799 4.587917727641744 0.34997136322538436 0.16446318481481353 0.3772399691333503
Ni 8.746819967639388 2.47370696657401 1.5132149916938644 -0.5043576234201701 -0.10943874894981798 -0.5905150332445442
Ni 6.74384476576249 0.9206769127629235 4.93377135797306 0.13218118485265626 -0.9381973433254358 -0.2372724554670559
Ni 1.000808595604238 7.351219563916157 2.413021996504489 -1.2911306173926216 -0.027088628686675928 0.4885399396616231
Ni 7.563612432457252 3.9873728178097907 3.937314733890889 0.2339498188517261 -0.32349182887761707 -0.2866090969186548
Ni 7.548131110837249 3.803815042461508 12.835087546070207 0.8741437073786364 -0.12462882642669502 -0.6544861367798663
Ni 8.055329988683702 8.609724263960025 7.170838628191534 -1.2309788876033896 0.8021355924714508 -0.7803367514288044
Ni 6.8204999412926455 0.8679453585081233 0.5071164918659028 0.3738594826968916 -1.0058672358685838 -0.9906673881996939
Ni 2.0234902163745154 6.374257635649396 9.209810166186053 -0.11646274567613492 0.40323150810110553 -0.27159539711864195
Ni 9.013306927805932 4.9619808609179525 1.322675230829005 0.26640562538758633 -0.23047137338482243 0.583858190049659
Ni 6.090542046802813 2.252115839105474 6.887369291946157 0.5677353163458674 -0.1531963536517426 0.672996536879228
Ni 3.459441643758771 4.182193028301514 0.3550727120890053 -0.5864850861495448 1.0139132461015121 0.09738695999160646
Ni 5.8159794498613895 5.677842604669571 4.783694882984482 1.1485117821464093 -0.048011237771956025 0.257449187525247
Ni 5.4303315802431005 2.8520849524140166 9.37576088054803 -0.8352069211041229 -0.08049404089100977 -0.7537443456522567
P 0.05130835907429461 5.473190396938477 12.413228774648687 0.6886753810670656 0.3524825596830123 0.16399318715693048
P 3.9961546201322484 6.147659975516614 12.486094195073502 -0.30161482629886766 -0.9799212054267832 2.4592951407729515
P 2.387120206355466 8.473524847321823 1.27395342940783 0.29616537314852215 0.5046558713868793 0.3106820787074585
P 6.374284795862766 7.753652445396132 5.587501397623066 0.4105918051209187 0.5679518032320476 1.4226029491037113
P 4.8847643743115166 1.1056108055885399 12.748097909353367 -0.8665363273450237 -1.0646441967974762 -0.1549141076737977
P 4.105619333411464 6.28939102227752 7.997237008309975 -0.607916002329811 -0.2746025593760819 1.0707572516737496
P 4.792093726298445 1.4078224997390223 3.943820510333073 -1.4041380575303044 -1.7003396832334006 -1.0497073729819857
P 0.26594556658006796 5.50380901080915 3.5772173823287248 -0.576498150140162 -0.7441867838708087 -0.5530419759997508
Ni 1.4165861952525678 1.0712712424863926 2.5119901926572528 -0.4375230822941239 -0.12114523875346879 0.23888402292854988
Ni 1.734261104214141 6.547929093331573 4.691921427353014 1.3887985989597567 0.6519062918678321 0.661895284759744
Ni 6.135057636513665 5.6589481495696035 9.001379067434964 -0.5267059092083832 -0.10092685482406488 0.9801654602271055
Ni 8.785713393182974 2.3320755072621218 10.093637006791141 0.53414565331588 0.5641116035503511 0.3524555630998188
Ni 2.4002204826035043 5.159987869778238 6.992790754795259 0.1636975102933826 0.9216677211015287 -0.12591489222797025
Ni 0.7612247321195649 -0.09901889521771831 9.111742783776675 0.32774263373417106 -0.01781388825296932 -0.25017219424785947
Ni 1.4022274957851262 0.9274126456782933 11.223155137527016 -0.4243374368417854 -0.05251323940736763 0.6621505953036597
Ni 3.947782280123081 6.971682742305764 1.7003660632707904 1.1790909404848466 -0.1499372232844966 -0.7269809615154834
Ni 5.732995944616389 7.788960722775087 7.880433605378611 -0.1820392460253639 1.2344079678895967 0.010661593478904219
Ni 5.245506328270958 3.268885586765891 4.710578683256231 0.7889093235891639 0.009566560642512557 0.3243647184008736
Ni 0.7777689234227191 7.2457926690243815 6.876768660668461 1.0154556508879673 0.2229647805951321 -0.016622439048029437
Ni 4.867590066058215 4.54280823459857 7.033496671910966 1.2324217906975032 0.2392385780544912 -0.6466949228702217
Ni 8.37964104311163 7.111539734344249 9.349497859561207 -0.21589193290875078 -0.4078085859488267 -0.21530623560860987
Ni 4.732830140728538 0.4238097800818192 10.615404623088418 -0.04344907232257034 -0.827573315818265 -0.764989836659089
Ni 8.252440710502832 6.910798597338208 4.852545118532998 -0.28210015330470767 0.20643721525375416 -0.13341814258355086
Ni 7.480393538696394 6.151598206455037 7.034808510216661 -0.5594962162655267 -0.7214052671999188 -0.19291964038329357
Ni 2.3093424086727485 5.197441804013299 2.575990519438613 -0.23263984179105096 -0.39057165324524995 -0.4791142754723491
Ni 2.305087308578362 5.109813902282299 11.456047629778155 0.2342166993598676 0.7658002483755264 0.7795834182025477
Ni 0.8504469383752916 3.2827735092016126 3.747739160600609 0.6188465331993858 0.13579178502205 -0.07572695851966958
Ni 3.6158392057386277 2.8610116092077726 2.635035012620681 -0.11894720266088545 -0.5736352267700702 -0.2122679630029183
Ni 1.349808283984063 3.283805597309613 8.186124522861588 -1.491752254405863 0.34382951199370465 0.6203573134169574
Ni 3.6103528426382057 2.6341695071546742 7.297541023555244 0.25878487561753494 0.7483347446009112 -1.0480536394286468
Ni 4.233371923692086 7.035708418619602 5.884950095689172 -1.263565049069527 0.35026601164766774 0.2726323230235886
Ni 0.924144366669626 7.343415529274962 11.535670511289034 -0.3664343938774141 -0.2678112474858613 -0.2915618129382398
P 0.324110068848999 5.478368944287391 7.966005478957621 0.13036752868268517 -0.37048362424612324 1.301262820730617
P 8.611869920816131 1.415726121829234 8.017312027351025 0.38700964692560447 1.2814848667727412 -0.21377025858005763
P 1.9561872076475542 3.345576975913871 10.316829681507969 -0.37073970612098733 -1.2342485594935968 -0.2067660593480826
P 3.971167223833296 6.295438696454223 3.812825895916706 -1.356396014259335 0.6000453413324828 -0.3257808820221099
P 7.031245090222724 4.029054691925869 10.373621687661348 -0.5661234917740572 0.05588601253434246 0.2346401600505314
P 6.458916020718783 7.82476693739913 10.157623753465815 -0.41756823643875185 -0.28384978900596275 0.2657173410713101
P 2.1676023085073868 8.580436500544405 5.720272289993727 1.3857127609455815 -0.5366877030114434 -0.3250010664332919
P 6.837764783590509 4.057898838523139 1.7995470144282735 0.7084772462843412 -0.711254294808846 -1.114256974728597
Ni 5.378654747607442 2.9814399952833766 0.2955438617685336 0.46634489162182263 0.014255738588065772 1.2708785520118049
Ni 1.645311405432544 1.141851583626477 7.00563029299496 -0.89997995171545 0.11701758973834041 0.037716026493535046
Ni 7.0413124759779535 0.8467187464202522 9.435586682534664 -0.9001738128938109 -1.455627483658848 -1.0634722879765621
Ni 2.8194202691362555 1.5602818307804565 9.193498647377423 -0.15892605704666823 -0.36302896774029086 1.5499887694502532
Ni 6.462166192918537 1.9202542453611262 2.535138842511163 -0.4926809584131902 0.7972813497029431 0.7547020815798358
Ni 4.317134021720314 6.824573973297909 10.567013270929893 0.5881668447273418 0.2756698242983317 -2.2392099957184595
Ni 8.08574942765634 7.181748885901631 0.32284530824647595 -0.023606583675346442 -0.8011032945521944 0.2611448912092793
Ni 7.746762804605009 3.762350450052377 8.29819752196462 0.30997785355158225 -0.21837613278318518 -0.9787531532606112
Ni 3.045003947969951 8.681581135128425 12.413176264902843 1.0801507770735075 -0.7997442094211389 0.2004681421545128
Ni 0.26398550451531316 4.806090289587641 10.243898171230624 -1.1378147074438791 0.15203704323631878 -0.40487392880053497
Ni 8.565842412561105 2.2732102714882854 5.8584091351855445 0.34495565517834786 0.03780935753828972 0.4398260193956876
Ni 3.4871903284168475 2.4289922019651238 11.540665274527488 0.2128778286727753 0.049067961171244526 0.22106987756526442
Ni 1.051688728647757 3.103733382676945 12.514648632728177 -0.4309505712829288 0.6888859544159749 -0.38654350592246334
Ni 3.164871022969273 8.48115686727835 8.088812194383854 0.11411584271051316 -1.177292196713211 -0.43658411541962233
Ni 5.497317719814097 8.148887870333477 3.595370363603736 0.2814789747809411 -0.18620083360222126 0.19223032762575282
Ni 3.057262257603567 8.564547775723877 3.5016223604603836 -0.26716898591617216 -0.9209629817250203 1.0312381105332045
Ni 3.626169140223086 4.559810528167205 9.468183465279003 0.683267836898249 -0.47905899675438135 -1.147867977914823
Ni 7.107764464686038 6.003276281250059 11.38690587460615 0.3847316495247052 -0.18781857171130234 -0.16071888728103287
Ni 0.500927584579684 -0.08188080058224116 0.378742838039589 -0.08689325954913421 1.050926075880435 -0.5586860616594056
Ni 4.398352113096365 0.39044617398004405 1.7259799551581076 0.9517691684725994 0.7530036108314903 -0.9512675462458327
Ni 6.137737444232682 5.6074614384275225 0.3346138286990152 -1.2475380775136513 0.2617336738332137 0.7118037395544128
Ni 7.914993166209043 8.607442806037078 11.692133257780974 -0.3019295293258091 0.9425592198385574 -0.8331515812369908
Ni 0.14243449628714816 4.685345034356072 5.85178385380454 -0.008113630246069897 0.1575266055959803 0.05427753039664201
Ni 7.976873185666774 8.70618828844022 2.467084401214342 0.5559547787711715 0.31087979654056136 0.4313632333403152
P 8.390622822716928 1.5317636067436087 3.5585872866388755 0.730478947366413 0.9413400027194756 0.23227603069372899
P 1.7643636740308137 3.3269360161386743 1.4320294925738553 -0.48847849029606843 -0.07063617426032351 0.8837892008882005
P 4.725143800345274 0.9886860870374635 8.144636391600871 0.9913451309930088 -0.21986043063819555 0.9094004736984015
P 8.405687687731948 1.6800674251396737 12.275489373912496 0.6420635947457974 -0.8681059858249888 0.8363302360752887
P 6.314097763038332 7.807855177875056 1.5179453955221989 -1.2344452488854354 -0.25114329991187717 -1.0995379233508678
P 1.8921886915470851 3.2653728658369077 6.057870120801487 -0.2093433331569556 -1.0744244161126915 -1.9275244154471516
P 6.949791610330812 4.107339480258131 6.069013956346553 -0.26552142301042014 0.10243737793132036 0.16273283238726813
P 2.5645216666735724 8.152165202746598 10.323361712823075 -0.47173109563440047 1.6666093808604912 -0.33555878734448014
