# total energy = -340860.55440125696 ev
CRYSTAL
PRIMVEC
9.30035639389260 0.00000000000000 0.00000000000000

0.00000000000000 9.30035639389260 0.00000000000000

0.00000000000000 0.00000000000000 13.61201167689201

PRIMCOORD
 96 1
Ni 7.855117974583968 8.2004959992016 5.02611240119823 -0.4934749150693953 -0.10642618737573929 0.21718416935761306
Ni 1.4734926204294987 1.1024270122273696 9.422479089263406 3.2633307784805927 0.10685299050051274 2.269951647776691
Ni 3.879420344050362 3.3808468535370597 5.88828424399042 -0.38027309953271926 -0.2940565543356355 -1.0554846417853951
Ni 8.753764884016288 7.767592323203191 0.8752955753034445 0.2102290781960186 -0.13154663659245086 -0.6885136586782207
Ni 1.5907422099478767 8.011587165831465 11.202889041640251 0.1804212508059667 -0.8884637235457344 1.1627492659020298
Ni 2.780434463584855 1.888595414827354 7.493466186839561 0.887960815767387 -0.12252077894475674 -0.41732115342495224
Ni 6.564767966734456 4.68584492226477 7.402688200926018 0.6372075522050767 -0.6557873720897931 -1.5480738118157273
Ni 2.10725608740343 1.4178206887362323 0.2007853881266171 1.2513615650247998 -0.034472322745256766 -0.39516287216035817
Ni 6.409972839587325 8.79147782805508 8.753285915676463 0.6271653374777264 -0.9786919610053725 2.588285586602452
Ni 8.576788407539315 1.552182933502791 10.446769159606216 -0.6467517442500861 0.2260745298687074 1.2425529655942344
Ni 8.775295208418212 1.1576711275394316 5.04744276794372 -1.2916625786366918 1.482374412735389 -0.0422365400717079
Ni 0.3031488276503003 3.211887284029614 0.18022044068923807 0.035393549007945495 0.424294756529308 -0.8523911461928932
Ni 7.273873618580948 8.783321415743853 2.70487000020119 0.3659494838211955 -0.520483068227123 0.12727809112408403
Ni 5.6782208206053335 7.4077150434051715 3.919945715777766 -1.1501308058070707 0.38318153142876593 -2.112376705441278
Ni 3.2270003627134694 1.0086701222507877 3.3016617615185484 -2.0756333272736573 0.16715435849373148 -1.9739222859854004
Ni 4.648290084279903 3.9184911400816707 2.4581520133029886 0.3983613244929978 0.6489690636163792 -0.8055916693408512
Ni 1.8653445245444997 8.65916166163341 7.214542926792772 -0.285201932158483 0.22998054979133292 0.17614267803527087
Ni 5.12547275573298 1.6928508197140597 2.615071341786361 2.584366196943388 1.039148623629533 0.503755728170113
Ni 1.7561955452006683 8.415120317224572 13.4285488927557 -1.890639883715976 -0.9832299580850422 1.6747137551351803
Ni 6.670689722507027 5.4785328745000665 12.778765562376881 1.4912328915672834 0.004417155231089168 0.6414503866418307
Ni 5.6830105040036 6.213800428092826 8.724864027394702 -0.7482792087726274 1.4797845405210257 1.0174945356948668
Ni 3.893724291752374 6.932159934271895 10.831935037711478 2.360435710000877 1.2186501908347078 -3.1887315058074632
Ni 1.5762243540552623 2.374529721382897 11.614653008193487 -1.1669771879404482 0.6309227476376296 -0.18798029410014722
Ni 7.137176984429991 9.002512208618379 13.158445160411004 -1.4461709662316384 -0.6824661669325601 -1.0267957584911347
P 7.197880408780467 4.715020139391695 4.0968068678389375 0.20943100777475543 -1.347306650363557 -0.2614631937806464
P 5.587523747789975 1.3629299869564697 12.864221884522484 -0.05431146895837098 -2.5163975422128986 1.1613133047864517
P 0.6721655674007045 1.6884238502042046 7.527618954558239 -0.7258638171919047 0.3770731045381828 -1.9290498509527423
P 7.842134677450022 2.853702669044186 12.237987985857753 1.3258397387390328 0.03797930745725072 0.1843838349981405
P 1.6760264755053866 4.869192142679246 4.669981304842584 0.6962063993367881 0.5605423981418539 1.8057664828103481
P 3.8403216469507147 7.149592959841035 2.867016128820148 -0.0505453170477194 0.2764046455818272 0.6375698206405019
P 2.656339811967205 3.1385632764336044 9.913001261489562 -0.6740352625563876 1.1330178002758682 0.6696625874099885
P 6.776267365103413 1.508620065468835 9.173624810566016 -1.3235452862779011 -0.025947830214013378 0.5313999722499428
Ni 5.499802788930822 3.189445524728603 11.86774080899358 2.323844026919772 3.685423385152259 0.13927537269527626
Ni 0.2215400628287042 7.406989615628347 9.651066031919038 -1.4030520235549773 -1.7004435558011166 -1.3910961367446815
Ni 1.789518721154055 1.1179679072924293 5.357074873840492 0.5029265474005983 0.07110720035947107 0.36076948228215283
Ni 1.6566166322972598 6.908592831881194 4.371565428418261 0.8010714128729945 1.8128095057000588 -0.23714827118436577
Ni 8.406805798859423 7.251915477797821 7.399802300424111 -0.8698677057111021 0.5393457094595808 0.4160487144704319
Ni 9.13493067895729 0.07906046724659531 8.587423364754692 -3.1150403467709 -1.4598394648576665 -0.9586936635065748
Ni 0.5574001030001466 9.111140368019873 3.5847097295015153 0.0668085729841172 -1.1117822879358594 -0.4493843525080842
Ni 6.6911598063120525 6.235907374573765 5.375328682783755 -0.4088951341447861 -0.24312068671771675 3.1568225729140083
Ni 4.7754910548393426 5.289493836144348 4.396325766498278 -0.35301914891277264 -0.7213299338772932 0.27792776709457295
Ni 6.265705715560271 2.7205494705723354 5.197964381456863 -3.0220111495273567 -1.0492710567755157 -2.023417564502051
Ni 0.09949427966277904 3.698165703761343 4.235622123112468 -1.0253245732622471 -0.9905072084727458 -1.3842490319158611
Ni 8.433860534792553 3.9101115192237303 2.0746341583009738 -0.4718650501091035 -0.033552896254780924 0.9803456945587116
Ni 6.8359756513497825 2.669081299842209 0.6413916190579297 -0.49281825532200285 0.22952597875241762 -0.3491704645906438
Ni 6.705947372531948 5.647055327270195 2.051139598687955 -0.03350533084629714 -1.2817967415862053 0.46608906685727464
Ni 3.652807866997551 8.722608691037264 4.632086073823976 0.32605573295005136 -1.809957123852928 1.1151463193120859
Ni 2.774640341726368 5.30164010122811 2.8922805462014978 -0.1533521625033165 -0.5201665654279687 -1.1785821191692283
Ni 2.925101502924775 4.190917171347818 12.680078553624723 0.07145018552118662 0.24442140780701127 0.37440044280202617
Ni 1.3680265821064714 5.098352917307059 11.12542358546706 0.8880379488622254 -0.535952881727948 -1.1428219308504834
Ni 0.5976418138660997 3.2761713454836494 9.257569824843234 0.7531751034123481 1.4376109924767693 0.04923971086241843
Ni 4.150879138280743 1.816285146047677 9.424561438997138 1.4221733177654605 -1.5612023787778857 -1.0631208181744143
Ni 0.7833913162646005 2.0268545088053194 2.4928767529226254 0.45385550090556026 -0.021205173322705415 -0.018930775466231915
Ni 1.244117937611084 5.475947375500613 8.228570054164729 -1.0046665306922633 -0.5900545486683579 0.04947188147788254
Ni 8.14363362192585 4.4397295984427 10.603606644955793 0.6443451916911226 0.5395488266093225 0.8930649697631716
Ni 5.424172293018753 2.3835975685932103 7.587824809856663 0.18247761911436317 0.07216263820717894 -1.1606980397999558
P 6.132803626703475 8.389814048240712 6.859486951603804 0.03788983306723797 -1.547895120146018 -3.578026863443451
P 4.235131064309694 4.935373476780363 7.085133121656462 1.8281469073880774 2.1909200503638204 0.8461791038449104
P 8.450219861195569 5.361841306348477 8.588090200288004 -0.6060419252355498 -0.6131538536899828 0.11386001794596519
P 4.1403139337362145 1.2992876500742407 5.740811287211165 0.35227892831263846 -0.44971371082304484 -0.11874999904841485
P 0.4741637758587507 8.166410194046936 5.748230181282619 0.6400349943515429 -0.0546390275011188 -0.4451823986115946
P 8.761363274960726 8.679678247219002 11.340915626715386 -0.6541799183933572 -0.023114731640592454 -0.062198327905615455
P 5.005460960448999 4.763307588331127 0.2051686459627408 -0.6851933360557361 -0.30564914426924134 1.0622800674406738
P 8.654725391767442 5.6096492949831385 0.8014247067679823 -0.45384778759607647 -0.310101266503324 -0.6691941324140023
Ni 3.4762592069017813 5.006167787513598 9.111091076132473 0.6743304251993032 -0.23300622399153417 0.9071286469450893
Ni 8.039776545210398 3.3911981498909864 5.953022162822777 1.0822364559579425 1.479153591805246 0.5573038365998982
Ni 6.0734022522088384 0.22879248052573212 4.5431449082427795 -1.1531227985558592 2.4172303503924177 1.6209890119182147
Ni 1.3502536015742577 5.977413276765102 0.057506891954389336 -0.49771517840298796 -1.2687645909925958 0.879353276604034
Ni 4.991556928059852 9.165063832763868 1.3743638447619662 -0.5253931039342307 0.21410630176323772 -0.7701837221552026
Ni 1.0217278222336386 3.5701556022200602 6.42192937740638 0.9928235153107483 0.1838246200605608 0.43280407955189976
Ni 8.240971149005992 0.7511404713710588 1.1385198342312501 1.2492792285744743 2.58167039527878 1.7746054838265117
Ni 3.911627477270172 8.568492489886392 8.32793784898437 1.3108898022974198 0.841281409432977 1.2786692517008171
Ni 9.27341298148197 6.745817999188986 2.914685104078056 -2.4696024362362308 -1.402045950887966 -0.0027333397707630346
Ni 2.701669747662658 3.1491377813342467 3.953731119429976 -0.5006567775298152 -0.05404613111212628 -0.9437894927012327
Ni 3.282793199036206 6.725041003632229 5.937573341283237 0.897402420796261 -0.7344726419068383 1.5246045250491935
Ni 8.031917744294793 2.752756603792146 8.028391049256689 0.46013104950162687 1.3776060726780468 1.3036763152681161
Ni 4.205648935431036 2.764744762821985 0.37879234406092743 1.1664891925604362 -1.69064148210903 0.5620529212491094
Ni 5.8348574182628665 0.11338715162459018 10.990025281029496 -1.2921929972188648 1.754170098790295 -0.03052773627521194
Ni 7.375535811253701 0.8849130735600444 6.981260234335615 -0.5116711263624478 -0.7564306342351682 -1.0857673519293363
Ni 1.9076797455715209 7.400079451036282 1.9136719650152183 0.7763260876075146 -1.083146883587354 0.3631960894457745
Ni 8.933215255219359 6.031411144358004 5.4662024623652625 1.7262731152697106 -1.6152896475405922 -0.6304463222218433
Ni 4.192581935092071 7.017658108020006 0.5493273938939396 -0.6122513964803714 -0.8476924551656432 0.2762925454839951
Ni 0.1604674143405363 0.8047161027964231 12.842074946510259 -1.3060252751162669 -0.06656740350758858 -1.6658727598047827
Ni 3.616471375663506 9.018006601902872 12.625331077329104 2.9241282237359383 -0.08320475495395348 -0.824912224046334
Ni 6.914610162286396 7.499016639367884 11.217590114548292 0.019577407911295315 -1.5598358374476622 -0.7801122941228242
Ni 6.237023417307342 3.7130276728301435 9.535458885290241 -1.1737800697948946 -0.6338476345939085 -0.19248898060377817
Ni 3.8749840741843937 1.8396755416722286 11.563729838331591 -2.3573778970111596 -1.3459899884346624 1.6958276542956598
Ni 9.081714041277893 6.479362796547476 11.93301070819561 -1.5362667918784705 0.41694782924593354 1.0105587278069823
P 5.886186083651295 5.4307848462151975 10.821494457938865 -0.57770168352996 0.8538127091307682 -0.8361055216589922
P 7.903433324591739 1.9310887419082987 3.1070229787471066 -0.830252405312325 -0.6625424314254396 -0.14950476373276833
P 1.6692279151866798 0.10634585201133057 1.7949612895514657 -0.0008163252537082715 1.2135614634578906 0.21760094518005751
P 2.901915715134713 6.467142128614808 12.425234845590468 -0.9517167179681093 -0.7475855251397125 1.3206365972715386
P 2.7674511664509094 6.836961489097776 8.164157647796332 0.597576568077016 0.6474001764673624 -0.5487646887806356
P 3.0175935444699697 9.222391227845275 10.500074150668688 2.828543349950077 1.4679394682569817 -1.546365313765053
P 6.265343001671858 7.487344692445891 1.2627670116891558 0.8548815167149147 1.883634141822104 -1.038776842112411
P 2.3145331240970197 3.1515744746358894 1.3437210314403867 0.07236884068071407 2.425319040937823 1.1242349118769153
