# total energy = -340897.43234828324 ev
CRYSTAL
PRIMVEC
9.01082307673293 0.00000000000000 0.00000000000000

0.00000000000000 9.01082307673293 0.00000000000000

0.00000000000000 0.00000000000000 13.18825040075710

PRIMCOORD
 96 1
Ni 6.193003591202802 2.181186885058344 11.372914027656927 0.9129467962887633 -0.8852734987432109 1.1998376861138949
Ni 4.966729679036527 0.38491803590430096 5.9848679936689715 -1.3167375193274484 -0.019375576313134375 0.033050759807381785
Ni 2.7960584245985722 1.623371877727456 4.850718034179359 -0.3282491410569443 -0.8200577241675102 0.6014908155297577
Ni 3.4209680211320417 4.22846392722929 4.939962127776094 0.1480960563106998 0.846638302869516 -0.5540974138474587
Ni 5.153857443469781 4.455419530001976 2.8749067315228625 0.26165165564236875 0.04108108631102602 -1.0689505374823138
Ni 7.169722756126869 5.944349926275965 2.5740434561610703 0.3894642791136841 0.5041838168464672 0.017560891701898788
Ni 5.04752071943276 4.3158869334666585 11.520860029770871 0.13703208518705431 1.3292225391683365 -0.32616397639314154
Ni 5.640685185995682 7.763373807140091 12.414495800888398 -0.5581183620813936 0.16137143326336725 -0.6588649825738523
Ni 1.7685903036727688 6.511563222156181 0.4418195819553969 0.7648047172314764 0.39211482936265374 -1.0946921652227921
Ni 2.8217663030561284 1.6806266480461776 0.3770596970319438 0.10182725515114721 -0.7385653239189732 0.48026201592354706
Ni 0.5499539652115849 -0.18673489254375136 4.548587837082154 0.5815529389552501 1.3715989472520185 0.06916601747270024
Ni 8.642767071180852 2.3594479995083395 1.4456568191605759 -0.21457758497270144 0.3924506154355177 -0.23433419877433834
Ni 6.919411099739747 0.41261820736114424 4.630896300097472 0.05206509612635549 0.8697954577122696 -0.15045555768181185
Ni 0.8881598938870138 7.355769221781675 2.444337162274882 -0.0023019086602992615 0.22445550620804572 0.6474338579187753
Ni 7.622822987588404 3.81074018746925 3.785014287365386 -0.09530179532780361 0.3270785177876109 0.16405000853679488
Ni 7.734458075639812 3.8808534024283268 12.579718254234965 -0.1055052182233667 -0.15692676722845234 -0.3120848725922561
Ni 7.979786746822927 8.830120106192949 6.852773359271059 -1.399025161783771 0.4456364554298777 -0.09400313112103811
Ni 6.792196298455561 0.5841806758786658 0.4001355140462992 0.2568686324314286 0.7487054976767686 -0.4470950422532751
Ni 1.7482438649916743 6.575558088193883 9.134208355161457 1.2133647740660523 -0.6565954698133853 -0.9866361555531137
Ni 0.09502363556752898 4.892741810121353 1.3946834936623107 -0.36479223028830077 -0.7284760580037712 -0.6115302020436306
Ni 6.317713383650254 2.173239339036765 6.954968708986632 -0.12242487679684076 -0.8402493686240369 1.0240675609266945
Ni 3.44672996452852 4.479766774163321 0.5775793468362523 -0.28090973254103235 -0.627366654855255 -0.47057487054277025
Ni 6.03387245430815 5.537367087715156 4.83355962473005 -0.5188077374072291 0.8243134141200708 0.019959988061694658
Ni 5.299147956000324 2.9048551033565584 9.297544843221951 -0.5393544512103292 0.49604113313467474 -0.5683099579024148
P 0.2167751747736151 5.634350577318619 12.32037144547161 -0.014477110570252489 -0.8401786632871013 0.4161615858992123
P 4.065989774944609 6.105625639081203 12.483364621169946 -0.7986216657809214 0.021040108499750864 -0.29330887753633356
P 2.437319533202767 8.562066139016158 1.3128102534053172 0.2864851697462808 -0.5434882708730446 0.14129343156656957
P 6.329274269756474 7.61811032707901 5.739025705566094 0.009797959927028288 -0.1646670732955035 0.5428910036086779
P 4.668588573349473 0.8804574422552159 12.578597307834642 1.0702926533325052 1.0496191841435536 0.15958451656627357
P 3.8741944041177296 6.216711066920233 8.088855552440155 0.4692330118028951 -0.16993886321740412 0.2543924029767941
P 4.7071729180936925 1.022377005843953 3.8117475974978356 0.5240874977489297 0.36882731958962284 -0.22658309407400978
P 0.352177209975268 5.469065048209977 3.525351198709337 -1.103783586001099 0.11333217046695321 0.7086741927864956
Ni 1.6650649564597073 1.1495287313660618 2.5899610752621123 -0.6403574106879681 -0.037703170977728614 0.1382253341642071
Ni 1.7704195007729735 6.561366041726777 4.874443531543098 0.8519003225994038 -0.9571597433605514 -0.7838797315850564
Ni 5.899800416603986 5.6601575748308655 9.10151528659514 -0.014383008194549423 0.487699960258831 0.6794631184401783
Ni 8.491709631831931 2.243028164362308 10.21586936869835 0.8655945322570447 0.7923432889713774 0.33368728135338016
Ni 2.2935158064925876 5.0579101985289965 7.022426434362308 0.12001729579661265 1.497678132971995 0.5686087200897563
Ni 0.5119246871736352 8.996153533623351 8.941370432095693 0.8259753752035259 0.6488037416831084 1.094701678304489
Ni 1.4165374430570221 0.9494434032377627 11.463517854467558 0.12128510676544273 0.37350415624000194 -1.1591391799532682
Ni 4.14088773699831 6.769101558712583 1.5203943885621405 -0.43252022976289384 0.264483468664209 0.18559816702121584
Ni 5.656427094045227 8.091052391125032 7.978047657954259 -0.3692281545724673 -0.6615726113130025 -0.5619698746169999
Ni 5.464163160414355 2.8944205701445536 4.814516151076984 -0.26192470679809726 -0.44388039197071943 -0.14931167388535577
Ni 0.7711029935440146 7.518324471474742 6.930452061349997 0.6092704594751764 -0.6240329624963317 0.008806799658352576
Ni 5.109118706511573 4.514872941170204 7.114783767358652 -0.13773116813660793 0.4558673891292665 -0.20692006842744362
Ni 8.056171494696992 7.3202755893791815 9.13947067588323 -0.353247719983811 -1.1237057788463227 -0.6031008403293548
Ni 4.65445059182129 0.3805081390528715 10.290818692444027 -1.3400612816550534 -0.3510232015286664 0.4849211119621133
Ni 8.209607791358494 7.076713039534195 4.670684490815027 -0.8208881904886056 -1.2193749848158741 0.1991561082113086
Ni 7.165028117263781 6.03348498891254 7.028282568329909 0.7726650938161596 0.47405820110568037 -0.11936809224838796
Ni 2.2597522521356077 5.224141864068779 2.502668725960473 0.671478814683121 -0.2435747435359999 1.3784676493473937
Ni 2.2137519999358797 5.257743223608991 11.35659993233712 0.6507829768966663 0.34617435807679736 0.8379022085480989
Ni 0.8755906966698931 3.1472282245452545 3.8106266510975133 1.5042799545592285 0.6125951529730352 -0.06050448514296031
Ni 3.5541930414597562 2.8348139749827115 2.8969841493317863 -0.46494903971556056 -0.6768583338274795 -1.0043888515508443
Ni 0.9858291071324743 3.4333218596757886 8.316181500044458 0.11370240932217839 -0.33021423520311516 -0.4050369367409605
Ni 3.724885064460629 2.704949991691333 6.894039324985825 -0.5106005190060884 -0.46114175015432834 0.29137052286304016
Ni 4.122757960813029 6.891162169152842 5.964438655414863 -0.19459214298971003 0.10625160947108797 -0.5040619465566222
Ni 0.8033437187880161 7.3154277665224825 11.090923020308281 -0.5153755717972285 0.4861758103048207 1.1983927261372522
P 0.15830124008219548 5.733604794356818 7.951341380291272 -0.22454163816394876 -1.6682677423995202 0.1507221810796372
P 8.337669610019129 1.6447996151869964 8.010754242755308 0.5962177400562764 0.6410243548480057 -0.36085150047299785
P 1.8561304506111354 3.3205153646143977 10.428397742519618 -0.4218547796292477 -0.7408214669430017 -1.240667318535747
P 4.013835130530891 6.10821174532632 3.7238740501027814 -0.7855851443119373 -0.041073373001542166 0.544282998860198
P 6.933495016329007 4.0857865534133255 10.355849803144405 -0.3150897208568509 0.09439059636744387 0.40064934919622613
P 6.2256948576044895 7.894706554605525 10.076403452254368 0.11911175326320778 -1.4103369872521647 1.429484249604577
P 2.3482115030356536 8.471858788424292 5.730162659912098 0.6567019134842625 1.156011432957564 0.8020669440170445
P 6.90894953405828 3.9833154725092492 1.5529036363361228 0.16566003333639212 -0.8177645572579593 -0.10588008506428216
Ni 5.102630913840896 2.826839396491671 0.6609736140415934 0.6046661279339457 -0.525094084636573 -0.41239414843698013
Ni 1.287214109154867 1.1134854387511917 7.014197750658333 0.6733174105537566 0.801520327484955 -1.0446867798389428
Ni 6.762019051713762 0.8713195664950311 9.262570234233111 -0.0238508384756686 -0.07536057631918634 -0.6589261748290909
Ni 2.66773529206648 1.6788965700006637 9.064389794119506 -0.13917355701008935 -0.47749370914979056 0.6546044075252855
Ni 6.447225944838637 2.0284264001333696 2.594142097205437 -0.3926046245148787 -0.8405514732454878 0.20336860363075943
Ni 4.078884262877579 6.802756983191719 10.367560268914977 -0.07996722185326227 0.7105498125426536 -0.15731654646770324
Ni 8.156867443439785 7.0442740761808125 0.4087381469111534 -0.019494618389501908 0.8482028191431585 -0.06744106436179353
Ni 7.56527086010561 3.814984285174651 8.231934808968775 0.3162991677839198 0.3772021739168794 0.17335405954654015
Ni 3.0944428225107767 8.335479979992776 12.317193328145295 0.14941786044591687 -0.5532844310278601 0.0421501510054887
Ni 0.05090844757155834 4.813707880240095 10.166097185926475 -0.07204899544745011 0.1417199775810269 0.047780866928704806
Ni 8.344391684091802 2.1504509672810133 5.673637766268826 0.6949131344466613 0.652369861767812 -0.02603421928023258
Ni 3.6497528210049315 2.511550694343092 11.37499823105238 -0.47536020774655546 -0.31354243097438905 -0.049117326351941215
Ni 1.1586476843976243 3.1877769287369833 12.482336486248107 -0.4253676778785126 0.5420816203335052 0.6509750383028143
Ni 3.1569238702586544 8.357943962114993 7.887866438749539 -0.28440900394354246 0.1955200541206181 0.13349733256091847
Ni 5.619005145487837 7.727222384647376 3.5248366807072595 -0.7312466787703729 -0.17920486190036233 0.4704527431426091
Ni 3.1046971392597076 8.369198480233987 3.641104232941993 0.36899804083953225 -0.5098924371954703 -0.3629423215637556
Ni 3.4613004655680815 4.476261563956525 9.369276402019436 0.03164205238531325 -0.33862045698893944 -0.4063029479375777
Ni 7.256776318614934 6.169242050546449 11.330263098423435 -0.2235191104367054 -0.32995609644572205 -0.2123101290947634
Ni 0.5302635144560812 9.322867959530843 0.43255195034179833 -0.01884978571665141 -1.7191581014914845 0.8683900927243109
Ni 4.703748805295279 0.1772573087506712 1.731854979839693 -0.8706277238055781 1.1348222004744586 -0.7059825048869455
Ni 5.93740258162445 5.482491174709016 0.32885990290039296 0.33042300877981157 0.502116135684161 0.2674343237624169
Ni 7.981102327003369 8.727513862941567 11.195413426681105 -0.5915771559604714 0.8980469963587954 0.8647185574099947
Ni 0.17846115472400784 4.734178355085383 5.716803213504396 -0.7807823236066553 0.494172198246736 0.3390565160850935
Ni 7.877522914851387 8.542431555364207 2.4889920985777603 0.20120887697527928 0.7859646391385432 0.1071592088870219
P 8.506856825553331 1.4582935975513494 3.5182425603233694 -0.20028533671974538 0.10971539964997233 -0.2525016137119845
P 1.703487106387159 3.2095470774763655 1.5946706038182346 1.019002230588645 0.22823039986944563 -0.15198382140088018
P 4.611658192664286 1.172983904035189 8.166230589778813 0.6087984049347644 -0.5562093179841388 -0.6803038691739188
P 8.458441672748407 1.6215066373346363 12.38436090501542 -1.1460471226560003 0.34888224392626366 -0.4800902662323733
P 6.241842252695952 7.633915310890631 1.3798471733397146 0.563853464792958 -0.7078573533121552 -0.13145999041591552
P 1.7392690851305717 3.266891956026624 6.0476301790992455 -0.1248136887439915 -2.0512369007071642 -0.4710559239442468
P 7.010888976396288 4.047878020405636 6.0375281452616125 -0.03997422640009245 -0.5078229562609512 -0.5806016307855743
P 2.3484277627913426 8.4820590402343 10.08194240524696 0.8191647800395956 0.9492661995450877 0.18489034232091384
