# total energy = -340855.054280701 ev
CRYSTAL
PRIMVEC
9.42486268844898 0.00000000000000 0.00000000000000

0.00000000000000 9.42486268844898 0.00000000000000

0.00000000000000 0.00000000000000 13.79423922426491

PRIMCOORD
 96 1
Ni 2.7502691302846896 4.223299742362599 7.359336977731999 -2.5839391367082984 -0.6246425710558726 -0.20222574827556786
Ni 9.64135160620722 1.927902751603388 13.162517940982864 -1.768412724752238 -1.4742903501756737 1.3827356805951283
Ni 7.023030551122098 7.9529817354036165 1.2949591447060822 0.7951892430606048 1.4289224635638358 0.002174381943499481
Ni 2.6504598362587317 6.997998116284237 4.0491612701179704 -1.4663983490221069 -3.697971654130915 -1.913133693943118
Ni 6.020470226030758 -0.1054170872219398 6.386497956579363 1.0549778773523055 2.8970143982382814 -1.4539087011955283
Ni 8.728459423076501 4.45795054438 10.256609458596525 -1.0767150119190811 1.635981371561989 1.6291273247546332
Ni 0.7652554817899232 4.684232068484743 6.085700641978167 -1.0627179263090407 0.17232587539234193 -0.2852803508049022
Ni 0.19755548564754602 6.247175868948643 8.264955994460468 -0.4047548867241675 0.11553072078016877 0.3590291025522785
Ni 4.714712073855843 7.811495699339625 2.7179060373832415 0.22561713061631464 -1.2267666492942548 1.0441730734273178
Ni 9.102098672591618 8.871868131093402 1.9886601278015317 -0.10287909345442926 1.4337360829023953 0.4651444435558183
Ni 7.55417810297544 5.082385385399436 5.276475349100491 -0.6226216839711018 0.9744843506819282 1.7600047031942012
Ni 4.1413128633510965 2.498380254728716 9.534495342479353 2.1058209066006315 -1.1195084529355237 0.08957877680109734
Ni 6.289380403287476 4.2038468261331765 10.1307375922599 0.14575815220614252 -0.8774347194250824 0.6668837391132708
Ni 5.463950944289041 6.224754121027231 9.950432432472194 -2.541937852575848 3.9123358375412303 4.123087106789306
Ni 4.059335409202109 4.738472152254279 8.99134711318661 1.0563816996783677 1.2199894784714216 0.6718297702646365
Ni 7.3048433651608295 3.250088439140649 12.009526442815256 1.2944231721009642 -0.2467765383027492 1.4013784925072963
Ni 3.1528615574435968 3.879923726380754 11.356797222041774 0.10160639738959275 -1.9902063678574047 0.5385131862559565
Ni 1.1588433953027115 7.348122333826288 -0.21596412711038845 -0.972496630827938 -3.183412664697711 -1.042859753932533
Ni 1.0064056689971548 2.200648847903407 6.787703986462423 1.5338134452419714 0.3115855643583343 -1.0522838754599104
Ni 6.893514090451208 1.6394548343546202 2.4269859786969845 0.23927148817495567 -0.15692291057371038 0.913667990725504
Ni 3.531948377491953 1.2559760283746213 0.5364414971275997 0.19836755087174224 0.03180454610510652 -0.31686198226592527
Ni 8.509001499432078 8.457456926341619 8.300532022993025 0.050862334067505954 1.3350468591595976 -0.8438288584451789
Ni 2.0162891122620694 6.7542994462531505 7.040207363054327 1.0018902534987069 0.3462509769510037 -0.5414982370262093
Ni 6.56636768771891 7.20226316155568 6.687860762931415 1.2521053851693595 -0.9019368183315047 -1.5340780117572677
P 2.2941434840448145 3.4314887679525112 9.353362679762895 -1.2426534957278403 -0.511253579209055 0.9828725747456233
P 3.701925772936538 5.881858773033614 1.952561019399433 0.05475472714337667 0.8838845888154843 0.4535765362125608
P 8.450454253493527 1.3540322979729282 7.8736960219887004 -0.23129875438212424 0.29656132303536026 1.477925118714784
P 6.853741170641053 4.272459825236951 0.07988701964332642 -0.23361506122012668 0.3626193910066981 0.4230192322509941
P 0.8772577204505727 7.170001857169387 2.3973975653197335 1.021653552168563 -0.33442415951940463 0.7679967418062128
P 5.742370807822643 2.3217677560740957 10.965743654059066 -0.6580036630148216 -2.117006748014122 0.9096503849256785
P 3.61248382767626 6.964370206833376 9.040495886225946 -0.7720994511206768 0.45548532319949947 -1.2327025551627158
P 4.595534687363092 1.1603042489924211 7.848246065741458 0.9822015168205278 -0.15200644710869948 -0.12765038686183822
Ni 8.641364268582272 3.146414951483847 1.2898913961321672 -0.7389954694778563 0.06220861231826061 0.3935525902504448
Ni 3.6436235734233584 8.242532361566553 0.6511543262473489 0.3454030271284116 -1.5545727892765098 -1.5758260422283312
Ni 4.533651040094495 3.550411683157378 6.302160516856805 1.6648283777006685 -0.9163172554228929 -1.2635377953760174
Ni 5.515768838392415 6.537923452650889 0.5942187317987359 -1.6246852298228796 -2.0902130248600455 -0.4148508375075888
Ni 1.702705086687784 8.693116188648045 8.509969432812293 -0.19200149944439837 -3.022285486234666 -1.7555523238498023
Ni 6.885663179976834 1.212452013283793 0.16112933451620268 0.02773911778648126 -0.6440777969623488 -0.7297158439481433
Ni 6.6438023581360275 5.703285902976028 8.414099731317293 1.9468249155479762 -0.2388994495475176 -2.9094824487983053
Ni 1.9747443182992341 -0.09912033657616616 5.826148410711854 -2.1335291711491773 1.9355927942775826 1.1288834663925202
Ni 0.7587061448287675 3.1306377316349843 4.14646543568764 1.9415657240315658 -1.2037881861212105 0.5310251054090274
Ni 3.380528536337936 4.1015022440908835 3.398983359627098 0.3422781083461847 -0.031152771453720543 1.0353094523891009
Ni 9.042608940401642 5.807958426059341 1.4588094370301503 -1.6302863780597405 -0.3481309675825359 -0.9938331875221852
Ni 4.989409116696313 5.257914024864918 11.985662690929162 0.7766353913178173 0.8079884517078021 1.0882587508926227
Ni 6.399707843879343 3.314469674975524 8.041531146183795 -0.25714528313158297 -0.7207424368049393 -1.2863697056688685
Ni 0.5914204901182536 2.5146381425658055 10.947190812199759 0.8352894535156001 -0.22100611420686456 -1.0734468826907706
Ni 9.249720294152391 7.289895533213222 10.357749543209499 -1.2588750997930254 -0.1999930022903072 0.8548455212706567
Ni 2.7148693466811484 5.754396932390831 12.521320039495574 -0.662703382483336 0.4378038467593363 1.0001511593204129
Ni 7.560511610585019 9.429574945511915 4.27126192521139 0.5693656528604387 0.09148653534677147 0.07167875659222495
Ni 6.314365713812766 0.14274614018214873 10.418319364643608 -0.49368471708735623 0.7319743009650168 0.19659554657298398
Ni 8.548171228041321 0.18417595082230992 11.4419075004905 0.8852691278678367 0.32778634248791294 0.269074173358685
Ni 8.250901639479212 2.7603820077624848 6.306367775483168 -1.7766623663555403 2.2454662610408165 -1.3057632797041319
Ni 8.203098736806911 7.290724921114476 3.6807716690232932 -3.057084339081406 -1.354408551515661 -1.4703251948803389
Ni 0.3803940484790832 3.7608594382381733 8.436832499701675 1.0107196788648787 -1.4283699334944755 -0.30084632356395924
Ni 0.13104517337070143 4.164761921286562 13.157952537580961 0.5863130793480548 0.1149229119928408 0.4584431202762427
Ni 3.855720679444148 8.81845743522512 6.812933400926832 -1.0644135688439087 -0.6693118889387892 0.06622878922124724
P 7.039439236759415 7.692497385234644 9.643676719789488 0.6687236205354871 -0.27345944691057417 0.9091001688491634
P 8.253663124195887 4.793796095212955 7.543517640985566 -1.1967803873448097 -0.8214602609419918 -2.2926298061004964
P 5.963496932132088 2.1388877238474957 4.898665597922817 1.0168000807310036 1.3299984981024127 0.39868991147701016
P 3.8754657664115117 7.606523789379611 12.141758206376501 0.5055709270019809 0.33895778572370006 0.7772635118201194
P 0.15384957071019228 7.733985630022393 6.509446230564068 -0.014821381283548669 0.7030355064434796 0.31623514731520375
P 6.1369992261570045 7.326275502518245 4.473444075867183 0.6877664960995511 0.5454991306554863 0.5783431737687007
P 1.348000385963805 0.33995007845791303 10.130157963215273 -0.7132384151184104 1.4277922066141346 2.8305860914117185
P 3.525746817957573 8.605210495977591 4.677846724131336 2.3077522635642316 2.8866351118864864 -0.35412189505864816
Ni 3.642445465609076 4.092067956714115 0.8287168510434063 -4.178527547145797 1.797310638733511 0.7555212350470214
Ni 1.6488985465939034 2.121517702233724 1.6390589901290216 -0.9972920926050631 0.8798243027031816 0.1523949407963698
Ni 5.03365884620074 5.412434645786125 4.682013455848888 0.2514742008887347 0.23937844606646516 -0.8585008586350571
Ni 8.095165211293665 3.570543189487826 3.705808816292411 -2.4239969796922898 -2.111917506416672 -0.9139657244715808
Ni 1.6387291199410225 -0.21256080925649107 0.5565522687605166 -0.4532934577545032 3.4304211165056078 2.03112213223516
Ni 4.7614782416515755 3.112391197807387 13.20717011211665 2.922564478793244 -1.8515287766471276 -2.8817050215747213
Ni 2.4252621713431273 1.3830514496543187 8.31949861631671 0.5164703475233041 0.7292838986170471 -0.040779753020523314
Ni 1.4872904290619766 4.526290222470862 2.280228617028769 -0.2794521741588994 0.602921120218381 -1.3963375876492792
Ni 4.3467088921242505 6.313885045824539 6.814519605287981 0.38357773842592 -0.429889477008266 1.3255612882666654
Ni 0.5716075441407872 8.183372499564575 4.466561098773023 0.37224868656634597 0.4063289160795067 -0.41962229075430313
Ni 2.172713555411156 7.307340953727107 10.732372748371102 1.1882476672834505 2.5404885217238315 0.07212201477723064
Ni 7.27967898224777 6.635602727748626 12.741104063382991 0.8101013842857469 -0.6263305002812568 -0.09842260034497244
Ni 5.314934443076159 0.4028780004930894 3.9568089273132903 -1.1779108041338164 -1.3189954621236897 -0.30444689643102407
Ni 7.948702847822146 2.193288030279774 9.671471581830275 -0.6033548653216899 0.08882981445021476 1.2222605338937853
Ni -0.03137536730995419 5.413103811024638 3.827901312760822 1.6300580640990185 0.14083397543164777 0.30783021108096015
Ni 3.6291846840515194 0.26340511506214137 10.41469173506187 -0.5885090585581091 -0.9469601771197304 -1.070726398435814
Ni 8.95822814631152 0.5965146283072084 6.10217153170808 0.39572182998762173 -3.262927372394587 -1.8564339272582286
Ni 2.0899821122610276 0.45622460729627434 3.2770426034451665 -0.6020677710791502 -1.1435757782973723 0.15369283367218692
Ni 1.9250375933990544 0.8031302342897074 12.273424478186891 1.407754571236969 -0.7633132202876144 -1.4774456079752039
Ni 5.361182243433607 3.3855331383330047 1.8801959825287333 3.3199462129817916 1.0483788839785493 0.4768241938865917
Ni 5.333209251491299 8.394856989521939 8.333072303309741 0.49582593180007506 -0.8361086069827858 3.052597506954646
Ni 3.9524386185654303 1.8555669318064825 2.66642649584413 -0.30243475109700174 -0.19465796323063894 1.3910732539265462
Ni 1.5787021705877338 5.261250426194964 10.29468213320911 -0.9977821448676043 -0.6137673189042655 -0.2836687833434082
Ni 4.580256985227485 0.5467456993144345 12.435961887162724 1.3751594109097671 -0.4626815838376225 -0.0066532436504595106
P 5.276697775855827 9.462938958812376 1.3823756870120467 1.178175627759429 1.2414574185372105 0.0531380174755601
P 9.03928196393411 8.963110225093903 13.54831526314137 -1.3018564884505577 0.7089976375641854 -0.6402849055788199
P 6.930648048757371 5.231552684412548 2.9603540281586858 0.2040167787377196 0.2685555818510536 0.22099094469821293
P 2.8282881421776906 5.281655253538326 5.540552456859899 0.6754136309611529 -0.26874378660245973 -1.5386550896049889
P 9.032251016498476 1.3637210566375821 3.38960279396666 0.020507890145364683 0.4785414336880145 -0.4348869302228575
P 2.6809115670422887 2.0882290878333762 4.591854278551275 0.07480881758077439 0.37684273369493165 0.4142790241645188
P 2.2497052572901035 2.8245841712095885 13.316406153629366 0.007238940950600435 0.42015862287374733 -0.539931920980354
P 9.462750461562091 5.887334618154395 12.124611554004316 -0.0009240544761661503 1.9848880409682845 -1.5609588953085116
