# total energy = -381167.6619660137 ev
CRYSTAL
PRIMVEC
9.23970123395141 0.00000000000000 0.00000000000000
0.00000000000000 9.23970123395141 0.00000000000000
0.00000000000000 0.00000000000000 13.52323671919939
PRIMCOORD
 96 1
Ni 1.6763035672620457 1.6111267143458579 13.264686109761591 -2.251602712955858 -0.10330846768236403 1.727901137791437
Ni 8.383735364620392 0.041401253550730745 11.652026528971335 -0.71903625274711 -0.0727910158197972 0.7820223666613435
Ni 4.943120075286732 8.328149321645656 5.216818506968518 1.7629447596591317 -2.0143300003784854 -0.5935980430452422
Ni 2.1072432355369255 2.3411739928564668 4.637861595900691 0.036973749010871804 -0.39068503889466266 -0.4915784693776308
Ni 5.843501247121686 4.664238171179942 6.704969416963936 -0.2862092903770748 -0.43345379732075673 1.288092087676614
Ni 2.15466138256923 0.8576272260150235 9.163074601585391 0.4673329665667048 -0.5276325347877107 -1.7534329635139545
Ni 2.9140447126830287 2.681814060401278 7.043347605632381 -0.37441741208289064 0.014017397325014568 -0.14886121661149845
Ni 6.4021428269580385 7.25827506930396 12.937112827784414 0.47534298135537495 0.711160449543459 0.8531228821525952
Ni 3.721964193685505 8.739537781985938 10.539794713995153 0.5642974943089121 0.2837544010786791 0.23140879759742727
Ni 4.394097024495708 3.4349236333375757 5.163090567923672 0.525403645457192 0.15696944754092967 -0.8912564557995231
Ni 1.5231000801337056 6.59013378945205 3.8810339671643534 -1.1014071153491225 0.027370678703468994 0.175591176407175
Ni 4.306153547595186 6.568873236778369 3.211417107016056 1.3383700099955596 0.804887187074659 1.0048673338491598
Ni 3.8804805090569423 5.408514589680759 8.622577947146942 0.18531508856315826 -0.152481329862589 -0.08732237666675284
Ni 8.47297239970184 5.753876144585957 4.728792268229025 1.9320127902358082 -1.3965484181085046 0.4130942598277983
Ni 0.6760864989931965 2.932080609605682 8.39644272580775 -0.5076620052030547 -0.47834371585491164 -0.6613491824482869
Ni 6.392515058211417 4.001622232700852 0.42242713147424427 1.0067519524663824 -0.6054713974440605 1.8709676020980293
Ni 5.4666692696147665 9.145373181849521 11.960099421371027 1.4168192525423986 0.3579029593676352 -0.7922584425670549
Ni 5.282337228832522 1.9245189027795495 6.5961349754414265 0.8829867595915631 -0.18058091631228254 1.3282797156390929
Ni 7.356419176431229 0.466300929090806 2.930525567878181 -1.3793947891473533 0.24738049043533522 -0.3341505941430439
Ni 6.156505368101098 6.143865456733174 1.611726370959731 -2.6923440450769633 1.2698423974378066 -1.49934343648956
Ni 3.9855451524521754 0.9711110852278394 4.783723216382135 -0.738962816467708 1.276773320229685 -0.2541512335002655
Ni 2.625599717738663 6.218217333032658 1.8973911397852303 -1.066930935949124 -0.3680109943359146 -2.2807543948191493
Ni 3.44834891931535 0.26542982299526807 13.028881541019963 1.6944760253637723 -0.6590148778881554 1.0226971629417292
Ni 4.149152543235694 1.063240146813792 2.339885054526185 -0.01779743319273709 1.2886800989696 0.6414025641230309
P 8.15702081401017 0.8378348618766955 7.212970041957215 -0.19051385915527835 -0.07389607595851791 0.3082503293375143
Ni 0.2978158999950597 6.569011832297754 11.09760102483468 1.3274590195100104 1.219976108734983 0.6018008905710087
P 4.328319590995518 7.888496615052095 0.8547074804066431 -0.07757866701642768 -0.9148995491397598 -0.25342052598182807
Ni 9.085213486735077 9.093584656105937 9.377729494068847 1.7638906685121685 -1.3380023422434957 -1.5810952610470705
P 5.69694110522254 1.9105946729319885 3.8545686907526955 -0.34211561462639145 0.4543506953744239 0.3739265884894012
P 6.333815235901161 7.777509323128471 3.6833644175666125 0.7106775963697696 -0.8691305704347613 -0.26106621545254394
P 3.518450533020357 2.344297011893279 0.6939985839185328 0.2494746539602026 0.1462191510029611 0.2663763148115477
Ni 8.066702733877516 5.588503970855602 12.986729099754166 -0.00696666112582026 -1.3531818781974114 0.37323213352553786
Ni 0.21194119221389415 2.5228172805626388 6.091028224892909 -0.33112106328810076 0.7040829738713874 1.0942473643758897
Ni 5.9231936707681445 4.006297521554777 9.230812699699817 0.30123867390637155 -0.6489425812538179 -0.02884314948393742
Ni 1.1113512714430223 0.3552655907204611 7.117549798770931 -0.6136444201731561 -0.45641220588914305 -1.0564572901113096
Ni 4.266321195323895 4.702130186179841 0.5842688153407959 -0.7442852571218859 0.16705485680138973 0.4050256238870509
Ni 2.8370595215152266 8.658727354483105 3.206008185879518 2.4261348519708994 -1.5667425918698241 -0.88652742575497
Ni 3.2026652619519482 5.323167468843387 6.213346162511335 0.16397313255227244 -0.27903591255708715 0.16993757766582343
Ni 7.919495812887907 7.810716809573152 1.932605489350608 0.3647791176621782 -2.12730478750602 -0.27708033149261313
Ni 1.5512257308675979 3.71149561212128 10.292346273684913 1.8870174564720403 0.6035332998810832 1.1478522941855394
Ni 8.663273287518937 8.040905487869294 4.323811540734983 -0.3142140031201169 0.21722993499388396 0.3685522115513653
Ni 1.3238736408682046 5.6163801496546 8.45640469131454 3.0906719452288645 -0.7345513176635736 -2.1068894570744616
Ni 8.643814476597264 7.188820234689418 8.14081253000314 0.664120831656153 0.3423992073050813 0.31466574594555485
Ni 2.1715607962329257 7.4485020395107195 13.344107810160185 2.1798414239521557 0.45563033341779596 1.473763016917294
Ni 5.661525330168989 0.6357699863741868 0.8109233078926171 1.1928555983691067 -0.7111043994945431 -1.1330419686455842
Ni 8.786364588135532 4.026292235151407 1.2323331482545745 -0.7410492666830916 0.7626807289099381 -0.27738757832038685
Ni 1.2481542887774535 5.456736590725497 13.137161600464932 -0.24346907119607106 -0.8160565734279172 0.028431001647183294
Ni 1.7345321648063916 1.4940596989718715 2.3191400771846165 0.3639537935474055 1.6370404089541226 0.5843402718924001
Ni 5.304392395817345 3.984048320842816 2.8345786617182323 -0.6359731655773434 0.538713989412853 0.16416905061316242
Ni 7.281660753274881 2.730692080237773 2.6897315604386867 0.862404050344205 0.9092294953381761 -0.41933869807561325
Ni 6.126772009342338 4.907630382622842 11.972554538713103 -0.9988062152567444 -0.32481928943978894 -1.537254095492404
Ni 2.100978718060717 7.657291569613795 9.426683279455938 -1.399996010337473 0.23527753652421415 1.3469492670241385
Ni 9.05880642044156 1.4974044708396996 4.145751409189982 0.1591368875058937 -0.7916922856509397 -1.1562459175658732
Ni 6.659034241989052 0.3728857010849593 5.328966305374461 2.5739383167418444 1.5871399245792537 0.11540010873957546
Ni 0.8977885116523219 6.846988245677895 6.253645119697889 -0.5282015199173031 -0.26340463377773343 0.11949484763423936
Ni 6.08182086255509 5.657653895327497 4.67014141633562 -0.9089780414490024 0.27560914626372535 -1.2476504347217996
P 6.711645101147654 2.8258979623540754 10.974349877385727 -1.2975141523214622 -0.01832039557574264 0.3927254663634591
Ni 4.849956167156037 2.4414709503848506 12.14361005270838 0.6137053553180786 -0.051373726486285715 0.6182456663905933
P 2.2419673200805796 5.951337800904621 10.85999748625143 2.922457778012051 -1.3326076535904856 0.6269707049684169
Ni 3.61156824264459 0.14465768740305204 7.006767628215995 0.1644564999465942 -0.0721181581224887 1.4551232903289197
P 0.7152240257273031 1.2461769927008919 10.669292823487858 -1.3171686933275961 2.120101070668729 0.8249312502097276
P 1.4882941253654494 4.229630341492001 5.561377131831412 -0.5410182120659973 0.42531034227801595 -0.546392331893717
P 8.949389877737632 5.316496404510315 9.449388921411744 -3.266931351347657 2.3174365807315316 -2.9130359704775186
Ni 4.088216713212692 4.4070141269024035 10.754056919173683 -1.1429659126275153 0.2124224863029116 0.061379945769378164
Ni 7.372043511316581 3.5822691498465704 5.104738158382009 -0.28000419000762744 -0.6714021958089147 -0.36932508516164786
Ni 6.20998475918118 8.825642558329282 7.661940987304103 0.37945240340363684 0.8734747063360698 -1.1012819026251677
Ni 7.312465917383553 7.005208890607976 6.121414830533038 -0.6814377256680458 1.3042807816213344 1.32289916805347
Ni 7.27215310064506 2.057672238103505 13.032519211418759 -1.0497012023343988 -0.2972159259002236 -1.4307456328155037
Ni 9.114207669390447 7.5488082367403955 13.252528510801127 -0.47679282642802406 1.1842550011842896 0.9208542240612979
Ni 1.594347416798963 8.80504726414865 11.740725813437571 -1.1539866892180515 -0.2977651135354743 -1.192248046692095
Ni 5.275740082109789 7.07217824557488 10.011590558156037 -2.29237989487322 0.42154419036736435 1.5387641043790274
Ni 2.713885063587001 1.6080776129193846 11.250792500351338 1.7058215322835784 1.400446724721646 -0.824991671134018
Ni 0.9994492490914555 8.716493966962833 1.809625065149522 -1.267747719692307 -1.400616417530291 -0.8611940891965041
Ni 8.476049220232191 4.864554895197939 7.127679283297725 0.5415725419075705 0.6546067215181307 -0.13809600767519445
Ni 0.025333413003346177 3.3467029653982845 12.732884938209367 1.428784652434391 -0.9014819901822733 -0.5424955679424721
Ni 4.262348123768188 6.597987535550542 12.31159521396421 -1.0403063913830601 -0.06251945869046006 -0.2420385093971315
Ni 5.0461057858911875 6.926024650532597 7.068649603651334 -1.227180339792906 -0.5699454366233088 0.19672024507630637
Ni 2.995400282562109 7.638045271821845 5.513045178341295 -2.2176929475822904 -0.13480499562874848 -0.36500537474037137
Ni 2.722210034451402 3.5929502445405186 12.64116981524131 -0.15432738193239226 1.070912289194375 -0.7923384038753709
Ni 2.9189787131731397 4.542015402484828 3.738661257890898 -0.45788827621403716 0.13640730711886184 -0.338915619631855
Ni 7.887286214182799 1.7309194416010856 9.496504006241658 -0.6874471650869193 0.9625857994721294 0.780485875412159
Ni 5.094900648416051 1.339858324103958 9.309964600820674 0.5739206192209728 0.06802059101434738 0.26851058754573115
Ni 8.870150199454498 1.7769793525434154 1.0655537680173948 1.6441780484401685 -0.830924491678685 1.9207953242534337
Ni 6.667913594930995 6.256053909824803 8.688747143981928 0.9421370446994741 -1.5223141863531202 -2.255511818202277
Ni 8.56260674193886 4.014058870640346 10.742034219852087 -2.613573671745279 -2.34966073087256 2.2591841248475415
Ni 7.607526538453236 5.206165131378446 2.774562181973818 0.9935151420611341 -0.8582555753934703 0.7495189947169996
Ni 0.4034081303340853 3.7928511820003608 3.3886391976538417 0.21603334358262147 0.10503984855117394 1.3598826872563547
Ni 7.410074121835865 2.9010629323672865 7.522814185094647 -0.5200860898990205 -0.7056819429273912 -0.4073804972724726
P 3.364794300528692 2.609190008243462 9.152202245074692 0.4952991127623277 1.7486681951354595 0.5738059480199795
Ni 1.9095690660885383 3.8079026554055875 1.4285945673753624 0.6737454992301106 -0.11422717147739682 0.034673897233101575
P 0.3482258623058249 5.9600508392233005 1.7300139508744357 0.39672276044831034 1.0444157855657432 0.11459406789851233
Ni 7.412864511626153 6.57802978075908 10.859578003812757 -1.377910234182027 0.2434958106689484 -0.12780876681657344
P 1.2798372245088978 9.05853846910408 4.329613149176446 -1.1478001007913652 0.8201204590846457 1.4834676457995677
P 2.8073816009642205 7.110874114587212 7.63517911648096 1.0711169490060133 0.3415576852403924 -2.3108540424180073
P 7.863798893497663 0.09257995900901891 0.3823896578342633 -0.7973589970184138 -1.0046531609558247 -0.6036543988399797
Ni 6.930672220282646 8.70618246032058 9.734539962845387 -1.1116167088922726 -0.3022910264302858 1.2742736937362829
