# total energy = -340887.9220330248 ev
CRYSTAL
PRIMVEC
9.08679953166034 0.00000000000000 0.00000000000000

0.00000000000000 9.08679953166034 0.00000000000000

0.00000000000000 0.00000000000000 13.29944962235962

PRIMCOORD
 96 1
Ni 6.836262587107469 2.310882088889933 11.657831850025103 -0.8889843719358947 -0.7271252004028317 0.19258616830327477
Ni 4.894304547452063 0.6319187363027626 6.090722513079865 -1.0221744576690397 0.3886957763787758 0.11671574222720545
Ni 2.657261789204489 1.9162787449968637 4.898998787940599 0.3317553544379899 -1.407334195870099 0.9447634265787278
Ni 3.6911123729891795 4.562490986322802 5.008080360764022 -0.024349375378641937 0.5648685363210336 0.4077674482982461
Ni 3.495927925266084 3.188357944515092 3.0780778228716184 0.3377370259427216 -1.1050621956032065 -1.5579807865167943
Ni 5.03007950172946 4.945853959553233 2.8047478103452717 1.426289396816363 0.26031339644691937 -0.230268513345397
Ni 5.601584653270258 3.3290488571825345 0.9074986403214855 -0.46792843405885864 -0.12043715694285063 -0.9874843624860219
Ni 5.559367383990859 8.40605259019887 12.640448333642329 2.755369496869564 -0.788413614899668 0.3852687529750977
Ni 2.5792879649069156 5.720930674517704 11.790108386594243 -0.820482984630387 -0.3255507682891748 -1.2665693831134897
Ni 0.8461509325974198 8.032694182934133 11.593475503071934 1.3301126550827738 -1.549258576152448 0.33522043016845493
Ni 0.574026738330517 0.0256838380581624 5.165240188378082 -0.4111667037877822 1.457205369668929 -1.3473056219222925
Ni 8.722309551025434 2.6399968706442523 1.769811354051135 -0.08959934562638762 0.9339200561063207 -0.09598108078301534
Ni 1.3875542442884834 1.2301163606176106 2.7267458169700474 1.881950069251462 -0.4939135452687107 -1.6216708684765877
Ni 2.166283852548331 6.526466340542129 0.6533117877587441 -0.3198074380474944 1.206692247141883 0.17399169313053905
Ni 7.971349201249841 4.468497134961177 3.9377808078589 -0.8759226536559303 -0.9045488020330551 1.0540016294819652
Ni 7.833175331972495 4.14945961356649 13.154165985402168 0.6536764963943775 -0.21361702083164502 -0.5712063056136034
Ni 7.763543189379289 8.979793094353257 7.040848237326574 2.8588070339306246 0.2831566195936801 1.3125018839795461
Ni 7.072128635038027 1.2509978252762546 0.46171389969655713 -1.2182904935024437 -1.5060038792288708 1.0989697095522235
Ni 1.7302628777091786 7.0147636714218295 9.32368482903529 2.371875319296386 -0.23689630307455972 0.8053695260277162
Ni 0.23459934811619088 5.308326381325778 1.7557804273412083 -0.38155402312767195 -0.07662761595706803 -0.4477540159935128
Ni 6.5308189173791575 2.505930234624395 7.413924045134878 -1.1305397710490208 -1.3316242066312938 -1.9589674644477808
Ni 3.558590492840501 4.277683437673595 0.3239162239078398 0.6295549207558254 1.7606441365504129 0.49962782204466855
Ni 6.060695184983916 6.023929995249855 4.892175510389609 0.05494858832173762 -0.6462915167842159 0.37103075499884486
Ni 5.247953687160403 2.9633142744820296 9.586974837078897 0.7966977092853311 1.3020794030946414 0.22677695525237074
P 0.404802367362548 5.98552009485295 12.56583844242423 -0.117928531588384 0.2822485059571139 0.7856265390728342
P 4.2076060419175185 6.524685327890652 13.060099439646605 -0.3073527572239094 -0.3680590739650306 -0.5625000360888571
P 2.520260117029391 9.079875101207174 1.316215600797586 -0.6782127909728449 -1.1265802721806406 -0.32217645250030325
P 6.351627236322387 8.105170493690158 5.876188635050366 0.11897728456787252 -1.752536162731298 -0.2427964706090786
P 4.874895144270661 1.9156971898453612 12.757483581842475 0.19458083013580038 -1.2074818329227142 0.04862264610370981
P 4.092494469116952 6.514807977114348 8.54534867918263 -0.08684775102317946 0.3936634047966962 -1.4301617352875755
P 4.722127875410294 1.498722146217922 3.9439380230254346 0.1926360477046037 -0.33812886206450155 -0.1739461846045843
P 0.5167108434302286 5.849454362999802 3.8882005051535216 0.8798471855213169 0.9940854127423073 -0.42861575250216505
Ni 1.2885990005406014 7.676064573074342 2.7671893430373635 -0.5586112425574121 -0.06819182648488901 -0.8635409921621257
Ni 2.154407405938737 7.148412314676545 4.9479402886592485 0.22089298566776794 -1.2634282663813468 -0.20535503793316895
Ni 5.939540890687268 5.558195186888612 9.5087075091658 0.6292080789393679 0.9539664332342345 -0.9324558128559683
Ni 8.78130105170599 2.36335835451381 10.209362429656485 0.21633827641755002 0.44310803258106907 -0.5967764407732239
Ni 2.3569339874495534 5.595660060164325 6.874498929638847 1.081337598292757 0.42680852409009723 1.3579222210958741
Ni 0.7556400513853418 0.25711825399828464 9.204296099831405 -0.5840363674987361 0.04002024914667946 0.10129837923087069
Ni 1.4186492712953938 1.5048193885094583 11.471838699735523 0.6525156433170568 -0.052968067556599094 0.979486946102842
Ni 4.291849757692231 7.557927096126114 1.8468283383885018 0.34367267470086615 -0.9289100044862388 -0.884462315695825
Ni 5.924447717145924 8.286061406205226 8.201317916472192 -2.4653560022550507 -0.6226412243551277 0.011618815185850957
Ni 7.148403227877303 0.9441638752638826 5.024784623811013 0.22766578561522727 1.126297193722583 -1.1683789533839812
Ni 1.1141142814913056 7.862162221555208 7.044319394637106 -1.326867408672599 -0.2048241051303634 1.056818272995154
Ni 5.346536372139354 4.860901473437627 7.1673128571003835 -0.8269143420780275 -0.3072738243568579 0.35793818348094486
Ni 8.420227997016749 7.471657024120384 9.738628064352165 -0.24128749016371995 -1.0358570973624546 -1.7223300714615628
Ni 4.7064713203159325 0.7677791064930366 10.787050239401696 0.13295894355894522 -0.2448032166264623 -0.5174795055141088
Ni 8.297501686451193 7.17427334531993 5.145530012141762 -0.5559306104014554 1.1489511836766728 -0.5390405195143362
Ni 7.283605713802439 6.390818601454124 7.474702919226379 0.4171272922465913 -0.25396045764569813 -0.536932729142714
Ni 2.7433319516268893 5.493369961094544 2.786141680216882 -2.3719380542135213 0.097156074927723 -0.050788029186144786
Ni 3.458444878391887 4.766644104897978 9.544868426750254 -0.2370621392284627 -0.23732876262628805 -0.17545027995393653
Ni 1.0745140103936683 3.395982220400799 3.8069935976855627 0.9606965528692165 2.1087028561341166 0.11185352903889768
Ni 0.3899336377624874 0.15731702924095106 0.2835217665564317 1.3742579821414203 -0.33564311952817033 1.2444386126527214
Ni 1.4116615226781188 3.8257060433650865 8.299588015557209 -0.9652558901051249 0.22561507373378561 0.4276952975704247
Ni 5.670508025522571 3.0804249431158865 5.104647593671046 -0.06864022687621726 0.8592714182524943 0.25417617320093
Ni 4.480673445945765 7.079007342064394 6.3214408892397 -1.2405441626943214 0.21142541249696492 0.49924395634268864
Ni 7.899817917615008 7.452229447340496 0.14434562332266807 0.841129714346461 0.6374106693548184 0.7411374555215237
P 0.27570621052818983 6.170109334659606 8.1017584005747 -0.42960742699147303 -1.2842040654761173 0.5369077894420495
P 8.525444045442526 1.6872550568957052 7.991146610758887 -0.19682746007813198 0.7653433633437658 1.0935374827930586
P 1.7361783840158702 3.632956857838909 10.51447806593215 0.035035137227262245 -0.45916919980898985 -0.6294806158744642
P 4.051821955708732 6.66910182824741 3.9583415085042932 1.0531181984357476 0.00822624456453422 0.5563517570992741
P 7.310666201945799 4.098137371446376 10.761369127383306 -0.6222144212303542 1.801437259307375 -0.3587406247775822
P 6.419078547097458 7.920626687879714 10.262626520774662 -0.9505026430553501 0.06335558143851024 1.6524888822987092
P 2.5718458763275294 8.99216022812193 5.969777215165786 1.5217192330815987 0.8972836358302094 -0.012760899210094151
P 7.107739801268325 4.4641718185218755 1.9546332159183912 0.3414851801312442 -0.048534457265277706 0.14082780478406068
Ni 2.833963687268889 2.035606592645825 0.32981083057627425 -1.0785057852709168 -0.7566712894910645 0.07705596174373826
Ni 1.4709256273359412 1.4767411788509683 7.330922494816578 1.6079458055810112 -0.3703118745549493 -0.6493642421722687
Ni 6.779451918245048 1.026281280015913 9.420359286173372 0.2469238625138909 0.4163521046434636 -0.6520546445202383
Ni 2.9233323578162187 1.9842116561317735 9.405569611726717 -0.6986926560937515 -0.8310067669798462 -0.6136871004856334
Ni 6.366402371890253 2.4407324500613963 2.8289123355701333 1.058917578726344 -0.6565741296571467 0.9536589292961448
Ni 4.110549939211262 7.124804810245232 10.814885831520419 0.9282893401831045 1.5571613759392922 -1.2793302823235837
Ni 7.303242286964897 6.172353774072437 11.65112851822411 0.3129991568764094 -0.10871472629959986 -0.9544058347644983
Ni 7.711375874929647 3.835447092152757 8.693251784408632 0.9710776389932244 1.6268151316816888 -0.3712999494998315
Ni 3.4330654481083385 8.831605572310973 12.537935607991114 -3.2089005245561704 0.328518335557931 0.7510685985923065
Ni 0.27985887778188884 5.3233286868746985 10.36069671027635 -0.08942348217015568 -1.0432834717335129 -0.022151853506690883
Ni 9.045381611283672 2.5903647731831936 5.962462341775792 -1.393242236553407 0.84798556092603 -0.5889029515624181
Ni 3.6635975448837073 3.1163723209181473 11.364113786038965 -0.07872846435015475 -0.012868114211919773 1.0933060835085429
Ni 1.4331881500829613 3.8656243524362015 12.66413489322705 -2.216572203714286 -0.43339080529330526 0.3913506975031195
Ni 3.2264770673362455 8.61560326752393 8.122984254924624 0.6638552366995921 0.30676346037934266 0.3064605844269432
Ni 5.632643333080199 8.368960275692087 3.8703794744796602 -0.11091893303977025 0.23797230974755793 -1.0365330403835569
Ni 3.2000344815413566 8.959893004012773 3.50949815125443 0.40429234526545216 0.025760396793555632 1.0666972226717628
Ni 3.860817435637062 2.8868306852601817 6.984085728500138 0.1512788249140556 0.19586381061328204 0.4708852026943374
Ni 5.160366029264551 5.037203552335368 11.554627618951555 -0.3143708404129554 -1.0550516680130344 1.580464569441607
Ni 8.18578857656722 8.794204306629956 2.9228198623389567 -0.28211223748956576 0.7691205709980109 -0.431834773660095
Ni 4.490723445907671 0.9543229168166955 1.6464189811011245 1.5251215738949282 0.11661135543885723 0.004070056304315572
Ni 6.146574524622229 5.843956849458253 0.5218248940437553 -0.9338406090186367 0.7504728739898365 0.418038491206951
Ni 8.061826461304722 0.10158223740881064 11.109216345775481 -0.7692552968036623 1.1813643099000557 2.193140712164223
Ni 0.14729883307639277 5.34456453670379 6.084191830464475 0.09810352644265685 -1.748752013098517 -0.027074487619288854
Ni 7.230684195015693 6.533681259140459 2.8326497360984626 -0.12153810331651327 0.3055928371100092 -0.7371285914724466
P 8.904318139847295 1.7221301923873829 3.82528078116055 -3.796345403515823 -0.5995370342374965 1.7666057534504866
P 1.807037244506778 3.733066125090554 1.6308578373988063 0.8616185783284322 -0.8584813182510312 0.21320333033299413
P 4.718293246130073 1.3080174905212463 8.325720741497937 0.7185505713599432 -0.42354810817127053 -0.4253455663913255
P 8.847743727765174 2.0161790158659376 12.911092288312673 0.08748487038654609 1.1490725397458856 -1.448565177495428
P 6.412354315658209 8.285461677455238 1.5171610792402548 0.3885515374914276 0.37352832460971797 0.5745752220858362
P 1.9382233651668486 3.5394446068371224 6.162605455845372 0.24322224529258757 0.6846037821008533 -0.2668380849393146
P 7.260806934503685 4.344180634528231 6.304271382071506 -0.5638910028991126 -0.0007906142220954126 -0.6038338618406375
P 2.5101828566697586 8.940901593596513 10.362611298876688 1.006867909218956 -0.04329994833921575 0.8045429163613627
