# total energy = -340857.277506274 ev
CRYSTAL
PRIMVEC
9.30372927717290 0.00000000000000 0.00000000000000

0.00000000000000 9.30372927717290 0.00000000000000

0.00000000000000 0.00000000000000 13.61694823250562

PRIMCOORD
 96 1
Ni 1.634469822568068 2.525506564847959 5.552705556327422 -0.9754248602183265 1.9256863337971482 0.8112025877697254
Ni 6.53196211857188 2.437744488354556 2.717834182941809 1.9259850959844895 -2.223404396144771 1.641631627869231
Ni 2.6599919688246523 2.1543156853973806 1.2295836274770613 0.2742739723920696 -0.07899894440272202 1.0669178233230012
Ni 0.26501114085324873 5.020543416930531 7.241996672177557 1.3280894540051578 1.9363674676600782 0.7672866031130656
Ni 5.819575582252587 8.350757421844634 10.31617298294443 -1.9281466224121828 1.5098065408044128 -1.0848175864215575
Ni 1.0515818914339425 0.653817700960311 6.306907703035732 -1.0180871749735434 -3.3340263452239416 0.9474234899093941
Ni 5.789701308148875 3.131607300058311 6.490858243458145 -1.0252600385728987 -0.5609951694085564 1.7281906440073977
Ni 2.268314277920827 1.8876801134452506 12.33699597225888 -1.0962037167713121 0.2455894599731835 0.933610752396018
Ni 5.557340674159397 4.853895021494314 11.324603248492222 0.9959461201001301 1.5539004457998336 0.03849455653077242
Ni 7.612394873909781 7.69320706477395 11.118414934802075 2.245961969730313 0.32993681317201246 0.6199071132534163
Ni 0.5218498860750116 4.590943726261297 4.964058616887412 -0.536069095590838 -0.7529033378082001 -0.8488733628476218
Ni 3.564965697279368 6.001156462876117 10.453241102116138 0.19331070517412516 -0.4711988772800143 -0.8083648612106142
Ni 8.457340942284413 1.6003995666453668 4.600091152701275 0.1233479028317424 3.2348658382716806 1.470941231197783
Ni 3.3914418460466247 3.8429239075324064 11.806207063275476 -0.3329084942058267 1.0456429731046248 -0.4515199107938482
Ni 8.593435891393444 7.316954956699135 1.9470602339807639 0.01613367233706899 -0.10227128466710128 -0.04472922458657458
Ni 5.7231052153321915 7.245976807481688 6.614704833221947 2.5818223474756112 -1.0376640686642065 -0.928304509691756
Ni 2.7797867845703386 0.9746772667870146 8.249501216681027 -0.2783995645246689 1.5684302639848924 -3.2201223614139187
Ni 0.5649205695180902 1.6383587813271312 0.262236768839008 -1.2643399795623387 -0.8940365896478216 0.63568648757486
Ni 8.544358720450722 7.283787162498034 6.196963675649127 -0.31792127676837506 -0.23978879413100637 1.4461809935339673
Ni 6.473757989393174 1.360744809050373 10.341091160562609 2.180852124604857 0.3186594404859802 1.155021558240469
Ni 4.366714551495314 0.41420667089203417 4.304208377986009 -1.2446993225132756 -0.1839431479162961 -1.2860938262996624
Ni 5.31331316389273 4.1462999056556855 2.779205301502297 -1.6264382079582442 1.6919753704291054 2.1946404366382013
Ni 7.387114377756779 1.4721755723453471 0.7786960742800455 0.4224121947946145 0.3346090218367011 -1.5339877660363066
Ni 8.557495585923922 8.685831224973004 4.360637355654596 -0.43021369311690427 -0.6258404480187156 -1.0812661216248731
P 9.10920672088192 0.7379131778198702 8.089284489163806 0.1748897794647762 0.8907851725900594 0.44992968348859286
P 2.9148397160214405 5.319146602031324 8.347080588108792 -2.2776238196099676 2.349359911802689 0.1882070653989726
P 1.51231185963386 4.223958132358796 2.349576769272887 -1.1833209194057943 3.242335150065532 -4.062213411232384
P 5.20247783925943 8.254296358653326 8.421510420818134 -0.998055967354281 0.35196705349917445 -1.385786294495994
P 2.473619667720459 9.195926779717393 9.835113436312865 1.0007895642353604 -1.9004406718564817 1.9029287283856584
P 8.85606155610836 3.247485245857668 6.530592609650028 -1.2121018481932286 -1.5171308423799679 -0.9305534536269328
P 6.958724171869071 3.8061555701739915 1.0671033026725671 0.9515303129889161 -0.14119907208055038 1.1777665652464684
P 3.222672200378191 2.7570112557612796 6.76575738758683 2.4243816167252183 -1.5493989583850543 2.7139374549770228
Ni 6.601647049446002 6.8739485924131305 4.049734640698586 1.3681665245317016 -0.6853985100880067 1.5204434516929686
Ni 7.4131369080177825 8.53424556693134 8.347461110628519 0.033497103316181026 -1.1139821238006555 1.1721695307746651
Ni 1.571771992239536 6.568990960344777 5.722345100665646 0.03894655646652648 1.9036789762881217 -1.6006253606601981
Ni 6.180188121729351 0.03763730565529667 12.261067308793352 0.6068932174922516 1.5076247026617455 0.09471224137292077
Ni 4.2763846457734385 7.67371575233319 11.737182697166649 -0.7835097498401474 1.660420992661592 1.5432432231963034
Ni 6.26092588276081 6.224157545402395 9.518042348971067 -0.6046550721903523 0.6161445608871905 0.317909192583517
Ni 4.457146798237165 2.2124267772851995 13.150812693475736 1.4576272876976963 1.0632324040516141 0.303716960243535
Ni 7.44884462026009 5.7549611837317896 7.656034015200177 -0.28497464663902533 -0.809621873546167 -0.1317140154082506
Ni 0.8396429427940904 3.1081153841094245 8.413040305855812 -0.15750629388100618 -1.2874593391886213 0.8933421346839583
Ni 1.3671178634761105 7.807680147480918 3.53672980986817 0.1557754272328285 -2.9821523656592057 -0.6131533394693505
Ni 7.121353356338984 3.712411195876575 4.781509218065752 -0.2707356202215079 0.004720031183488646 1.7495922496116256
Ni 0.5849756879416226 6.623994606716982 11.92304050205224 0.3064364160572271 -0.9649067342958221 0.45226553071062114
Ni 1.1884955687027776 1.4376959523427444 10.429506358838038 1.7418007785916647 2.3913683950239912 -1.0383047875719988
Ni 7.567606722076934 0.2935214882725623 6.416210703488128 0.4702090025629192 0.4453173815275621 -0.25743144691343406
Ni 2.7100274238635076 4.363969951414157 0.34509298898395663 0.24153817272194528 0.641798771120185 1.9220857609300834
Ni 6.960073212586927 -0.10015929550405306 2.462243998163745 0.7759833595561153 0.10883942480292223 2.3408428754706136
Ni 2.5316656335046575 5.34424806311255 3.746784753367567 -0.7619235390289395 -0.7480532088047505 -0.3058013535763895
Ni 3.9959609473119033 3.520447353590092 4.856580077709304 1.8032858824803395 2.5941567006712485 3.0164161719380824
Ni 3.5587228950608716 7.364804035402154 7.294040802326656 -1.2734290863478004 0.33073694047580454 -0.15810767491043093
Ni 1.404518854412555 2.68032992061248 3.4209588569533325 -0.9246887673160397 0.37040443426875563 -0.4449378867009563
Ni 1.5289655347025755 6.199130514153878 1.4383444222602246 -0.6272910644223133 -0.03868121862028177 0.2032048243593855
Ni 8.22731554429619 4.187589855351193 3.034863403502708 1.5431092687216004 1.281073747377252 -2.4972837042015827
Ni 6.257511414185268 3.8868654200181845 8.98860155033261 -0.10349821509566691 0.7488967877519682 0.8708663221789453
Ni 1.3841529914374613 5.652564341381911 9.712138605964673 -2.333641215515852 -0.5983864655728212 0.5820494189756944
P 5.165216404259316 7.924181443129215 2.9902548136412728 -1.1732995306140503 0.17139050806226613 -0.9839915188414151
P 2.5749837961414945 8.597910985085093 5.343412588240388 0.5562478845315582 -0.47552578679014224 0.354905310191892
P 4.276766098666074 5.835038379997952 12.669221903913208 -1.5903000674747902 -0.39149365083888704 1.3237664011497718
P 8.41091533413196 4.744511078598848 9.61812721464241 -0.11290588156281199 -0.6493439304572945 -1.8180692114371013
P 7.975528723969574 1.3776868997208371 12.11168942566443 0.5279107281497618 0.3501703666100679 0.4853412302186674
P 7.476699985151561 7.007447801106425 13.472390507188084 0.41308037587072727 0.6628352800755102 0.0629334062994271
P 3.6794108687990703 2.553427055843051 3.2971941400055114 -0.04740291476399579 -3.670242563646763 -5.115824747254467
P 5.144645859244271 3.0063698027957537 10.665365194964854 -1.0798782401384113 -2.268977971009512 0.21652236740389805
Ni 8.818083733968416 0.23328356391507382 10.247584031356954 -1.9838542003871318 -0.9695462899503626 -0.20453742712788003
Ni 2.652930438446353 7.808703557680671 0.06969981684066359 1.1091145112957093 -0.8233705905908272 -1.6359245501821245
Ni 9.264820893618978 3.3544874341064363 11.164576317048411 -0.3611973138481908 0.017070839439357693 0.2889050920416831
Ni 4.895919965787827 1.7063318260489382 8.88350662654702 -0.5122655654133371 0.07138847904531577 -2.096308339124506
Ni 4.05610955587014 0.9525250878268967 11.231490597399928 0.3136010521264664 -1.0841961507874747 -1.4365984920518549
Ni 5.102379017994453 0.18135386963376568 6.507784517789158 -0.3782820372446195 1.0688842030207528 1.0905328916387798
Ni 8.975149288443307 8.76673645312806 12.742957678432536 -1.308521044954927 0.35753606294651974 1.7575654976250894
Ni 4.772282709928521 5.16832384977493 7.68241008716655 2.3054431558150807 0.12788564280109588 -1.0681498959578895
Ni 9.231960122477803 4.0879283093533845 0.6408371381358017 -0.5203791956594069 -0.03188784984753218 0.8486239658409773
Ni 2.734719520864832 4.7641884656213795 6.310679434808278 -0.5797719357954273 0.20517300382934986 0.33420150198563736
Ni 1.6331766042247433 8.687794311810713 11.674217849813273 1.3272715860895528 0.056811866782721515 -0.14225990924489695
Ni 6.964148245927764 3.390306791097807 12.592231684958666 0.3935343354179997 -0.9527263901795462 -0.22579607939634017
Ni 1.5256906220633644 0.6624255111131464 3.870889986800033 1.5137683536656381 -1.9380715948353784 1.3697832341995184
Ni 5.9298061644951225 8.584895068090047 0.608248966256925 -0.6704601436106196 -2.302913961635324 0.793723971368988
Ni 3.3161560702611252 8.80940335472869 2.1679270410541016 -0.5362578145628765 -0.4539637443486504 0.878573718125532
Ni 4.905084138940165 1.193138129518023 1.6645627343053642 1.008155260571812 1.3466139951719067 2.474906622057963
Ni 3.3336842958641753 3.6433496148513935 9.448568612747257 -0.035135924471184646 -1.491909605919334 -0.34076475702545184
Ni 1.2364469884257714 7.1916616370620465 7.830344031540913 0.23016361233641652 0.7939599986391939 0.3730940652857768
Ni 7.785202338002697 5.598035185193229 11.43084253095572 0.07897709002585108 -2.152323678147861 1.6454623144692304
Ni 6.213672242719467 6.26099100886443 1.8454235062974305 1.9989653449969575 0.2199619892130663 -1.3524761103796386
Ni 7.4337539716782715 2.200843634569808 8.234304505587597 1.4565291695375109 -1.0994849586257451 -1.435694749290663
Ni 4.98185851137985 4.562120773544604 0.6652631484851901 0.7043251717891805 -0.32158792698668487 -2.8139222576027922
Ni 4.021434557556676 6.466659244098521 4.828556315321328 1.6765299824083126 1.5717557288136996 0.5769426938767483
Ni 3.978860693246932 6.162511036460882 1.9927582905184822 -1.5643501803782478 1.0581771010158936 0.3197832696777783
P 1.1853788194580739 4.363020971047113 12.642614169092527 -0.36291866741467177 0.6915545023870735 -3.0070285600755957
P 1.2539193916542897 8.474487714994826 1.412173032333802 -1.945185323062024 0.43068960431205827 0.41198251482085824
P 6.396574252873586 0.76878295093607 4.731522142418158 0.6474587976194398 0.6213153064548526 -0.5026722652979472
P 9.134150018568638 1.1675807857114524 2.7326215299553374 -0.9750913881383076 -0.409854669844578 -3.437175661620622
P 3.9492934422031456 0.2586408775462379 0.1744058447503486 -0.9790652851843914 -1.2090522627336275 -2.835488928029975
P 8.94607513504122 6.423350385190772 4.313944730477299 -0.003009990470917397 0.43868830624681865 -1.3400497116908276
P 9.148803391883291 7.516706020232832 9.30492368748277 -0.7092730027127591 -0.33869553320124896 1.6640182230945468
P 5.799916802688232 5.300278639439506 5.470445705217057 -0.34419846529734915 -0.5831426520398731 0.3623918483769243
