# total energy = -381171.9823251854 ev
CRYSTAL
PRIMVEC
9.20131194429245 0.00000000000000 0.00000000000000

0.00000000000000 9.20131194429245 0.00000000000000

0.00000000000000 0.00000000000000 13.46705011333722

PRIMCOORD
 96 1
Ni 8.501809980882152 1.1090801578020584 4.491759456933319 -1.206440536142393 -0.14083371832133165 0.9552838664940774
Ni 7.72233922626411 0.5203148782957233 7.088476475737578 -1.4601261428601497 0.5879516433927423 -1.674275124935865
Ni 2.3731380158394018 7.709070934170108 11.712414621706099 -0.7756421741666125 -0.7644797297918898 -0.31070136198116816
Ni 8.760560079339461 2.6715733735210043 7.1309644546372075 -0.0822292784145616 0.4628299364900287 0.3845737837906022
Ni 5.194407536432059 0.989610321083247 6.897203279667341 0.5455081295165508 -0.41208715871952256 -0.009495855305577195
Ni 1.2546081104780227 1.864204240519456 5.524170601528675 0.36891807953121625 0.3043795335281984 -0.9342435008840103
Ni 1.0175455047152797 5.164438862818907 11.074063471121693 0.9162830597508478 1.3218784400984396 -1.0329574072171566
Ni 4.610372651492662 4.360244182502817 13.464706983291775 -2.0857290209467627 -0.32538724612811704 -1.7131558611614623
Ni 0.5459092481214355 7.793612590036746 7.085661794356472 -0.8095563104155541 -1.2790063233252618 -1.0834739279094694
Ni 4.266381597446702 3.2269185672335627 6.471280982006522 1.043071869943339 1.4338682376048852 1.9930564357116902
Ni 3.056225025877226 2.05758821759272 2.8047154399364023 -0.634114772212366 0.8479217975676301 -1.1841575563744766
Ni 3.7338280538845208 1.2490229140140425 11.858586666231288 0.3704206322186717 0.6079602253041851 0.47536792105603937
Ni 8.874003056611967 5.271661753090341 0.15345856360233084 0.07567013713980517 3.472717049060342 0.9307128620229325
Ni 2.056971729679892 7.620480700965493 8.837630269755108 1.2910162033019443 -0.24316799501588443 0.4162428327591089
Ni 8.444044143318944 4.033422776894725 5.158943839213818 -0.22875953290003828 -0.9145185116512573 0.09632895104073733
Ni 7.174106646829404 0.60629561937977 1.7896230050354505 -0.29129081866504025 0.02070997885384175 1.548450735539172
Ni 1.1438703189722543 2.970155952196715 11.377987411489894 -0.16901789406503148 -0.7671729603533367 0.3195004483300368
Ni 6.993282460815998 6.605042296728387 12.536867830942692 -0.06098322455159175 -0.12169931148472588 0.010151486611705098
Ni 2.691080155240342 3.156353704495072 13.043147947843838 0.3698141089829244 1.2498160749145508 0.3573334600174104
Ni 3.9770555387755446 6.635001769029408 0.19341802192815138 -0.013211870704583698 0.12392254438828981 2.4253349817774232
Ni 6.110692601137286 0.2762270707203792 4.882492256477424 -0.007609179805825605 -2.068665637706573 0.8013454924699878
Ni 2.323506138200672 8.85502074968414 2.6410498607863064 -0.43643756253942895 -0.1160804226360517 0.48639383985289786
Ni 2.3007512932988217 2.589240032565989 7.467654267506615 -1.6354308983751575 -0.7342196453557678 0.48160773131816415
Ni 3.4823285893870413 9.250723177910611 9.947625037983066 -0.5241070381329553 -0.4643769692621744 -0.6822571362455475
P 6.170749565421303 3.8336530892020177 11.912763992063107 -0.9487692053040111 0.34966565905950747 -0.6596116309318898
Ni 4.519491291567239 9.32571387178448 3.106094297368956 1.028560049480409 -0.29841097464958927 -0.10789325883956903
P 3.8083586821518014 8.016026706885723 4.907002711734014 -0.4940104758578911 0.2258865822276174 0.22078062845961974
Ni 6.3899340217120315 2.8178834377281685 8.067072826199105 0.18056497547268258 -0.2532508331731832 0.14194597754890392
P 2.457808490075885 3.8836254153896226 5.394267396983658 -0.27744182859708993 -0.6504837004886925 0.01266088329712013
P 6.240596725813517 4.384839289831019 6.493246354327466 -0.18073723938448874 -0.8683754374362916 -0.1548719415819526
P 2.202021214125004 1.6055737591198604 0.6999125294019667 -1.3790705730387154 -1.9318451543096924 2.503882440465023
Ni 4.1021933837675215 1.9624374488381582 8.748316813416936 -0.342766617946829 0.7878659699263142 0.28032866322658173
Ni 3.112629069244934 4.434241134666455 8.499540017179248 0.3885510232707953 1.1609320101876328 1.1282640876409666
Ni 3.6174038514813227 6.867905381708594 3.0046332687544313 1.2054671164855304 0.6744826345064513 -1.6012010306580102
Ni 6.431634368293182 7.363727287240777 3.629612152417746 -0.615473760072411 0.6421900930213327 0.3005863850343533
Ni 4.759958382818735 3.5034824059779646 4.293753660776271 0.9605070625662298 1.3745888831182775 -1.9485694090429082
Ni 4.460014009947523 7.962337050596886 7.968224970230001 -0.2703687238003924 0.3137350066011694 0.02033511201292627
Ni 8.580205160244775 8.282367887851736 3.108908978750062 1.3826670321407222 -0.2170247609616133 0.8330597928541329
Ni 1.917985909929611 5.406608196814778 -0.3842624368530487 0.5428385531041877 0.3400224795427886 1.5395958562517036
Ni 7.5149140468777755 3.0977321449036097 10.280166899343472 0.41905253429376216 0.36138886103370665 -1.0871524052023214
Ni 0.6760756101934213 1.4465474815465997 2.810909763263505 1.1378609873007823 -0.01464217539320704 -1.2503138404865757
Ni 0.6004261023709183 3.5427260022199336 9.232821105027053 0.04220105884808216 0.1079253976290851 -0.8191688938046537
Ni 1.5655756552830864 0.7643428773422111 12.149407017992642 -1.5617690499146328 -0.45773272447277946 -0.6577771488263122
Ni 4.4783154197776005 1.3230198661776809 0.892756389453096 0.29212385608929686 0.17332757718397893 -0.27059935175395977
Ni 7.451664227284037 7.004222820940663 1.5042019832330138 0.7939186038782972 -0.964834229186674 -0.3783838529298064
Ni 6.714841554396716 2.324518282535166 13.565764074303715 -1.4647081058038773 -1.1894239469797387 -0.5901849035986352
Ni 5.373225836400742 3.1883374654650805 1.9568568530302441 -0.12189445821466749 -0.8024690645514696 1.5077494011650678
Ni 6.6561739882445945 4.598622575900402 0.6511510958909016 2.3969497457665105 1.6024534150078726 0.7384632511234701
Ni 7.994633656179374 2.8490022753577913 2.3221231809872678 -0.9912533426101509 0.4792466872851553 0.6583276220131437
Ni 4.906148829968187 5.930595318782289 4.9034611266944985 -0.21266545555165312 0.15751323585954163 0.9313065297428734
Ni 6.824843240931942 4.993340463728773 3.3055005332324585 -1.0841683828733328 -0.4181012261240864 0.0044994305322503154
Ni 1.1450020803644612 4.648420077157503 7.0653397763822605 -0.3916898260100931 0.1245303531756178 -0.2870551833171379
Ni 8.091348647996336 5.411944957851201 10.56849645591076 -1.337792797335851 0.7432691571525457 -0.27800490018941154
Ni 1.4974215363231176 8.486213756818815 4.993852056683299 0.48163472790135764 0.20606697639852894 -0.40266535118499036
Ni 3.673991921091665 5.860453716401858 11.648823433432273 0.7922653845455904 -2.3911668205361463 -2.4217652621482935
Ni 5.497471154115939 8.184309504463538 1.022145240649948 -0.19746586499307928 0.562583854051915 -0.326560954721244
P 1.9211971678635964 1.7253380378268883 9.74508115468263 0.7991130035950431 0.07915475325429594 -0.4800303595287152
Ni 0.5860729755765811 3.398458629306021 0.9840545688180885 2.457225402728116 1.0176611431797185 1.0414870419547224
P 6.279168626269868 1.7862599254512912 3.476021089920718 -0.2563811512720488 1.246859049168756 -0.5827546725728351
Ni 6.051887015303188 9.355618136212708 8.964247685737874 0.06413591124796052 -0.01870554682930327 -0.10687175955359013
P 0.16929402178109504 6.607057384085244 8.937596085148222 0.0017036129546680338 -2.0224356602047555 0.16621153496448793
P 0.35889533943699115 7.3312006488549954 12.76727512764053 -0.3231241611255532 -0.3994275609739831 1.630728607803482
P 8.789028939075136 5.646366787032127 3.0410216978419142 1.387985873250474 0.5085464646905371 -0.1464693193405542
Ni 4.64490517592317 7.971832804716866 11.681575503965282 0.9927615517245613 -0.31834062369398075 -0.4409195095701826
Ni 2.244209230249138 5.768422192459965 4.391375901969424 0.1006507183445428 -0.6859021891973026 -0.9154322817147783
Ni 5.447655250234574 4.392522385461041 9.692869229122154 0.19151993182228952 0.29018138765094537 0.7007397684307674
Ni 2.7762382990198087 6.392685214039428 6.504840927744701 0.4410820032899759 1.2533803952270415 0.8257015527168489
Ni 2.8428834027901684 4.620181250225122 2.0899915583959365 0.20143693382568534 -0.21422920049434718 -0.45769981435231494
Ni 0.7341947781424895 8.904689432571399 0.9897557018149289 -0.28999061179637803 -0.5513175371094763 -0.6058712039856404
Ni 0.7206697694400109 0.6750478236283033 7.8065799992240406 1.7219639463713958 1.714395132885202 1.1420868524566716
Ni 8.630103875935324 1.2106074358639316 11.253942682379169 -0.49603444826645543 -0.5817665976279529 -0.3458701965728172
Ni 3.735245055952812 1.6794786981621812 4.921129486249909 -0.8573829429805297 -2.596756857298257 1.0458378627242504
Ni 0.2336783631606806 6.131285137688171 5.399586675527029 1.2296087467287404 1.1979697796672206 -0.918444843288857
Ni 7.833196634827591 8.932974266064436 13.298497241337246 -0.9786197130065405 -2.084145735620043 -1.8582046460054062
Ni 8.349381044107366 8.475475825561048 8.982252813317308 -1.3299542751280387 -0.7699721203650288 -0.29495438355955655
Ni 3.0396074561672624 0.3239128708432412 6.991029059474928 -1.5204704482761622 -0.797589367861665 -0.8269871042974919
Ni 3.648853936347689 3.486920044140791 11.001421872235063 0.11145346538700161 0.11987279979894838 -0.8937704804706283
Ni 6.027926798512078 6.830446840020187 9.767638171373648 1.169821599367779 -0.20424586402939018 -0.7154673044489291
Ni 4.9423467918945425 5.742603310618237 7.617933777767422 0.5058637756520513 -0.7887604567161255 -0.5217943308393789
Ni 6.817288963671766 7.476544575288324 7.336175798324639 -0.2539118637959498 0.5574082233882465 0.5138917881628504
Ni 7.3301516992719735 5.963094353231676 5.753958649920046 -1.8598072146058358 0.868188518236466 -1.0946808523688825
Ni 3.0508146543437498 8.859787029368395 0.04100012672792294 0.5931149327612365 -0.9436434540416716 1.9002308698385206
Ni 0.38374624324245676 7.8769580753262565 10.720728484605926 -0.7097589412102422 0.0076914551069867535 0.8699844337946243
Ni 6.984854058903302 8.485376437414825 11.006162388245349 0.2403431239725796 0.9619404525786465 0.9422704849535449
Ni 8.887547388069923 1.637391896471497 0.10903186823653935 1.0434958448546352 -0.1277552878708187 0.23700248963512083
Ni 6.746365249760135 2.4096120171297106 5.599249627999009 -0.4584251225541137 0.8984092647942205 0.22993401282411366
Ni 8.263311970426855 3.6372878869980627 12.432121013765915 0.32627993314571546 -0.8677257196674346 -1.1425175122361872
Ni 5.5451155483342065 1.7724211520051196 10.545737010352845 0.9642608731817072 0.46738181752676927 1.1100290526901786
P 5.563159321424594 0.38854104699431846 12.598802783032802 1.749994627256367 0.7711558562604848 1.0236250740726371
Ni 8.040189352543733 5.100232106763464 8.133034272478074 -0.615643967101688 -0.40288646605686096 -0.3333959753652065
P 4.941058608196095 5.333816616540401 2.0698857712568213 0.047895538129698156 0.6282739971608728 0.11145012295289194
Ni 0.9017561928491735 3.8560674855549926 3.6096278225987697 0.520540918048252 -0.36453691974438507 -0.8526102041822348
P 8.03990411186765 1.3258630716263957 9.112964813198706 -0.31536997110143106 1.970374934953774 0.06545642983159695
P 8.010551926167324 8.306870982058621 5.462006536766483 0.6263996629562953 -1.1873480382873165 -0.8637574790483059
P 3.9921824959201633 6.578809355840731 9.617278609697294 -1.5160350382126275 -0.4981085571866647 -0.22642574256053907
Ni 1.281926806197227 6.588433928330555 1.8059176086895898 -0.44087451526486005 -0.14541928080948505 0.4312873857970573
