# total energy = -381167.4244249186 ev
CRYSTAL
PRIMVEC
9.22555593944311 0.00000000000000 0.00000000000000
0.00000000000000 9.22555593944311 0.00000000000000
0.00000000000000 0.00000000000000 13.50253365085814
PRIMCOORD
 96 1
Ni 1.7118756935993755 3.3816459502702028 3.623377655041586 1.1336490061019637 -0.8981598677875758 1.0289670551108407
Ni 0.4465178260046947 4.185690045377717 11.05742743245436 -0.8332312854349908 -0.4171285777981719 0.19181200914141158
Ni 4.259476041117096 0.33858897059641413 0.9228249718696616 1.2196760609960606 -1.2353297083729178 0.14211798435039397
Ni 6.710374112148173 0.4041549960677533 9.586394100041812 -0.16672935514117093 -0.19172613429582464 -0.11438400877023526
Ni 3.536395424205231 4.508353861454836 8.164793141018954 -1.8374039072099708 -1.6127846217305515 1.3108214109533296
Ni 2.013431437877083 3.9416648674204358 12.546040984106838 2.0182085094972853 -0.6388232334316288 -0.6064653859262136
Ni 3.8833962566314986 1.6216036295446334 10.703998232707365 0.375653855593153 0.8327666870937463 -1.215525786273113
Ni 3.7327798317201317 6.179258861495999 2.2757167585409093 0.8465804530483872 -0.10542217159125714 1.177553677904714
Ni 8.602507941625484 7.251545218683807 8.984167342293025 -0.806752779528488 -0.34725910650054387 0.14023130885064236
Ni 0.6162505252060801 5.135590178574701 3.1560414396913696 -2.010436835971667 1.330037321760148 -1.8331158213575784
Ni 3.5260720272019346 2.4109698652846356 1.6808630650325467 -0.8046107934848206 0.9590865280696192 1.0783291504837365
Ni 8.639825315064568 9.084017378437869 10.9112623382437 -0.18210686603850573 -0.0641042866790767 -0.38334248248666236
Ni 5.1532940202631075 8.026731775072545 6.507897147545714 0.030986163968869218 -0.9947294740842093 0.1621931578337142
Ni 8.999040783444691 2.0587658193553664 13.026555905997904 -0.8422298893891753 0.9448783548900372 0.8634738863696162
Ni 5.757023621060899 1.9218862471141591 1.000589027294315 1.1810100118844304 2.1775539134695596 -1.0518475592534402
Ni 6.89734845268956 4.698695529883803 4.521998458566432 1.917042542079221 -1.1858845663679125 0.7841065028838818
Ni 1.481910262767228 6.428717891852691 4.78986155030103 0.22540835703961826 0.4509527254364685 0.04013774856115023
Ni 6.584666688049049 1.0055486861227085 7.000537217498828 0.19888125728336717 0.9288824936824132 0.4343074035703036
Ni 7.505635478080406 3.379108922409697 6.789506317506329 1.582167668175643 -0.36565329273701547 -0.6832534387205459
Ni 0.364687145558546 8.048513312449474 6.160773615226557 1.5760584699541116 0.8266752294840279 -0.24073341743246282
Ni 5.3728345729775375 0.8423338421338602 3.2438890276670533 -0.8897634161937643 0.15390700656552203 -1.3123108510146626
Ni 3.7916204269721647 2.4413496207197167 4.139471855648391 1.28220554698885 1.0256896699111497 -0.98992382516545
Ni 1.2410863526921136 5.350647111142928 9.312886813234279 0.29824205317189284 0.8285742462789536 -0.7692159589252947
Ni 0.7387123987549264 -0.1297177732298944 12.856950519467338 1.0756274352818571 1.003460169088988 -0.315183823232554
P 7.034698528279441 3.181811184865014 12.77650274984406 -0.6047828560174681 -0.43945346654761736 0.073814314877989
Ni 6.792223243706034 7.274295439425657 10.805578060575279 0.4195711258013935 0.4356202088444562 0.2211236136213353
P 8.225874623788505 6.151591419482696 2.0349398988006624 0.5316442270502649 1.1468001987719412 0.7035738954454529
Ni 6.199822625499885 5.527058190228752 6.635347279146109 0.6163211956743708 0.9802680472432408 1.3460486095867397
P 3.7039868718923494 4.702459556673209 4.018191775804748 0.6244021729102923 0.5342017033647961 -1.5385977540044922
P 2.1342862195957464 1.9291744362407044 0.07009946361916757 -0.8566470932557697 -0.8262121738046805 -0.7340072722346456
P 5.063114211766929 8.346314255493631 11.888994128348232 -0.09415688309008301 -0.4162117224108574 0.11433104404511277
Ni 2.7359308447699955 7.827948723034983 0.4200626220309206 -0.7901290549288779 -2.4701683360420295 0.5543213569328066
Ni 7.510248256008599 8.19833633955719 6.845649360225955 -0.6006446654793784 -1.0459034258548632 0.4205620289597531
Ni 6.083414561703999 5.753010504263371 2.379538396481927 1.226656863189268 -0.7049262957082891 -0.1449991625529309
Ni 2.8898223420103797 8.41037651536038 6.39905311699648 -0.9282931968378465 0.40936050381697886 0.4659836516276619
Ni 4.050941576539334 2.649653446401069 12.803953391294739 0.5754432265130864 -0.46557716021786266 0.3541344934641385
Ni 8.029776208505153 6.869727138455538 4.798921968707587 0.30044060348510837 -0.2947098716489182 -1.2375102609640043
Ni 3.5361740108646775 7.588693157455454 4.363654708069755 0.08239717145099358 0.5519657122164364 -0.6536690401952097
Ni 0.15479283404755304 5.076518944426258 13.285574457332984 1.5527138816909 0.4096543809083138 -0.030059281279225657
Ni 1.9642869018301117 1.3458333138855265 5.019188572667915 -0.43654426332062235 -0.5412681232932743 1.1703003387764102
Ni 7.563857961090061 4.830030543055322 10.695451677762009 -0.5334740811701523 -0.33732333544407067 -1.373749417936118
Ni 1.57307720574004 7.668854012291597 8.233777234935085 0.6545077340464213 -0.9054908542313502 -0.43129612754780566
Ni 1.0422848495428396 3.1552046817751953 1.3875337489119794 -1.0180349815793694 0.8250649475741145 -0.4307304848523227
Ni 4.392157985443648 0.8089889930465367 7.930334864484747 0.6839226968734285 0.258321048607239 0.8843566433558964
Ni 7.935878500998849 4.195672096814327 1.1426044664807729 -1.250726245433646 -2.7481742646727056 1.5399426980681608
Ni 3.5452611833832184 8.740688317242443 9.970324832561195 1.1579284474746185 -0.46645390639586115 -0.6716215109085724
Ni 6.148002678254561 3.2060928478790234 3.0565410521134835 -1.547754737913412 -0.7226411964895489 -0.7801084374680823
Ni 8.61807145435521 5.790447809928588 6.758206774152366 0.016199492577997906 -0.44112236960960804 1.2077566838506555
Ni 4.049622322051871 6.039454788048317 12.62536877124915 -2.7894173304828924 0.6136626750056011 0.7232906571480897
Ni 4.667909849991041 6.684551781306147 10.359724474592245 -1.7320884363999072 -0.1908524734416197 1.026480284133245
Ni 1.2003370724744542 1.7199480549737138 11.283203538372122 0.3307323124901143 -1.3571580892363402 0.4369756944310862
Ni 7.828769797506202 2.2626782804490784 10.82633094847422 -0.15069132784170178 -0.1792025479075172 1.8818603377511331
Ni 7.2339797603332485 6.03903963803478 13.50996027198319 0.023195978500489083 1.0951601059981462 -0.545596318354983
Ni 8.732901948099652 2.9726032547097363 8.953948111529845 -0.016279968106946152 1.251370306775548 -0.854733935393457
Ni 6.001104152353319 1.16348097682819 11.980878819566671 0.02731977086087553 -0.3330979845088134 0.26179152365434266
Ni 7.944513621280427 1.6274803086251515 1.7165096903060386 1.019773818647347 0.15461097461108214 -0.3477314181512721
P 3.0195613340187437 2.2903457224623818 6.875314135082165 1.0359864238514676 -2.5987677170806984 1.0489872069865096
Ni 2.674654702771876 0.030972036121060927 2.4706398380081582 0.9727357434219378 0.09066841032085031 0.9575896318091187
P 7.475181918198475 4.822308752803527 8.513846659623267 1.2936608400136431 0.3690039543768032 -0.8247127064410185
Ni 6.666488142939342 9.125670763129454 1.3436145677020654 -0.39765555667522484 -1.6712417374261797 0.6571865664301649
P 3.6405611753796916 6.668157968549348 8.354287903420305 -0.08746558711283646 0.9888509038162452 0.551574904535921
P 1.2752578115841693 8.694772725745207 4.16762456189974 -0.39891205479014524 -0.6365557775536907 -0.12187980292664816
P 5.171957319760577 7.7502326405007835 2.8656292443325917 0.5157512099690924 1.694061820644489 -0.7006235545678773
Ni 1.5123914993167291 8.004193742115392 10.467785255449272 -0.8917243965748771 -0.5975516283763515 1.6109316276822128
Ni 5.391073496905614 7.307655049402351 0.6221235140642558 -1.1982981095409169 0.47491617823060145 -0.5593962003525528
Ni 2.1491947178596673 0.7324851485518656 8.367546872297105 -1.345730821236005 0.8597555569777644 -0.14576766528783927
Ni 2.44409883636492 5.057920223819783 0.9971497400710543 -0.6522094249305477 -0.06226209126401535 -0.43741586729229825
Ni 5.119454681381881 4.2392443971240406 0.6497540538541335 0.10152566475032838 0.7484604715454981 1.4066194291912613
Ni 6.44896798695746 8.607249877335668 4.5976397135885305 1.0279931212333457 0.6206843577390729 0.313012526612848
Ni 1.7408900667677114 5.558914034600854 6.8438402287225175 -2.0435714137421064 1.6588729314481818 1.8536643349328914
Ni 7.53427160345863 8.404029332931184 12.779364517270713 -1.1388585753273612 0.3138874730186336 0.464088234377162
Ni 1.6367243155932507 7.209181466191281 2.4627815095296883 -1.2617958729842464 -0.1495171050279425 0.199272836294831
Ni 8.947248512866937 1.127971812336958 6.9592869895981675 0.6148566953137024 -0.07928022308856668 0.8377695396249767
Ni 2.8444602838645268 3.9874882033591077 5.77672110536987 -0.6415923115363337 -0.8752549381649444 -1.165340937888606
Ni 5.88105199399416 7.651463839502309 8.668653332004606 -0.11927964629963973 -0.12627201845707284 -0.9826486316602754
Ni 5.2065439286661706 3.3983903341495445 6.706019649783959 -1.3207026746227835 -1.1391388255719415 -0.17008387343570064
Ni 3.887870651221846 5.857453022113524 6.386927968934432 1.8983498507657242 2.2926658015447545 -1.7137035061348163
Ni 0.010697954571065845 7.496686688899711 0.575071334085513 0.1040707997696853 -1.824199235594239 0.7355612469853268
Ni 8.41021968091082 3.0961426731826083 3.2934431783940483 1.3109350537130584 0.8424196368024782 1.8752708574590735
Ni 4.651635969460376 0.8690971796732375 5.608844588006789 -1.4636629523688147 -0.027511060936075197 -0.19608029749946232
Ni 1.1678446647482608 3.3188568171116364 7.3717080837132425 -0.28633758842482304 -0.07299284741795815 -0.8731535755512253
Ni 0.9030140132236572 1.364893312284821 2.7583517131677717 -0.5575020686536334 -0.697124026055051 0.2842629652839814
Ni 6.236346601135319 2.6073911750229617 9.026025534324623 -0.5824674803497194 0.6480984880859677 -0.6091545027226025
Ni 5.516707116557886 5.022816983786232 9.069017547170969 -0.030445718084366916 -0.36361595059201246 0.7183446259967241
Ni 8.424473164708937 0.8573567372904001 4.408537037311076 -0.49708577234910517 0.4204049345565985 0.8951717316935293
Ni 8.83304535692073 6.565551336314617 11.5995810606887 0.5989814188443425 1.0881582207590161 -0.5236750928018594
Ni 8.567709144935195 8.487003982303525 2.6538150946478845 0.2571008030468927 -0.5984525429240661 0.3900481766416121
Ni 1.8523255559570044 2.9821609305769523 9.659185580859873 1.8791323972970089 0.7768793890078234 -1.4467003563725471
P 0.15897293340608176 0.9772170040877455 9.294293627961316 0.22654915551228083 -0.3071822930843161 -0.5870170473936148
Ni 5.6486602419717835 6.492069783918498 4.604985101161386 -1.532053268017755 -0.19460679827772936 0.1616334286755023
P 3.9845175743733514 3.7837049000473857 10.960411487068601 -0.2781170002872436 0.6644807860987331 -0.8838105410444391
Ni 3.1315688076711328 0.23122564176212995 12.542382128654197 -0.27611128271112445 0.9586455838774587 -2.7263646249967817
P 0.01981095864600448 4.330734234551826 5.230516535558991 0.008516522111443398 -0.10987249405312692 -0.33584083736127324
P 1.6793832858731823 6.346315226943447 12.053793000277622 0.966182258574136 -0.0746388676618134 0.6180314934972582
P 6.3639729408525705 1.9636872406994463 4.988132583988562 1.1520583618470868 0.7704218063079377 -0.43751356921242723
Ni 5.82342917211517 4.952518248160567 12.093598506131173 -0.044446146128517 -1.2608725898390285 -1.5891237877785018
