# total energy = -381165.7423453336 ev
CRYSTAL
PRIMVEC
9.24601204311489 0.00000000000000 0.00000000000000
0.00000000000000 9.24601204311489 0.00000000000000
0.00000000000000 0.00000000000000 13.53247322632416
PRIMCOORD
 96 1
Ni 0.5226243707726493 6.5946442761542565 9.067433854344227 1.0754780541881865 -0.9287020022404909 -0.4826019769106334
Ni 8.925064682170133 6.269979801666101 12.21548004908924 -0.16976119998895922 -1.741809520342413 0.7166713520593593
Ni 5.673898637293575 7.370773037260501 9.330234185403755 -0.07772907655136291 -0.7097576556586616 -1.532109060956355
Ni 7.506375053061699 1.4638471529849533 8.510978324713225 0.943708245841336 -0.5810870550624251 -1.01031447300666
Ni 3.146029639471168 2.7393345442146892 6.931048412408589 -0.9998688521933038 1.4397864028615333 0.905272310462641
Ni 6.8702771476290625 1.6979007073277552 5.384638992950378 -1.2276652498491243 -1.730342143132762 0.8560881354285061
Ni 0.3093170187382292 5.3540420891804805 7.020187367402193 -0.27258861426984665 0.6443788731425355 -1.1969333679829062
Ni 1.8161849421664795 4.941068951599645 12.87392926455855 0.2858349377567916 0.29187625885486507 -0.44564751117347123
Ni 6.5270466805233704 1.2929993384496647 11.742762878690936 0.04279266968549404 0.40992203274740374 -0.0553836189766272
Ni 8.29183304053801 3.4827416679337504 6.871830477688698 -0.9809761290538588 -2.2190144946071912 0.9380204514279393
Ni 7.6768900111556375 4.993244198781301 0.4724860200918122 0.1345370866793425 -0.6764122474289963 0.09110626918921728
Ni 8.606918646325086 8.787151163304001 11.441909659575263 0.19669119161058382 0.24079409546706917 -0.4786838728031497
Ni 4.577377059363171 5.12095936612495 7.440505537122157 -0.06895364435157801 0.12689036876736212 -0.6236285279690614
Ni 5.254721425486462 1.9854147045563157 7.397445008826144 1.0837035274217723 0.6675383419781342 -0.41193572074332285
Ni 7.577005340713776 5.552063933747115 5.123015679251513 1.2795017749044415 0.47874840749249803 1.689391154641697
Ni 4.698518311990152 4.214813180622383 11.411542056909408 0.2644312752700349 -1.2279634978158336 -0.35486108721751786
Ni 1.6365071859231488 7.072533665810655 11.216038826082324 -0.1854035345119065 -0.33675589297637487 -1.0297980356525684
Ni 1.6938786919947728 1.8380610071730006 2.5864073506412093 0.13245989243533962 3.078830729619562 0.5202241581387815
Ni 8.429959217686116 0.42674877124660643 6.415813454633916 0.7119924585264513 -0.7066196242503121 1.342632384816339
Ni 0.5688211464271637 7.947835154414762 13.41175038108129 1.4364336843392167 0.18153788090891315 1.1688121842666581
Ni 3.3421283134877786 0.6069248875507365 1.4520612611574757 2.449768432229439 -0.9324642974964006 -0.5234681189973759
Ni 2.7348779663054996 7.4618462580188405 1.4084459721258777 0.2592790416451341 -1.3449425210067545 -0.5264889081015708
Ni 2.6438324835839397 4.095058829834362 1.487476261915919 -0.2824853045582683 1.438850007090193 1.9467081874644538
Ni 3.0102981794983332 4.851243942496369 5.785457322814572 -1.4015715823547088 1.07586500521396 0.14600472099930983
P -0.07453672783181238 7.44132011080224 6.730010518642831 0.0016046254829585268 0.6738432011502394 -0.2176235708878768
Ni 5.724104483863909 0.22084932423468184 9.748198320402393 -0.11674762390640538 2.3376570215434644 0.35253526729781864
P 8.109233544420608 3.972031390706396 9.082915377271918 -0.27772542127577976 -0.09938702114077078 0.5756414585668216
Ni 1.8968379071081034 0.6508203307538041 12.140171279233742 -2.2395516953285943 -0.867254693568287 0.5999985472549473
P 2.6895447681960443 5.9307251198320925 3.073265372189546 -2.732058847168082 -1.6578727723184417 0.10100861590459378
P 4.199548014381569 2.5629668603603424 1.992548927615923 0.8344641294008273 0.43194893064045614 0.9302508347848495
P 3.0224566856198782 7.675854457782548 12.620452612261733 -0.06873150103844292 0.6775414759374332 0.9856964173476638
Ni 0.2295442741637318 7.444149390553717 2.6749101799913437 -0.2980301942714028 -0.1714308743818983 1.5672652971425136
Ni 6.1261303429292235 5.991813522832128 12.539785778301718 -0.546806022392368 -0.31897774305734744 -1.0126048117027333
Ni 2.9110699759269125 2.408234845193763 13.745339106602538 1.2833864546708285 -0.31445851503075517 -2.1965227412625783
Ni 3.0673090910918277 7.700716984748961 4.151613913023452 -0.11977638343040016 1.286482577097649 -0.3189062663894637
Ni 1.3962772953908476 9.131944206481588 1.9500967869265993 -2.827022799540493 -0.7906455895539802 -0.5253553087177597
Ni 3.1653168210449643 7.020894687340062 8.935262109091388 1.0311118693679855 -1.7512102448310227 1.5943675526759444
Ni 5.756299098552288 5.166662404724795 9.384797677552099 0.33440847579012084 -0.9860041783960697 1.8023458871645734
Ni 7.391530334783594 7.758587775482611 13.33886406643784 0.9444608077366443 0.5362264471043087 -0.06424801134579257
Ni 5.079084176600634 5.234491150662174 4.495351986202203 0.22738322137780195 -1.780755048367675 1.7036602629662014
Ni 6.9852420640665445 5.250033697270779 7.52235031304406 0.5042604357206735 0.1624412692887783 -0.19504645691830927
Ni 7.351485855686704 4.31145250076108 11.273700656938901 -0.269216098253188 0.4767254635251983 0.21905516112808082
Ni 4.893877305025984 2.6505265964599842 4.171912608338462 0.15664574565292377 0.37338151461920854 0.7217004298428346
Ni 8.00400467889262 8.611883754908561 4.320066085782244 0.32748552341804243 0.3191119546423666 0.2363005784720898
Ni 1.0953103503243802 6.550087743074617 4.848373980290949 -0.7379965958996968 -1.2387099376990602 -0.19156903989267007
Ni 1.4661401640253662 2.693964362056195 9.12948014421437 -0.6781078899638644 -0.7126311205517146 -2.068118249843535
Ni 4.6278140562399965 5.840484040177129 2.452463144838181 1.4133806591744948 0.21014114646790263 -2.6445055854374453
Ni 3.5613142801169353 0.5597508084003687 6.150860651920323 0.37834785748554844 -1.750571325695443 1.7803950939250952
Ni 0.8936492753323158 5.61588915637603 1.6475783610029495 0.17852763332767962 0.1770201955442177 -1.3738946852647305
Ni 8.944786426320135 0.9992627749703064 13.281405647850974 -2.401295681440032 -3.732932486476816 -0.09737616135832908
Ni -0.22513392631584067 1.6153985399341857 4.106699559269362 -0.3879568413302221 -1.0311321810829597 -0.5069971179255461
Ni 5.797110996666736 2.7386133552584306 0.382982772215175 -0.19054085573847182 0.843750954019392 -0.673806177264717
Ni 2.0777638750064975 4.8099974818057145 8.196375360766108 1.6381452119825273 0.182377346091073 0.5596257998648556
Ni 0.5415685252916099 4.315354317934686 10.717691709700045 -0.022444702156761347 1.5578707433014911 -0.22817100738641996
Ni 8.594713910142243 8.481089665482424 9.106109923626677 -0.7273830820499085 1.4283236536375723 -1.1150897550425378
Ni 0.8488643657498621 2.656610472526886 13.079324803902319 0.542736994529317 3.5188542097380364 -0.8345929416692078
P 6.235556898023127 7.960798063602904 11.481816373089483 0.2821911703566172 0.32607604466502554 -0.9434508784148914
Ni 4.934430314797159 8.327004871174024 2.525565816168509 0.4739149906595967 0.687638455162119 0.9832980923188162
P 4.491342915286385 7.041106470139832 5.5714685396766095 0.2963466359213928 -0.733890287040807 1.447029714687508
Ni 7.516000151824079 3.4645732538433816 4.415984216964682 1.0009098918633086 0.8549488796177405 -1.162143513997231
P 5.8104067622962265 3.680846726610723 5.897181511955019 0.42951923815304094 0.302637354026111 1.323493092883727
P 6.524725931446178 7.018111637649884 1.5794287784401586 0.42319432437627763 -0.7282618851104361 1.5677404370067194
P 5.827188274547637 9.147200126710143 7.530754013586929 0.6972566949781733 0.16618788081540414 0.09102579366026904
Ni 4.295993168262811 4.769620146267474 -0.044329081178048915 -0.12085264721371446 0.5703640122179661 1.5219372626296757
Ni 5.354670818014142 -0.2577316671387443 5.06224164066831 0.6132651824568665 0.5266328898786027 -0.19792095025262685
Ni 0.3452821572261265 3.9742781716855107 3.13823432653499 0.31021053838767865 -1.1228879109307177 -0.2963121831390316
Ni 6.265495485720132 1.2205475863824213 2.5847291994160684 -0.36962333312835693 0.40900234914661177 1.104993290038484
Ni 4.001184067361324 3.4262670250513203 9.277025234051461 -1.4060118775142494 0.1627217766436746 -1.2582078985226717
Ni 0.6321692748234771 3.356690782796853 5.302767403592922 0.43178540847939834 2.059367500234099 0.8740814866821335
Ni 6.318715532287137 7.127954263295475 4.104696873013904 -0.05407647012942945 -0.34258715494617126 -2.0981998997202638
Ni 3.492801329272337 0.9240862230901206 3.7886727969824667 1.8750168324667387 -2.252490771987766 -1.7420972267861612
Ni 3.493004741542051 1.0094981105418273 8.681730905322238 0.016642493652687468 0.2789883471486034 0.1958193305285918
Ni 2.6366483320581295 7.34717721397367 6.864306997512955 -0.29397299348289374 -0.4111415069768016 -2.3140116142103824
Ni 6.5287109627301225 0.5764056502838202 0.3478830604747885 -0.5666634234379272 -0.38972833140834817 0.4135444599913394
Ni 3.4635561924948113 8.881478980377766 10.665754085033464 -0.11560194033773638 -0.7500697250141469 -1.4340140191541302
Ni 4.190015375741788 6.50379295969015 11.015270915874549 -0.1729208286638635 0.20957936042716163 0.9412019344797147
Ni 1.7534877330332515 8.684002650534454 8.683639282252647 -1.1717062179850015 1.249856184123867 -0.10604874943166252
Ni 6.693474901198508 7.345466701705621 6.492975125346266 -0.07178340049088928 1.2988040747774792 0.5669300468357527
Ni 6.117198695086324 2.7600178736397054 9.660426850622002 0.6725733332988804 0.3168342143517834 0.8899475071801124
Ni 8.818495144864485 2.0485372302534914 1.6957944657349888 -1.2273711156474731 0.8618810879611994 0.7605256302401483
Ni 1.1150413404866437 8.889134678528821 5.156562985533491 0.16005400000352435 0.05644342769970924 0.3558478766108194
Ni 2.5196215548867285 2.686059021574126 11.135506983901301 0.0865916691483154 0.7131687382227395 1.532700928904083
Ni 2.1573073184769536 1.8012896164160548 5.102311083998301 -3.013314135973991 -0.10545251060856034 1.1269258284455173
Ni 2.6505820725335427 3.6052790684119507 3.9365156084143216 0.7183975907218466 1.4447149505114023 -1.6088999419641645
Ni 7.987556023082561 5.510743504958382 2.8400467327537973 -1.448289298126222 1.0223860594592136 -0.693312879839077
Ni 8.585699048189007 2.324780338537441 10.772891327491859 0.1674909158975438 -1.248628739474669 -0.15849822548063028
Ni 7.878138714000918 8.893480304290895 1.982182298670314 0.42381678845162496 -0.1298221977021764 -0.3035976610568513
Ni 7.785419703060346 6.666698449694331 10.358716208317258 -1.231261708951131 -0.4437718914173132 -0.30352387039612244
P 7.874819395599675 2.9722970691108435 12.990511308540258 -0.65088633524375 -0.2023087949076774 0.14604045933325172
Ni 4.076169226787734 0.519865360714346 12.678683072872284 2.1008450506525946 0.9171551779431559 0.7310600166808636
P 2.619265829009837 4.887710214848744 10.410504972186459 0.5580551129436261 0.7445961034940853 -0.13231462510672695
Ni 6.268481947680025 3.6640837063838325 2.553118008101278 -0.20455285374684773 0.8563745563206735 -1.2959848601611292
P 0.8712924176882889 1.7758168526404992 7.054261696382976 -0.13326619038671886 0.5661790276023411 -0.5347277510715951
P 0.9521450964947228 0.8873037371184632 10.165336786506234 -0.40306207240277675 -1.3142988279789687 0.2899700429710877
P 4.4885228815471665 1.9013407150785917 10.95468642054267 0.7477909562822992 -0.6632836804668383 -0.31281506589006125
Ni 4.845280264588843 7.814526149653976 0.2964437958690073 0.38478075759508573 -0.6927868321322779 -1.0825269906151678
