# total energy = -381173.1718735522 ev
CRYSTAL
PRIMVEC
9.22525376247834 0.00000000000000 0.00000000000000

0.00000000000000 9.22525376247834 0.00000000000000

0.00000000000000 0.00000000000000 13.50209138432722

PRIMCOORD
 96 1
Ni 7.165503627688787 6.610964402756475 0.14715755686031318 -0.4890369339026997 -0.26392168262346805 -0.7567597354398128
Ni 2.8382969036952477 9.077188374376561 9.44584704005876 1.8227722733397254 -0.7345158364399479 -0.6387270741733968
Ni 6.9001853313860595 9.081146008212231 0.08320994328899 -0.21370469544944484 0.6815827358863423 1.5114381628705646
Ni 4.4717756746666995 3.0897219679314984 2.288806660110865 -2.1603935996401886 -0.7833958499701025 -0.058825554778640626
Ni 2.374764806475953 3.543309241666288 6.502729113765802 -0.40537760790983096 -0.37045611344229745 0.1351217555382189
Ni 4.3395870144538415 4.05553222789413 4.764685782249394 0.12509496742983614 0.5099469445824895 -0.4240610432519471
Ni 0.19162327967599999 8.274729681612554 6.1806496765210905 0.5549924148579023 -0.6900720043042761 -0.43389345596133655
Ni 4.533935434071699 2.9309461265661905 6.729766297330777 1.1644389948996268 -1.2356300132221558 1.6173375312085567
Ni 7.154857684923372 2.459895447584492 11.859480607932914 -0.16657406051022927 0.7723727593867215 -0.3181313358966521
Ni 2.8326325979257803 2.336867464291961 4.21371949807362 -0.5382105674138731 0.05933489031489136 0.2666318824657795
Ni 5.074941211831686 5.232840654095855 2.8954694909520815 -0.35440034553101546 0.7724105546031923 -1.0421383023854762
Ni 1.2922919882711699 1.580092227831539 9.852975936179483 0.0005728417843344973 0.8689539356475809 0.9475695285689553
Ni 9.119864397975185 4.522791327606688 2.2310178259071254 0.08928052883438817 -2.09853620001376 0.34700610994947334
Ni 2.5786336879082903 7.85427029390082 7.337009396629484 -1.1086609686980584 1.371783809569315 -2.476699452292328
Ni 8.215678832703174 8.172163311018195 1.9132733353742586 -0.8963431262938112 -1.454661777311469 -0.4772692518438103
Ni 3.8601598051159933 1.9947397057146667 9.486961228206617 -1.5386561180462535 1.0237369170601531 0.3101773711568981
Ni 7.063887458225138 8.058166851094244 5.196374148760143 0.478970293695317 1.0689160846999528 -0.22747398131939534
Ni 4.291431190159675 5.492799078001091 10.246601828465078 -1.7074099598166208 1.1644528788566977 1.584431267398839
Ni 1.5673982787455671 8.839933299817675 11.190384950177291 -1.5477974182258891 -1.717379412324507 0.34764014398904647
Ni 0.26290958256265073 3.5153290472057117 11.22986442337018 0.2531251062285963 -0.5228140303531447 -1.1620005606614632
Ni 3.1183663806582014 0.4220055402312171 12.716013125237202 -0.8831860200865629 1.3165642269743776 0.8750595343246864
Ni 1.422829328072408 2.849957624367245 0.36766233828300826 0.6523968583510054 0.0746632931418456 1.0441507048298146
Ni 4.9264884293524265 0.5074452273385788 7.8336158734003964 -0.4423708973047285 -0.10455365294337478 -0.08480141001711203
Ni 4.003815455673229 6.630494264831332 4.384764004329505 -1.3545471339760542 -0.43719269553789863 -0.292759947011399
P 1.842790552084547 6.7884121576028935 5.471371581240926 -0.06880040660316539 1.0334556870098137 -0.09840203151968215
Ni 7.6173381032213 4.5620078810692375 7.868222567590953 1.0057641346318162 1.2082770751304996 0.4023704456523909
P 6.121656946709996 6.279556388974165 7.0218304491495305 0.36296391883031043 0.20380054896185548 0.11837204688370583
Ni 0.8762514970799159 1.9785770612389233 2.9251065409764956 -0.8134859844872635 0.6151947953794115 1.1063580315964947
P 5.215451050878517 0.0721534767340936 1.666536545066417 -0.15099240402188835 0.48970567783495017 -0.236356885631322
P 8.043332643150755 4.410289358781523 4.239373083552015 1.3188895326734447 0.4661880543289843 0.4820731009903569
P 7.60500393902948 2.7576220601219736 1.2296257624382487 -0.7299513569977171 -1.7498390755151088 1.6445930244904
Ni 2.4174685058356657 3.9460745927887095 10.093366674469708 0.4259325492430471 -0.1573707967444064 0.0006088372285924998
Ni 5.04200705613625 3.4638429063272165 11.269993354423283 0.006762515534814159 -0.5922916655289929 1.1588856691815654
Ni 5.412889930484602 1.9741673899721393 0.24898959726045367 0.8280134886794772 -0.43101124931753515 0.9966737422947738
Ni 5.22765606151859 5.592016681503729 12.602568335484284 -0.34376600574562083 0.26892762047849167 -1.0479428248823952
Ni 7.316401102397541 1.0223887408814294 2.890554275782746 -0.7559182133751239 -1.1547593057180177 -1.630075547600515
Ni 6.007319152399287 1.247281975487407 5.448107336469848 0.6606071620759397 -0.1351803766902962 1.2249766472733676
Ni 0.6069838696698437 9.050342886120617 8.531134537794014 -0.3450003923733542 -0.28448973658280685 -0.15378385072409642
Ni 3.7760808429288217 7.5092458056629185 2.1383123289886363 -1.512662779306285 0.4259178939550278 -0.36460762508132044
Ni 0.012761293437954263 0.9147853817689457 1.176185712826898 -0.5778271533642306 0.3519305438342842 -1.1471102738131922
Ni 6.521368738858975 3.1215859941981754 3.3893083916141338 -0.26130249983306614 0.6892091420833485 -0.3838705870759905
Ni 9.203629701536686 5.477162272986031 9.812388510017678 0.3704653694136781 -0.5960182224509606 -0.9080964101749974
Ni 8.901410390449154 6.664996713655122 3.701477138813017 1.2333206483626888 -0.3308780940393592 1.4723584232602838
Ni 1.8576339852817336 5.82304470981768 2.3986056296030447 0.7029334336479766 1.4170249407953017 -0.5715480052237383
Ni 3.5922123115098477 5.661224534732626 6.554265993539627 0.5759769875293693 -0.11264877124668342 0.34392361436940766
Ni 8.206029217336948 6.1515559939393825 6.084771614856478 0.7441441035583313 -0.9621044889603367 -0.058533477459518556
Ni 7.0365622567769925 8.89884576992161 8.649845102356721 0.852772440791712 0.7734924748134614 -0.19988064508215897
Ni 1.137086320086291 5.654434748012221 7.380310892428709 -0.3814221255354979 -0.48707492508032246 -1.0378795271091221
Ni 4.774576176737091 7.991735799227905 6.026995696007913 0.41768573585322255 0.21851060147852042 0.6371607581275414
Ni 4.6412620355732965 0.9789193454649322 3.6929437791440316 0.5290039612139406 -0.83388948784428 -2.00147422746174
Ni 2.7917831745590043 8.819849922521046 4.574495184472415 -0.9200852071057573 -0.7574585612790502 -0.4457313291365292
Ni 7.867942119878589 0.3947569083887494 11.625611201480533 0.11210858247249725 -0.45722827403253513 -1.281068605170929
Ni 6.036037367155558 1.8512316592165703 9.61709450189596 1.193785566382544 -1.3790757152450377 1.575169896701571
Ni 8.472878905753246 7.610659019545251 10.592214887888797 1.73224167414832 0.03857580339066905 0.4006010124567939
Ni 2.532931781097312 1.1630461839873996 7.630990556166307 -0.2621424792358582 1.0422051510676695 -0.9647020744841838
Ni 0.1657685836670282 6.234195816549947 0.5846781287578005 0.79866691719656 -0.17367776143454605 1.6115412362417534
P 1.2127610761562244 8.176877415656953 1.7723114588963138 0.2643052912151319 -0.3504722141212029 -0.3077237674100829
Ni 6.342518745450735 5.715109241572133 4.779591947171716 -0.8241902582786451 1.7241491269481726 -0.5293857700333916
P 3.7920682075843373 4.312234137244607 8.297629528862632 -0.8289234020882564 -0.10096156471674227 0.5221871954024232
Ni 6.091933179300838 4.36263169818695 0.9745724059232824 0.5898516886289324 -0.5720601689734663 -0.9727306012156149
P 2.1054612005764657 3.646779687122874 2.5508961176199234 0.7777911021888153 0.26407800569567424 -0.707719285072394
P 7.944188841677686 2.903547123088474 9.584135438015545 0.8917249107955093 1.1334476887244351 0.39312218758124556
P 3.798175325531222 0.9925542704279167 5.810219762129221 0.015091347115483687 -0.04509920633148362 1.0500439303857982
Ni 0.8876151645828958 3.330528765163422 8.360873255576935 -0.9990700104410922 0.21176454100393852 0.9084306535859645
Ni 2.7112559350448695 0.6010944677101893 1.931365902923247 0.18708297909685845 -0.08311759455678587 -0.10489406700192903
Ni 5.760451363488959 4.294014261194611 9.318818986763556 1.9839716998016026 -1.4978316278307238 -1.971367637884347
Ni 6.556867515081955 3.709262330407241 5.745869004971375 0.5715348925976157 -0.5669578147498945 0.7059380248022552
Ni 8.464382447099045 3.855279645910704 13.22535229715961 0.23848550193855056 0.5204627565121488 1.2196652623627833
Ni 7.292221712459799 4.955852411867433 11.276568192732567 -2.4890518032100943 -0.5260052835969328 -0.7228749097669098
Ni 7.326327475374653 5.927520707927151 2.3290841177484767 -1.1714920450916664 -0.09682774505402678 0.26536741393105906
Ni 1.9855605782869472 4.900916026106558 4.524739701187326 -0.19467416118055506 -1.021529624996189 0.565615184679071
Ni 5.253080860705319 0.6321475941769701 11.876858218320448 0.5858366539322685 0.09709076890742635 -2.002707328537893
Ni 0.0818999572641295 3.3399016229187617 6.204697145330976 -1.0494613184094508 1.3674147339673417 -0.5406351176949656
Ni 2.1083394797296804 6.728281954011058 9.163329180764833 -1.1282221786594377 0.18795715417169567 0.7071238175802402
Ni 6.622560546652599 6.66325314070654 9.53694549778337 -0.3991997612338931 -1.4403224778706614 -1.3176572029282405
Ni 2.513503396813114 7.268291404371856 13.153778166357638 -1.0875995200420687 1.313015847501487 1.1059821363143147
Ni 4.278635763283044 7.025344348282413 8.560258663712919 2.134227739878099 0.595293171359478 -0.742509910389018
Ni 3.6605345403839094 7.7220078316583916 11.203211742916489 0.9303621635517333 -0.5007547365602601 -0.33021937740943774
Ni 8.58883111946079 7.122772252567986 8.180876563134257 -0.08124685989663427 -0.3462527767232166 0.10593150712750787
Ni 6.4231659132629195 7.711241960594926 11.67082970499783 -0.16984373240043651 -0.7473034751229195 0.24768516615994765
Ni 4.752573946671653 7.933146213003335 13.367070644440643 0.47805395252863475 -0.19599725086735278 1.1666743119880487
Ni 0.6393312992302015 1.2968677141044853 12.35153718958086 -0.06102513353312071 0.7695062364722037 -0.0943520298200246
Ni 5.802131059688393 7.681222985067489 3.0844045317010087 1.3169056694741965 0.6428894330812024 0.8024533808221858
Ni 6.981432140688497 2.3755120520253454 7.6402121197610295 0.5204373025908521 -1.6404322082444909 -1.2266422079012487
Ni 8.155816161468529 1.9437148275209812 4.764496664548623 1.0576664799280624 -0.1271536497310778 0.3105527522184458
Ni 2.2309800023669712 5.117838641519019 0.09720188557001742 -0.9051697234465056 -0.17246162963925782 0.07386136606584054
Ni 3.7917914499734513 3.599398784139188 13.346938373299425 0.8709164586905905 -0.6386525121817195 0.4104131134512093
Ni 0.2057111645954679 8.99953941401564 3.663549353291828 0.6896475151723477 0.5334401426084232 0.8531187683875373
P 5.335646881286315 8.365460051714686 9.976236395865158 -0.48143263919288054 1.6835478084870426 -1.0338696346187806
Ni 0.05806466928925608 8.266860540209695 13.083161616889331 0.23818879663373818 0.5025305975137603 -0.5264241163019062
P 7.932731076587006 0.5955962165072537 6.591640263839044 -0.19178732655106323 -0.10299093644194521 -0.03427691890499903
Ni 1.1191063006323962 1.1836554007447118 5.669798485517874 -0.1520262446030414 0.6051428104600481 -0.42077131675708174
P 4.196872339773618 5.743587599732304 0.9436410528052915 -0.7021677591265456 0.1550660598706297 -0.2027407402387734
P 3.1978603917583617 2.4031878131139472 11.66866915058218 -0.8884297849840055 -0.7965951222691958 -0.4600480028695173
P 8.945045840432183 5.663678452215815 12.136003897375048 2.265697500486027 1.8482722173830428 -0.6769920311918664
Ni 1.9119984053134436 6.029921023954977 11.18407948927594 -0.8864227818563055 -0.5042990022680928 2.2747506118272307
