# total energy = -340888.7842421855 ev
CRYSTAL
PRIMVEC
9.10487771871234 0.00000000000000 0.00000000000000

0.00000000000000 9.10487771871234 0.00000000000000

0.00000000000000 0.00000000000000 13.32590887647713

PRIMCOORD
 96 1
Ni 6.643164472618924 1.8857476033397829 11.446396175107049 0.10329355528402857 -0.46534293271986954 0.5527622399758028
Ni 4.644306975808443 0.3395500184481551 5.790627444758706 -0.0780401800338785 -0.45916380049235117 1.192849684831836
Ni 2.675550204089657 1.6250567500955568 4.649716183544975 -0.16202860723139192 -0.3997270944922729 1.0621648820190481
Ni 3.3806228146086443 4.164489035213393 4.425627848431761 -0.07558220541168918 0.8768227968726963 0.2540000526343819
Ni 4.828917472468821 4.621080433246763 2.407551776145312 1.2685925841911054 0.5641853942110799 0.023290080876192148
Ni 7.259464527286724 5.8696140782479596 2.7413793790701364 -0.8220914667680874 0.5575275225749302 -0.3767638008278802
Ni 4.972100776398644 4.727816912451222 11.08636928710922 -0.116558904934367 1.2258834753583534 2.123839711775555
Ni 5.887559791846185 8.045160828273636 12.763342048842055 -1.219992306684899 -0.16831469735041982 -0.888184758852735
Ni 1.755684427920889 6.821328715992878 0.38630447501753296 -0.6466491572339509 -1.1678153675710277 -0.7169896546307265
Ni 2.7173506967986625 1.5200228829879363 0.2621303343806439 0.347623174708182 0.8762008470179813 0.3825688375454314
Ni 0.5372724492296912 0.036605249594268204 4.775632087252053 0.17747836612755885 -0.28101386221906444 0.0727467928454231
Ni 8.504338011523593 2.43702972761442 1.48355966948303 0.7942937278295289 -0.40680199906118325 -0.11753026770870081
Ni 7.016227724254469 0.7300654993201675 4.7780448797957 -0.922071898518483 0.2875740319350854 1.1435143289318177
Ni 0.8473718308413076 7.449219279747709 2.543356487330335 -3.0148444565755885 1.5504556817843427 -0.10720137497886698
Ni 7.534823338220823 3.704747349556996 4.014323200711028 0.13625098404665567 0.19861591943712245 -0.9413304896377788
Ni 7.731388539069161 3.8905961095605286 12.699190902789102 0.2352842213924335 -0.7460600896341216 0.4659777380903911
Ni 8.354580986022022 8.515764632815209 7.229065162212268 -0.34355260418323413 1.4873050172677869 0.0003890079083025559
Ni 6.881584795441406 0.867052934095454 0.4472197475987418 0.03585531913571244 0.07735832347550547 0.5915856406009038
Ni 2.1491335003308762 6.748398647032055 9.339876233048 -0.23658802780552154 -0.992101292432743 -0.7802416206118369
Ni -0.03654151545160581 4.830629189443182 1.3922377479253465 0.6081628282332946 0.26993883535182545 0.001649105567648773
Ni 6.613655564566237 1.5103079786706832 7.084719165422731 -1.4025108063395266 -0.3010286147780945 -0.838426199372369
Ni 3.470906780128683 4.5822208159777515 13.69876715021022 -0.5952792874024071 -0.40995674264008103 0.0009842182901402404
Ni 6.218913599547957 5.852715425564903 5.098559330806104 -0.6999949198449429 1.4163978487342639 -1.418613368328344
Ni 5.104667793136418 2.9941480783814276 9.73139142947206 0.05704815116324368 -2.1029425566115716 -2.4434409473495147
P 0.06836943580945164 5.684065779202692 12.615598111760862 0.7620418097743585 -0.16305859115780302 -0.8569522832010145
P 4.019302658228466 6.3721942126510065 12.583495224101815 -0.12546340651284846 -0.3736867045644532 -0.3475208448023627
P 2.176402608512856 8.80174883581888 1.237067872736232 1.1152440212322148 -0.3686329441906296 1.2217406568345732
P 6.634869929195291 8.073677304676293 6.031239311601022 -0.6550463801587105 -0.9893640960072382 -0.7514010422310609
P 4.937301934504979 1.1304433835253087 12.807557155070214 -1.0249270807135122 0.04460992539989091 -0.0028516105161821856
P 4.445074045845808 6.166988483033154 8.14042425131111 -0.9876188311813571 -0.06092871716457248 0.04433147492752365
P 4.5556254687324875 1.0348239597766755 3.757612999919945 0.9208002308949109 -0.4401008703236291 0.9238279619776413
P 0.1766455498030833 5.622881002246797 3.490189089747313 0.19073163159303924 -0.9351302743643379 0.9320868595523237
Ni 1.2921095888272256 1.2847801624210506 2.671165295074485 0.8977358928762798 -0.0589872771674855 -0.8255812250889007
Ni 1.8629580948992164 6.237951898448965 4.803283600290007 0.3649624373175779 0.9089484737626474 -0.5109612447796168
Ni 6.292945358689085 5.743957663550294 9.249699705082735 -0.5166433827660586 0.22195176594958546 -0.2291364566234828
Ni 8.811390901115947 2.2120846235262723 10.120054978255853 -0.051529792448175765 -0.142364038922929 0.020534115397609798
Ni 2.6564390661684634 5.070269565853772 6.736326489924046 -1.251201899518484 0.9715628061597591 1.9917659990350407
Ni 0.7936466800401689 8.864900266319788 9.119479015282689 0.2705139911290051 0.9530354367795327 0.17935707120751046
Ni 1.3507450000766255 0.9571138301161743 11.411202181528877 0.8175367575178694 0.5120285097018665 0.3078839471370311
Ni 4.158525340435697 7.025815160286397 1.6582631489104147 0.7191036156499357 -0.561052247898737 -1.1229218494924467
Ni 5.4968330778156345 8.170079747891922 7.976462706385596 1.8902351920783897 -1.2056638058773688 0.20102787131272473
Ni 5.06550771490914 2.7433633318824415 5.271782357148217 1.0840007469472168 -0.89303385941492 -0.7101662039509898
Ni 1.0681204968790132 7.083649342313755 6.99391622188387 0.7243959743971267 1.1871297516289232 -0.47939966792325184
Ni 4.848820734734534 4.607678053532615 6.597870438404268 0.47229776677114793 0.2310735257451956 1.5237905137883305
Ni 8.468756150162934 6.965631919858053 9.451001263218641 0.5356163243241355 0.12674587276969784 -0.26799790957537073
Ni 4.693473314433716 0.6569378545170922 10.570376757626748 0.6377767944449855 -1.1710169052274608 0.40807700911886496
Ni 8.448124497695366 6.951200688983784 5.0311704903059 -0.4645767439778064 1.7239850905664824 -0.857833400254387
Ni 7.5586781173316036 6.177003848308672 7.172270757198058 -0.13077839096785862 -0.34548555953988885 0.48548444066475105
Ni 2.204655043467342 5.697276956488854 2.434430285081547 1.4324525882042813 -2.634341243309934 0.20979456176176128
Ni 2.269591029962795 5.400703780925701 11.447168268721015 -0.17563719915376205 -0.42032651591017933 0.43943906836991414
Ni 1.0248723286438193 3.364944215513696 4.0570059560520315 -0.47034090015509317 0.6279073578500735 -1.3448916131641613
Ni 3.7818474524234427 2.6024198278233253 2.602563684888192 -1.4472932527615396 0.2485791387291267 -1.2689875056366788
Ni 1.1405042731884434 3.2445322102693925 8.385434684484885 -0.3439616666961947 0.48157019321200933 -0.9420668535831711
Ni 3.383363382743127 2.6257101045276676 7.236341780328808 1.9623698052611105 0.8038808572973317 -0.6981069587936106
Ni 3.9772563338263343 6.939555550631613 6.028334855671121 0.4582767699017075 0.7440785404277185 -0.3319857252812412
Ni 1.0086292271424329 7.608427168118362 11.401806858412687 0.07726704931327982 -0.8634476611173709 -0.0297998569702519
P 0.625200072446726 5.452282912094622 8.185159246045844 -0.7460161237700635 -0.2724914265703501 0.5728908924048778
P 8.454680009512067 1.779921611887644 7.9515162524597836 1.7819513826686213 -1.34576501690805 1.092114634303603
P 1.8839721522227593 3.243721876169828 10.468020634998702 -0.7630332271533504 -0.12390583221774146 1.0239559750494946
P 4.154910704058988 6.2123398779762065 3.7612777131230324 -0.48154345373913193 -0.3313383215052294 0.7083672030690381
P 6.924541607595858 3.694686459893861 10.406135692961271 1.1350625986200387 1.9728223680530026 0.2426247209179047
P 6.684564350716909 7.772223914760707 10.458160052641077 -0.956786933402165 -0.2853585123410053 -0.17181191187040087
P 2.4823811225574732 8.678414164889631 5.769572415486309 -0.5786781885106163 -0.4349149552473155 -0.12322783231411034
P 6.943843947945039 3.845253819494999 1.6370214696487921 -1.3223548655142259 1.7917822527161142 -0.1486429299531053
Ni 5.4754001961260235 3.2322861500006903 0.07511341859088493 -0.31922379762988246 -0.7687714151887083 0.5529507018375251
Ni 1.449824277284074 1.2052763718884791 6.955844176520615 -0.916421899321557 -0.5229258733406607 0.23854103776683433
Ni 7.15798156241315 0.507475827047271 9.349844252960398 -0.2874467623286017 -0.2916592577480525 0.0711568226504839
Ni 2.9897959469253386 1.6428294710208409 9.207003292425448 -1.7168153122909209 -0.5782195037066429 1.8526397503231191
Ni 6.2111835585307595 2.029841395021926 2.7103699872016263 0.6372869992927606 0.020434613705268036 -0.3561178424427544
Ni 4.34776111487786 7.008279166176717 10.373486512650834 0.6518965216758192 0.6942143086074237 0.20420601193039029
Ni 8.139478254536451 7.389728010011128 0.2750346772942735 -0.23860840066966002 -1.5095913394698128 0.6922150187892079
Ni 7.110099011518648 3.6946955647713846 8.125712590209126 0.8672194694549774 0.015573943178857049 0.12520192532134566
Ni 3.076856785802165 8.341278759960627 12.570022736830738 1.8050823122591302 0.98672871526692 -0.9455386141818555
Ni 9.032120446910856 4.588985739977487 10.20299494956568 0.5404320005452241 0.7611984879374568 0.0564043469316577
Ni 8.612676949172135 2.5969113769217897 5.909560817893242 0.12340832375603263 -0.7425608182316115 0.31625237370638437
Ni 3.6859730921041605 2.7728904496901747 11.633238277248362 -0.7583509911863326 -0.3519233447454326 0.5450782410679839
Ni 1.0553372488364423 3.4194824318776567 12.798975808004599 0.7598825973395107 0.1361021171736172 -0.549397694378944
Ni 3.1822275333781436 8.538772658316331 7.9759692220238385 -1.0075376815924713 -0.2340323512632034 -0.44628488764715396
Ni 5.52030545207044 8.005317884232117 3.934807573837677 0.14500636164178254 -0.21098961051112694 -0.8831052874472985
Ni 2.8326457608749283 8.088317947733596 3.3506796038981004 1.1275313232400002 1.376228732714546 1.4212811449684941
Ni 3.3006819899549593 4.413835211063714 9.286745630749126 -0.05692885197656002 0.7936758917398719 -0.8663455514904563
Ni 7.268232524341563 5.774677520313567 11.435761678159954 0.11791207652815178 1.5428436737650397 0.3124515119030555
Ni 0.21869005322971044 9.306823706663284 0.6050200219043083 0.43337075068864717 0.8252814344602949 -0.4517641655941703
Ni 4.533382252943313 0.2790745114513168 1.7866182493059568 0.1839405768131348 -0.048120766766626806 -1.512698774750543
Ni 5.848144777048257 5.681825979331985 0.16693792938784882 0.5142090622929532 -0.20709336078051432 0.8877947225031678
Ni 8.182025347202359 8.829791858590331 11.719376792032088 -0.7055346187162495 0.7342039616264839 -0.7227818358324712
Ni 0.0890766587604625 4.931656910440595 5.831603946051862 0.36124950724236493 -0.7455564105248257 0.8655577654818384
Ni 7.853211800329559 8.86468174925923 2.8117400515939117 0.28519576151089593 -0.6823108723016185 -1.1116601605356986
P 8.496507816853642 1.6732397619483244 3.6163854236821047 0.5396858664078189 0.8526739675406346 0.4263053592014336
P 1.9157845942888156 3.474412157975115 1.5892345199682836 -0.21851111569915269 -0.5477197924558891 0.1065711975940358
P 4.765629468805066 1.052669519722145 8.168115825810169 0.5945853466591761 1.2010165369133445 0.09221775708584118
P 8.617630002544756 1.8133365123977836 12.426170224402961 -0.02604733190635514 -0.8704734576159009 0.9784579906176956
P 6.391551182265327 7.702571601708237 1.6513461734560406 -0.5250007535918185 0.07313708630530631 -0.4504109940003856
P 1.813728022131281 3.3317023076764976 6.095950407621652 -1.3947666436177333 -1.4938950117804788 -1.8386802028192335
P 6.826072357182464 4.103996228949261 6.024070131039255 1.0146629797833426 -1.180686824217057 0.26883017566867895
P 2.8267913246275116 8.654805217471976 10.254006846864906 -1.716404192895431 0.3539228916739647 0.3742217511323168
