# total energy = -340894.4611794566 ev
CRYSTAL
PRIMVEC
9.02189601775379 0.00000000000000 0.00000000000000
0.00000000000000 9.02189601775379 0.00000000000000
0.00000000000000 0.00000000000000 13.20445676921389
PRIMCOORD
 96 1
Ni 6.512518915716619 1.923044237905492 11.437251766777417 0.6164669772236158 0.21673088387027836 0.1416670128559044
Ni 4.388620203004346 0.31882118058693526 6.0287982231961665 0.33996282994944677 -0.16227389047297858 0.21025324656573469
Ni 2.6919533842181 1.6987869643901445 4.751742502626955 -0.07184407852549562 -0.6605230870025657 0.644360104089458
Ni 3.1243277589706047 4.357251069962834 4.732174009797782 0.1636859403291568 -0.3235854170326879 0.40574347588968185
Ni 4.806081383360066 4.623171460068835 2.375257762372775 0.4618955976012174 -0.5723296205847692 -0.002316049727686334
Ni 6.9289335561146705 6.082418058803189 2.7109940961203463 0.30969117554909886 0.25506114690904463 -0.17744391334519763
Ni 5.174824324307054 4.456482906121473 11.49193167518639 0.662959207247884 0.705489624410927 -0.18740410988170306
Ni 6.074587052913045 7.95803418845466 12.322557808933677 -1.8523430450183065 0.5173476079219349 -0.43492832498375417
Ni 1.7620214347634426 6.482602307961183 0.3908005749341008 1.1308791566663106 0.29166054329963315 -0.309793248344602
Ni 2.978849682958416 1.6108505422573818 0.45098925315473437 0.10870135656316118 -0.8324177883947599 0.6467358034104861
Ni 0.5197072320303708 -0.12060290384593712 4.5054266929348765 1.7152237994340847 1.8053054840135294 0.1353032754214057
Ni 8.570269085587258 2.4242737243556727 1.5252074861353038 0.527169479108363 0.472875750761805 -0.26662442626661176
Ni 6.9154458213154015 0.5257979141460811 4.974013154601969 -1.1768887906272054 0.5959225774133607 -2.058252927013681
Ni 0.879755771622137 7.273281289772545 2.4455311161510163 0.4210685362825264 0.7236410985089731 0.03339297363814894
Ni 7.590103218164485 4.118351258936307 3.902141516819587 -0.49848650935137373 -0.9447947940372955 0.016753565309255015
Ni 7.473008027555977 3.9905200118655033 12.71512667552039 0.9512665178045681 -1.0470393392315194 -0.1568105533655622
Ni 7.587171101903774 8.760143912734701 6.972732155532741 1.1649658139373744 -0.4911853477042702 1.0580063797659844
Ni 6.9146879820357094 0.8408723012466374 0.5072200255182177 -0.24074704427921764 0.21505812415354578 -0.7450514458639491
Ni 1.8217644313124481 6.53562399185102 9.069349556365742 1.0516724671281565 -0.4070097441966151 0.42527460394407407
Ni -0.1681320573372495 5.111057562058735 1.411411602962309 -0.0029693670409690794 -0.7842574266394493 0.2395882480844261
Ni 6.173728670109816 2.091825871768191 6.980444072393219 0.13837677214040683 -0.9434655337029106 0.7154351656594131
Ni 3.3084285725584945 4.434496545114237 0.2623134360105171 1.0272629279355405 -0.012717447566668422 1.2780886966069989
Ni 5.578319609365605 5.530214858897574 4.914909810492608 0.765495572650914 0.06391119683166413 -0.3097685657542536
Ni 5.399677042970731 2.75712756227156 9.428470645029506 -0.2537025759986211 0.07830423232854257 -0.3014731585146808
P 0.15994468654772634 5.5723110265051945 12.485870369327936 0.7213085937210545 -0.6844181484526083 -0.04950556292929539
P 4.0342942521638685 6.446559832694907 12.581259779900616 0.1523736006401311 -1.5937193775689842 0.024190995423906722
P 2.5071488627276395 8.418132850189208 1.44693080824975 -0.10450891574836839 1.0646891911027987 -0.3598803948089802
P 6.168802714791822 7.536928162039472 5.707428356936458 -0.009682260284770422 0.17848906678026036 -0.4696292188000493
P 4.721176318346069 1.1031072467603293 12.422581767577517 1.0393216588722876 -0.12503351806428145 0.7933002535680079
P 3.9683983224154638 6.1154833083278195 8.171247758847743 -0.6109751008711091 0.3009370835055527 -0.38750304162225524
P 4.742007876641396 0.9675893441383705 3.937305259397268 0.5748338750638616 0.6377243439404953 0.2892773877794373
P 0.031453938865667885 5.755545738059151 3.5507179099824038 0.10377178047202774 -1.401514246754212 0.8308108489189562
Ni 1.5548696764182726 1.1055612025231396 2.6631807528991494 -0.35334722167615273 -0.024647880455667227 -1.4864285282001046
Ni 1.7370758918069338 6.493933809571807 4.816009077924024 0.12334841705237468 0.07512532037992868 -0.694838572454984
Ni 5.9290909331084825 5.331633901929867 9.091546127554132 0.6562527417619859 0.7720076627378188 0.6679790290599786
Ni 8.733592472256943 2.033661707051876 10.166151399881116 0.20852032303502796 1.0220692995497431 -0.2604517217969966
Ni 2.3170755538640866 5.0119069229657764 7.002812059609159 -0.44046468142095113 0.5078363259973899 0.40388302564217543
Ni 0.7002281572113375 8.896933902718999 9.105767342513388 -0.8044120472104533 0.5098780390177671 0.2951747271004787
Ni 1.755155771765286 1.3820732987524462 11.604617865128407 -1.25638035839563 -0.7058210396084166 -2.0851870324003636
Ni 4.173691570146152 6.957551010819208 1.6156447778910483 -0.21924362298980307 0.08999323863069661 -0.8654286961031418
Ni 5.763548159976844 7.450787097247883 7.8188209171545875 -1.5289792570781215 0.5910354245243885 1.0692279595134166
Ni 4.995270546397313 3.01963767561895 5.037130340324839 0.808342492613111 -0.9033326702377668 -0.9318783430859435
Ni 0.6305466398229504 7.427014400795658 7.062575806519393 0.06476043220583685 -0.3008566079766044 -0.7715399790727809
Ni 4.906089102590771 4.41947508796321 7.047654492416041 0.16459173997287782 0.49235134298791333 0.03716735307891663
Ni 8.133663441523142 6.9098251799910235 8.987785299509719 0.1534084696625487 0.6289404271002781 0.8197751599300849
Ni 4.798457881082219 0.31210077011738613 10.32358799928891 -1.1534976653967748 -0.7286874026836289 0.7811949856640418
Ni 8.21741370382523 7.310271064138435 4.825476655782454 -2.0153514996644644 -2.0230059308859287 0.13846650364073573
Ni 7.448549666993555 6.013012611438118 6.8409384916566935 -1.1615765857501672 -0.3027347988359238 0.3903065725093214
Ni 2.19898795467503 5.067851701220138 2.6541615632812032 -0.40242263904656494 0.05718133430699829 -1.358617704501002
Ni 2.4690945046117068 5.238482823801132 11.452503282281207 -0.24013717860936062 0.22193531088935325 -1.0254338451466016
Ni 0.8864328769899895 3.215593260796298 3.682934700789612 0.23322888152530155 0.7510182049703453 0.32759299553018423
Ni 3.748642975097331 2.4990291561595175 2.7341939021647086 -0.041908467308327826 0.6587276856650397 -0.3552498380155043
Ni 1.120420265542803 3.01698523814003 8.159509369719094 -0.8096211022152187 1.2314031196250017 -0.03891107524290073
Ni 3.406658978240399 2.690482815139651 7.04415489888518 0.153562992962542 -0.7378248462085228 -0.06652009520942093
Ni 3.780905275861336 6.805874892126686 6.018723471724364 1.2463309445794277 0.2637175370324619 0.24339348076312917
Ni 0.9104807412759113 7.227314728700787 11.250263044220134 -0.12892411136793924 0.10970151569290139 -0.04927802029952158
P 0.3271041834760386 5.327357523137323 7.979030847450206 -0.0034218811973553967 0.29848527953095044 -0.14864807215942788
P 8.44812163311414 1.52810171043203 7.83605273887138 -0.41178531120838757 -0.4663814012867129 1.4838299142349929
P 1.8768431075328766 3.323016978692554 10.224871313402538 0.5870080485325503 -0.6939052620074372 0.9572605306044741
P 3.887526044996967 6.073134527626968 3.639227222523029 -0.7249449049220612 1.1583362244359985 0.7549604774475449
P 7.11898882118585 3.9212859805279816 10.313090120885947 -0.4855001243940347 -0.20983132853696768 1.0783348069106913
P 6.41455916692032 7.633931589839971 10.131039984301317 0.04534268980085739 0.3340382369348957 -0.05181775600223979
P 2.251820178744945 8.380710024806353 5.800466661362859 -0.141826164141588 0.47499639664923354 -0.520648904381026
P 6.833157106195577 3.992676245054149 1.7027150979898782 -0.18603705433084736 0.44742851433329395 -0.39892259631310656
Ni 5.262291607838104 2.893114603495233 0.49456140297851525 0.011120021172561494 -0.08564241786116863 -0.13855906335454202
Ni 1.3689374179044622 1.0278375668738369 6.873408296032996 -0.432208612059746 0.36128858801041647 -0.4870283881131031
Ni 6.832327091746391 0.6814941897794423 9.191966147440574 0.46018555688864615 -0.4515111690430998 -0.5371013935100943
Ni 2.756685489358407 1.6003400331997566 9.150582709631712 0.040246249114556494 -0.7771182444915068 1.0691377137924556
Ni 6.2917260503370045 2.156684283455114 2.79251775444353 0.920796117129853 -0.10966937690338534 0.30404631855849573
Ni 4.216004263262255 6.780207597475234 10.339222043191022 0.16213582223321754 0.578425706180178 0.028569584107576602
Ni 8.145870067063887 7.421718547734005 0.12648788672858832 0.5270915746825761 -0.5129697905692133 0.9520974983462959
Ni 7.693683608285163 3.744339530616226 8.163879576231981 0.5380735276153765 -0.16143622506303162 0.06024017573798012
Ni 3.079813723184922 8.507909739144079 12.399473984874259 1.3216061602736595 -0.8571240328921885 -0.03763992183996098
Ni 0.28403455326986254 4.7118837652736625 10.303781328400405 -0.9674788658983725 0.11820492517822224 -0.2971760738012237
Ni 8.436618715475968 2.3357959884517014 5.804613124850313 0.43951748701633336 0.7466321600875077 -0.40382260471788517
Ni 3.5668968764141966 2.7880816880884796 11.559709572479361 0.792016758869894 0.6603137992052369 -0.5255967353046045
Ni 1.2389138500602659 3.457271815848361 12.728146173907565 -1.4288993236353842 0.2714946098747195 0.04491511534513555
Ni 2.8387035475926274 8.48816080839117 7.893902039410776 1.810498598178695 -0.7989577089641015 0.7582964837993134
Ni 5.389536431656765 7.82686483979474 3.537684878750949 0.7049733468961407 -0.14927053623477518 1.658865218138698
Ni 3.057574749084454 8.452208552086761 3.5716342741018865 -0.1573592267801806 -0.5848223537351412 0.8485293492446419
Ni 3.650394525623053 4.314288800321281 9.301774352499 -0.8872735598923751 -0.2811557871135674 0.25774512149911094
Ni 7.435684443031175 6.040385044468876 11.36813953103842 -0.9798643840469189 -0.07251616489185575 -1.0478708339938791
Ni 0.8631789395685063 0.09998606667985627 0.12773200621274838 -0.46999071590452607 -0.5590868966422501 0.8251284538221982
Ni 4.878572319221024 0.4363016061626201 1.7702818829120788 -0.9008070756024358 -0.33357723813807716 -0.7366503662844475
Ni 5.990304498735936 5.747020046162623 0.285655788014631 -0.33270152040134315 0.36644390695911083 0.6514326946655232
Ni 8.257380703932764 8.829874148362498 11.349785385435988 -0.8165468828007744 0.7149255730128461 -0.5927320955005211
Ni 9.07575690703761 4.931765419138411 5.683000670821073 0.8785999433777771 -1.089757446925336 -0.09291092649812385
Ni 8.344144279561242 8.87698649024998 2.1570009520112703 -0.7557338652784598 0.7284452047658359 0.9316546571109117
P 8.447796844851416 1.6006197119815475 3.6402178267243395 -0.8238313322773295 -0.43700269101427963 -0.2513942395804186
P 1.9535562908092576 3.0811579857167555 1.5980565912748772 -0.9211732979636136 1.0495474503653537 0.6978238803355531
P 4.643786492855678 1.0035686661313385 8.258952318248504 0.6108838267088834 0.2292367296467729 -1.533510826399888
P 8.607529516838753 1.7194831942426694 12.445121170821006 -0.1596076564947251 0.24137850721562942 0.34465457899816127
P 6.42812809878527 7.848779025632483 1.5412114277810727 0.1100684121140169 0.12224541379618303 -0.9457535584061388
P 1.5940156839728084 3.231986046167718 5.871494245662317 -0.12677492623542036 -0.5894783644499137 0.08890180533873075
P 6.849955876895403 3.9684524537925845 6.098835203294313 -0.3457928063676625 0.4747305445823566 -1.3300350077673029
P 2.483493450925844 8.482107116049825 10.275100720422559 -0.0828928801404895 0.45174231121729935 -0.5747999365021327
