# total energy = -381166.0032512115 ev
CRYSTAL
PRIMVEC
9.23603221472887 0.00000000000000 0.00000000000000
0.00000000000000 9.23603221472887 0.00000000000000
0.00000000000000 0.00000000000000 13.51786673869765
PRIMCOORD
 96 1
Ni 2.825985648308163 1.6228539427486617 11.193185021360705 0.3956675797109186 0.21796552760832788 0.5058028405071289
Ni 2.069314492512917 5.333660690540997 5.616322060389261 0.9754783391640812 -1.817608983971231 1.345299133015225
Ni 4.522062852575082 4.760629558555982 11.751891991351693 -0.7151716275853812 0.16885540034523822 0.47640458985066986
Ni 0.8663130150042996 6.956320676618129 4.9058098216083685 -0.038780977422939664 1.4396125962878303 0.02179652704980117
Ni 2.0173156324791397 8.082072906269463 6.760054997094548 0.18837881509014653 0.06580430008931892 0.12120154591270094
Ni 4.694859774843631 1.7935912298862116 2.0748847433985955 0.8796548670048528 1.2699174736501162 -0.15128396712037817
Ni 6.541105623034028 6.946114861282904 7.584604522702625 -0.935760194638853 -1.1759074005505425 -0.23025848604306795
Ni 8.552962760614419 8.006180431509685 6.873294290758869 0.32823242888639603 0.4896262307472664 -1.3371479646630002
Ni 0.9724710429514101 5.653883155235685 10.515142976600194 -1.1456195482002787 -0.44288100417192755 -1.8808084994478511
Ni 2.168435587696309 3.0524531523984324 7.924457249762461 -0.560310484636706 0.02924604134931092 -0.0823532055869356
Ni 6.592614973372994 3.9251658139599974 12.475098232482573 0.7402339698706477 -1.8161925632396785 -1.9741709116610968
Ni 3.4059438042763643 1.1736410554550871 6.471380970428879 -0.9555016389318383 -0.2347751429664989 1.5315429040402397
Ni 6.630612008928759 2.7316118735612474 0.7791765949150158 1.2497361136062348 -1.0126809163563077 1.3069094774934331
Ni 2.3729213356799375 2.059274925753287 1.7278944108264849 -0.13105067079263882 0.24220357422008612 -0.5448257587375456
Ni 8.236998106661396 5.607933896147223 5.814818241635429 0.029233185833504493 1.753692387822928 1.374355426951233
Ni 8.059047478549354 4.866603789466738 0.9910188423687869 1.1799815706199162 -0.5026329274195795 -0.41043805315187376
Ni 0.47379181559231115 0.5767800373647161 5.340503666633187 -0.13370276370350523 0.18150882744319063 1.8189724399776608
Ni 8.251517148930152 1.0225118642059403 0.7551176552166169 -1.4126658924956574 0.4886692661506358 -1.2841382452351884
Ni 2.8211182594559783 6.472851346719709 11.523386095003971 1.1099128388272883 -0.7860538564182399 -1.9426021357158803
Ni 4.355777332850725 7.195423072453729 5.979912313234678 0.01938534650514726 -0.9729113497678537 -0.1123402388673291
Ni 4.021867068765264 3.878939473912208 6.641773753573665 0.20963283937291638 0.526077788706081 -1.7175989845344808
Ni 0.33122073157359017 6.710023411871995 2.5574591017983876 -0.2571496540069571 0.2579225276172397 -1.1689988463561674
Ni 4.486993639156209 3.121455547302935 13.552066664831523 -1.228080483009672 0.44905807951691695 -0.09628498517667933
Ni 8.782681347960796 4.293563421449744 8.817785658301183 0.25381313343455647 -0.22692273680161562 -1.058945346640486
P 7.0535206771501855 8.079209736356413 9.104850768196357 1.2096004219276135 2.0662511147278093 0.7648232291742377
Ni 0.4225946431341878 6.297560695817213 13.016989159051978 0.8906257641940598 -1.7021728797873976 0.12471804370639167
P 2.711837529097248 7.979811560213693 9.708991626691457 -0.4516273829059899 0.3988431492254228 -0.8568646085832146
Ni 0.7759726154219933 1.9761414019230867 3.4197636789244177 -0.9156264000034553 1.2876550001391953 -0.005115981070326673
P 0.4740384176461125 4.3223706051878175 6.93858564801478 1.5385075082835311 0.7859378996656657 -0.6986900849905903
P 6.689168451666618 7.039306423936689 5.571956780784954 -0.8047252075754979 1.1898360948164928 -2.976983676974073
P 7.8320535206363635 1.6941006934237162 12.296622074151006 -0.45274015635419446 1.1291043241540748 -1.2759042873611703
Ni 5.737090567321706 5.1678923886073855 0.6101211892005833 -0.8176383160927403 1.1461147426691423 0.5836638146506657
Ni 5.540695583350438 8.494240069300963 4.211126294430653 -1.1655527967890957 -0.759049559915254 -0.4410341807711759
Ni 5.843692848406938 0.7524262754983498 11.8491935882355 -0.41157602341105887 2.4611926149059804 2.32498713938528
Ni 0.29638149535095937 6.828124552769315 8.50372455053874 0.8081571160751824 -0.4864272641939945 -0.2610911551532084
Ni 5.489241649203338 0.8935888646404898 7.430271351960455 0.4801108350576635 1.872598709943549 -0.3647356660187525
Ni 6.058836977292694 4.410768667245239 10.079705631001183 -0.7477349062333832 1.9660125442200205 1.2001894130263588
Ni 8.476774732831359 0.8371280775583436 10.025188105047118 -0.05421402414855824 0.8902287858659571 1.7265765054427427
Ni 0.175661015784798 7.702462755958933 10.755287196842865 0.9942111396868942 1.4383797523219937 0.631749357303983
Ni 8.294787958745117 8.204865951411394 4.350590377292116 -1.1936207586699057 -0.5781074036088107 -1.2677307504114423
Ni 3.395950417676622 9.241573596766875 2.633834621030593 0.45058377213282397 -2.9246763829299245 -2.50538293626995
Ni 4.342163421715772 8.45215147157913 7.960847215754129 -2.0939184987360906 -2.588411313547039 1.101322011834484
Ni 8.356392292035576 4.082030581067222 10.982820539023347 0.6232045530577655 -0.6633374165229092 1.7760833539236187
Ni 6.822712238030452 8.295554549399254 2.1973563746277063 0.07212689987323707 0.863537649728016 -0.22682297799895776
Ni 8.298482371536148 3.451856119236916 5.3980487638695 0.9490502268795398 -2.042277634631347 -1.8261183069938227
Ni 4.447555782611941 6.844546217625453 2.3107037298661655 0.7761895620296503 0.48237109184674987 -0.6858880481299156
Ni 7.21466172706303 5.98854153791133 2.9594795600993176 0.05032934438217139 1.4891484982344287 1.1563760153858342
Ni 4.748290219833934 5.794917363533337 8.29043963489007 -2.194528336540369 -0.042701652633584525 0.6723414197937324
Ni 6.558958872846691 4.599285315939631 7.898786622483975 0.7387617562004953 -0.7085363816570508 -1.3897002848384195
Ni 6.842745191389824 2.5520634119170857 9.342873471893778 0.7956080757655781 -2.047719374472209 -0.6333547541178899
Ni 1.610523840058592 4.148409942890092 11.9324102363535 0.46454357674702573 -0.6158697099592491 2.1873505878450072
Ni 3.6938863372094084 1.3396217861241833 4.288475291433295 -1.505170070473666 0.9847227405804847 -0.6478110387525359
Ni 2.897925101381536 4.287689305112003 10.02978395455916 0.912420491471648 -0.4371798400220922 -0.05931843525465914
Ni 7.211161270943526 8.42305797084975 11.142303721196216 -0.4016286823903599 -0.6795489932857651 -0.18809445108050832
Ni 3.2535030964864013 5.5297970656168935 0.23563518943121584 -1.6814482456455366 -0.9908733335629127 1.1851757132263459
Ni 1.7448434531085426 2.6971337661889394 5.573876028229895 0.4736733069624358 0.6598132054197346 -0.6183780782033995
P 8.671026957383829 0.22994856454261964 2.5205685428735363 0.589886655631926 -0.9443823890902252 2.932950192902943
Ni 7.058646674897743 6.141536407619949 12.123187865676003 0.20895741057244657 -0.07099587159258741 0.8431099780012835
P 4.891531839774228 2.5949555444209684 10.88997994558471 0.11882276126787922 0.47548053537450374 -0.32743590112702964
Ni 4.006729212354009 8.751241895109112 11.315657576193013 -1.3732100004928802 -0.7413477717601168 -0.26422224458302235
P 4.195218152952468 4.52649614792432 2.0333983349617 -0.4788975314758527 -0.361639543591932 0.9674791230086885
P 8.46944132344116 3.2459018421688524 2.4548310852731086 -0.15323774841263932 0.3900654030327927 -0.0937935862133933
P 2.374953262715005 2.4844187137132874 13.086578965590254 -1.4497990499025288 0.7854342205563699 0.7724257241118438
Ni 5.516635720048841 0.2556921564737293 9.655028262656048 0.33876778120008105 0.7446338987105563 -0.19945821283275972
Ni -0.03412529095076379 2.228368199198828 6.97515109861402 1.5245618447367162 -1.1998798522057401 2.0421580783343476
Ni 4.524981438679997 3.1090607923890223 8.683742202607363 0.7986980275448116 -0.5861148472943196 0.5508807066823738
Ni 6.62209638744543 1.442206393299168 3.4685086848924938 0.8515912759994173 0.18876190946117813 -0.5968954828495914
Ni 1.4569840444632964 4.337471517471161 1.8167339552124346 -0.7614887654843661 0.45872002808671314 -0.19051643025843962
Ni 2.8008359332332113 3.548668206425913 3.61185190118454 0.3333741209883355 0.2501685947034337 -0.09447492855113405
Ni 2.494338212057208 5.975740397590404 3.2579271558036624 -1.7576218047843215 0.7002180915993423 -0.8621829354723345
Ni 7.689707795797895 6.135606875090342 9.842467066418658 -0.08839067003026713 0.36123768016782304 -0.2785941970339783
Ni 0.9154911908721238 -0.01404246301871313 8.69692202023937 0.9969331666037478 -0.23236653352500627 -0.18395034700514773
Ni 3.0496361626452706 1.233287349966301 9.002074051556239 0.4660178472997071 -1.2783743461682175 -0.564269212174138
Ni 5.409156015925739 6.8649024321040395 10.697566614998976 -0.922340064578205 -0.016409551706274967 -0.9302930008766946
Ni 1.326266483884602 8.941005408120478 3.452368719011672 -0.3497944713278879 -1.380319614954468 -0.8788449695090477
Ni 4.1921333182719565 5.287674487324625 4.406351073150362 2.0519609233573823 -0.4041334510900846 0.6499813069309773
Ni 2.2877004686228037 5.426722948747097 8.162600945478788 -0.413303804735443 0.8639071172522927 -0.8204410756488579
Ni 1.1030038828905528 0.18655768631194725 0.8978014188254643 1.2208813941580716 -0.7750227954150588 0.633113070420729
Ni 1.0217822176797116 2.711569684169898 10.060806862368656 -0.5209306972875029 -0.55911080790165 -0.5328534168670178
Ni 6.313382018594807 3.969147798237235 2.756860414178359 -0.7964848219435766 -1.3477774193523884 0.8607608583138272
Ni 6.947121588768459 0.34840159825828504 5.635598582729669 0.8499848507442459 0.6394022458635504 0.9166419857521633
Ni 0.22818078802211075 3.1485171209972456 0.13934309084255664 -0.4505236083188499 -1.0446744385437685 -0.46845371043470935
Ni 7.870078264288062 0.7379210872775601 7.938989222475986 -0.9945595241652485 -1.5857792967863014 -0.026030876846122913
Ni 8.284166521970898 8.04211783193445 13.004917665257281 1.2179392808106122 2.228195132665195 1.035667864169784
Ni 0.5104671749720848 0.772179377088801 12.005027614174027 0.8367197582042234 0.14755946708093942 0.733833979881575
Ni 6.98212614996349 2.528225213382951 6.838107779733881 -2.3989971152138425 0.5455089008474993 0.4110995979952727
Ni 6.2657333296224715 4.329925679345478 5.255665171299925 -1.504180967087519 0.04356528618546046 0.20905254138941418
Ni 3.6202289821882054 0.804039992998662 13.412846413214268 0.19655260915019054 -1.4074324120108601 -0.21854839669499135
P 3.005875843135495 8.40065135727214 4.742284028238914 0.4936654338136466 -0.1178431709634293 0.8881456780846833
Ni 4.536212453564734 7.206284646059364 13.112276377361477 1.2667822704552443 1.7396531361210426 -0.21649125705564648
P 2.1292378679834583 7.369651579678804 1.3886096997332695 0.16832138221863913 -0.06498334684992034 -0.325225266628956
Ni 2.0023717327394146 8.062594114828746 12.703685405911695 -0.38544487354164586 1.0584612079152156 1.0856148855118724
P 7.239072559579774 6.803270390717645 0.7579291033505923 -0.24338036813700667 -0.7936550658042654 0.4374750026650079
P 5.37075259496296 1.8933957914359445 5.2344555474666095 1.7760848965855154 1.2356310416634202 1.6689925363806868
P 5.187260347664372 9.173808830147369 1.0949057300526106 -0.4711456554445757 -0.7248950255207322 0.2765815374793237
Ni 0.06719028543050136 4.735997061271774 4.026796339031698 1.8257254424307785 0.34408225143445903 -2.8594150998282686
