# total energy = -340863.9630702235 ev
CRYSTAL
PRIMVEC
9.26071477907757 0.00000000000000 0.00000000000000

0.00000000000000 9.26071477907757 0.00000000000000

0.00000000000000 0.00000000000000 13.55399216657690

PRIMCOORD
 96 1
Ni 9.25150050794208 0.6260956360486641 6.678079334024139 1.1518817270599064 -0.3720424840928109 -0.4639334539668526
Ni 4.060082634913705 0.1515821600133616 0.09023918438800606 0.4507768619802366 -0.6083448623371136 -0.4566490044902974
Ni 5.555049105049088 0.129660195656426 10.154678586518786 0.20534141108641413 -1.8630069524900559 0.7690552649777141
Ni 1.1912428029275344 3.3649085480676053 8.235188905553903 0.1366009111869067 1.0352562305536621 1.7602867532109943
Ni 3.5868230596784745 8.690477137416767 5.200639692944999 3.4259147439948223 -1.6747404946080575 -3.7489026366528275
Ni 7.057674186422721 8.828545136148414 13.243565043916606 -2.4625018206357074 -2.771404953065872 0.29245552839710276
Ni 3.2581417657631486 1.0628337298567039 10.249597210155509 0.9957908254691883 -1.1124240352849164 -0.8090441466658259
Ni 2.1074608941820903 4.813978915063003 12.44363560204652 1.5097998559361936 0.7014463075794888 -2.5193460833182613
Ni 6.2778942080740165 8.991487415153264 4.364047080709455 -0.4105738073987897 -0.2188597572878231 -2.6672207676467745
Ni 3.419982019692604 2.5043103106182865 13.162024449052288 -0.15185578046344816 1.0962001172268863 -0.4631898909326087
Ni 1.553077456253907 8.832129032822177 8.407514140914977 0.4112767470030852 1.308560897053927 -1.567154225485946
Ni 6.4483191447336505 2.15537583317448 9.506986963278345 -0.41285617567506316 0.9882670062883173 0.5408865715841394
Ni 3.4394758245977024 5.307565759546069 9.787148593517053 0.010242246553298489 -0.9487272963224823 -1.4975169248037823
Ni 1.1825284701884855 6.1521614816148595 8.510578489394703 -0.911172735107476 -0.08726298418372713 0.5066153091060953
Ni 8.696839248566318 4.867533629441239 2.6126541926734976 0.16998102930924922 0.12290027377136255 0.7031887441918921
Ni 5.7046744760000045 6.7273352245368425 9.508464047307973 -1.3737602165693954 0.3747485701700643 1.4020266676142563
Ni 0.9857475388685608 8.615965425176187 4.306862166082859 -0.33892770381671306 -1.4874119751592965 -0.12249506791314387
Ni 8.384716112926675 1.0839944634472742 8.833909868301157 1.0595122748875494 -0.7362572446110869 0.4506400792920561
Ni 1.5031251599792743 2.450255517634409 1.111496934614572 0.9604553833926879 0.7076750620980199 -1.113550692690192
Ni 2.0931067860571955 0.6751690904774565 12.1560061312969 -0.5717619210067572 -2.619753061083114 1.3803826069819194
Ni 4.497003164805655 5.029327579796097 13.3950175539211 -0.2997456343006128 -1.0406020682466077 1.8250824095301408
Ni 7.8791459033380535 6.380465886520037 0.8119165112616129 2.5051790477892597 -1.011104058787491 -0.4150434131343691
Ni 6.344682484071913 4.881350616100814 6.13647475661308 -0.9952069279412602 1.237833448631378 0.0014490737417007303
Ni 5.92221793016897 4.500679668628612 11.22796488530489 -0.15943205014880932 0.24522256355206798 -0.9184864951600699
P 2.109822376486508 0.14985318453793078 6.103024128253125 -4.458042199111516 1.3437564711184535 4.116381412634356
P 2.8454935696746495 5.186231872673573 7.539841643338814 -0.688076314030486 -1.5063831169451605 -0.15705943615157467
P 8.684365065570038 7.933080307027979 8.46110682422438 0.325245321233614 0.69921741824897 -1.4472405451467334
P 1.3378306593849247 1.8243237962398164 9.748315637646009 -1.0235556542872826 -0.5025197988804829 0.10070831105535559
P 8.104310925885592 8.253028746774417 2.626519335050654 -1.5570593031437894 1.3178068411322272 0.6706486054723417
P 7.799837140769282 8.9661037955595 11.063161202601263 -1.9215905664612194 1.6638552151541215 0.9362255643110456
P 8.651045013290444 6.392486294485272 4.673687418679236 0.7737287591939837 -0.5275955109021881 0.42714096772885146
P 5.893194849611925 1.3800502587019527 0.40179185998861927 -1.1289757689960105 0.5079409698960542 0.1794699426362909
Ni 7.25724259293335 1.6136425318260426 12.392035824587746 1.0598799426396133 0.5856937005965009 -1.9118093187047398
Ni 1.9679297024931963 1.518942461061416 4.50629629222716 0.6664196549926588 0.7604628953230129 -1.0583030850707968
Ni 7.74181876179995 3.5822667879381855 5.110044897104093 2.3299118303804067 -1.3065268973430337 -0.9193634984483843
Ni 8.462978414709568 1.267838176024955 4.343634612884363 0.013579281346331453 -0.0838030506595847 -0.11538751033408515
Ni 4.601917804126255 2.7304569689472693 1.5945589765918684 0.557825256321007 -0.18557425576181588 0.10012029976236951
Ni 4.077613168255915 6.316168742835429 11.767969211177897 0.5667492982835143 2.0708325634509044 -1.0985444490893468
Ni 6.556901027162289 6.594684744032979 3.1192884584063467 1.0183697392109687 0.038952984224429686 1.79297730146548
Ni 3.452533432633897 2.931349657691357 8.869895154334522 0.3916144926874675 3.263469360940986 1.010960334120775
Ni 4.004296088239922 3.341571546471003 3.763116511382461 -0.40898332298321827 0.8353868983254129 1.4711183802055954
Ni 2.6359143303362704 7.392513855759373 10.033030761410528 0.6114862361795727 1.500152048433784 -0.5028175326265598
Ni 8.8944166013693 0.6094846916979394 0.19773663709959496 2.2932072758705213 1.2052010073083372 -0.9288634675190196
Ni 0.5845048392746552 2.909466588337082 6.243253577846933 0.2791672959286289 -2.026830446838342 -2.3417023952574314
Ni 3.060555152245246 0.6042718352698729 2.0876938981868727 -0.46359869633525325 -0.15591863767891212 0.48986431490000154
Ni 4.839936698981763 5.88106331306766 7.608031991575491 -0.007235084295858508 -0.2453698877632097 -0.4174193695657134
Ni 5.980208526993544 0.30494608157719405 7.735493693510077 -0.28734031865772447 0.0558405040083877 0.6182700918706254
Ni 8.383289962829105 5.377345246462895 11.95749437235856 -0.5992449569183744 -1.3455439020361795 1.4446632713378604
Ni 1.9129303165875522 6.052303192640191 5.364073715912065 -0.7574369640124955 -1.780630606974669 -1.1158034932801106
Ni 6.316178003550348 3.71866785798436 13.464807227624334 -0.18531071768778407 -2.34225441110616 -2.6437897903173435
Ni 8.581728562119583 4.6814025202784935 9.460605598676592 0.3451484879154443 0.6539534042048479 1.9077986548834498
Ni 4.323929663679105 5.385105725565257 2.325336808016658 -0.5372420328530167 -0.18854105169962365 0.8330849896651137
Ni 3.5376301420272234 1.27920107323092 7.658548265388707 -0.16117808630563857 -3.279650341576223 -2.154879354690179
Ni 1.17156378372405 3.7835391659939637 3.9991193486000407 -0.03779290247805749 0.8697180675071151 0.15498275612820406
Ni 1.0965890357375043 5.245759748174748 0.6966289451599199 -2.472442219677871 0.07529578451952193 1.7597589057319822
Ni 0.7342404127331111 0.5500253454871668 2.2007755619947913 -0.660981771806539 -1.048346488078717 1.5513414268234058
P 8.478304897900989 3.137937686110806 11.691633138098217 0.848561745144474 1.5769781535549035 -0.325867013978013
P 7.459209524608076 1.9111707807528877 6.5514307228594655 -0.7098119059353647 -2.4249423743246945 -1.2723859897952667
P 2.732420240510158 3.516534233441088 5.544287228241385 -0.5051127564186398 0.18778437603925724 0.5858384537044813
P 6.254844288639912 6.338718583663892 12.663170109923131 1.0808236347708162 -0.9712321622932176 -2.159379556553378
P 2.708323860290174 6.749764676071354 3.465931834979121 -0.8628923028345332 -0.01573052336137936 -0.5372469179490231
P 4.376039706529932 1.2253222338305094 3.5744322231164687 0.15681723823378152 -1.1924231388173787 0.5431352584090001
P 3.826268104631553 8.490825384471865 11.67071966559599 0.7717726639088772 0.7603520807767614 -0.755132484249035
P 6.1219808116929055 4.449514218699552 4.010409086158143 -1.4965208794391 0.5087732359893625 -0.6759293942553068
Ni 4.177499239375343 5.949231435588529 5.1293460791388705 1.5789347630606418 -0.3024946578006597 -0.6555865689328967
Ni 7.816321213325612 3.5561886147254738 7.7242715591708855 0.7658645259545585 -0.7344988671590834 -0.5010879515299629
Ni 1.9122357629686058 7.442475412748924 12.21636284078335 1.82584885538252 -0.8166191307996065 1.1885536285596434
Ni 5.949462953461512 9.054691794477396 2.041719078970073 0.9963389846631744 1.0154314825182513 -1.5030039160602824
Ni 0.4934479337592762 7.388633616208191 6.392388130907127 -1.9409391461911605 1.0776871460243633 1.1694860704052312
Ni 5.510403198423206 2.847206801934717 7.2716763432065505 -0.45689120240809056 0.4637704460264271 0.9650154919595444
Ni 7.49732662721586 1.470434836314192 1.878434153513209 1.575597728267609 0.7473214728450485 -0.4753609790775039
Ni 6.465460728049251 4.483686256751721 1.842041396023396 0.5306890622258473 0.7058094696441909 2.099032422923888
Ni 5.114442810619262 1.2035688144851049 5.70994474886057 -0.08897893843356934 0.8117481758605504 -0.36974288942535677
Ni 4.342682611390661 7.907372562412039 2.878515426933842 -0.9842931092422339 -0.9330050004912189 0.737073312754479
Ni 8.478277115756232 3.4348176849933014 0.42084300272057606 1.2632878841487403 0.0465423665359134 0.3583140787631248
Ni 0.5654907394023757 7.318641132848222 1.9576577175047234 1.5672347010148944 -0.6234009853392877 0.012429998233236657
Ni 1.4211215293689898 2.6769670795734686 11.949172693932088 -1.857676798526394 1.3166233623470873 -1.2317607600747364
Ni 0.5107265756556815 8.675298825664056 10.395681283721292 0.050529376208119425 0.5020649707312514 0.904896672290777
Ni 9.232395653063591 4.954056488932135 6.649263693481287 -0.1433829671057466 2.8073438330543263 -0.744423325361647
Ni 7.841593704340346 6.974614834311637 10.291017609775002 0.2552524369842442 -0.06178823695139036 -0.24667883638262034
Ni 5.101125902565327 1.9080684412549267 11.71852440208084 -0.5098852381066187 0.535648977334284 -0.7657287717076426
Ni 7.431584812003844 8.59538811662553 6.138968667140844 0.8882505790936638 -1.177887664205365 1.5736177217231029
Ni 2.937174647375588 6.794827314868604 0.9338838310345873 -0.15300634912812355 0.9929685255290447 0.09643282360845327
Ni 6.261808346259216 2.2143017622059014 3.580097002432596 -0.32217439561777417 0.83684882758292 0.9376810658106497
Ni 5.8766181699064015 6.959482826133523 0.9968659532006565 -4.254598776378763 0.9661118103475167 0.39741207320585104
Ni 7.226154372949305 6.370908828723333 7.74212158717781 1.3798005092262042 0.27712815401141305 0.1357089955002566
Ni 2.914069163651968 7.37345530445548 7.116293585790315 0.6544804803529116 0.1622389234699851 0.3122453094295203
Ni 9.035142425282782 7.726094067867001 12.611867601413268 -0.9659218058238976 -0.17302624389347623 0.11500647284558257
P 2.8808324578066475 4.177684453673728 1.0840166891630805 0.4310755268965673 0.056213056856458034 0.36300325670867806
P 0.7919328145372839 6.18385164806866 10.854524704041667 0.07972502393546914 -0.46008914052009797 -0.7847292240695453
P 4.084253100853044 8.46320067186763 8.692175552532964 0.6571652262739263 0.4056023223261272 -0.06368802507726451
P 0.02745709366419334 2.5808871622858685 2.5981787691831606 -1.1520089966663902 1.0435254125409898 0.8156973903162856
P 5.408702027179599 7.660898634835222 5.811395880801357 0.6673449950204056 -0.9062022784760779 1.1331980346074741
P 1.5329261405895391 8.744643058979676 0.401418653177372 0.37082712362847103 -0.20029150736733248 0.7486995841394977
P 6.302323974031095 4.264975952502925 8.957548747117063 -0.9871879142915256 1.972885874301086 0.2645577735455702
P 3.760313292976393 3.5846375309575227 10.913959046322159 0.21385587631532843 -0.9719860097401067 1.9886279676266911
