# total energy = -340874.26702331594 ev
CRYSTAL
PRIMVEC
9.17996308432416 0.00000000000000 0.00000000000000
0.00000000000000 9.17996308432416 0.00000000000000
0.00000000000000 0.00000000000000 13.43580389880053
PRIMCOORD
 96 1
Ni 8.208392441716548 1.8433916514770594 4.3016471271681205 -2.049964461752644 1.2815270328645865 -0.5384496800078727
Ni 6.8173985471613 4.907029885589041 5.947641116120771 0.3723880403576877 -0.7893384407067825 -0.4947512106786577
Ni 2.7795459189507783 4.599519484798335 2.732788695373628 -2.2004855825650687 0.7501412016820307 0.3205180909612738
Ni 7.931065759291114 8.789484100026051 3.854409427452247 -0.7249832143591644 -1.5482401621902626 -0.5404487127157724
Ni 7.669666312681902 -0.03966294816575094 6.296326404984394 2.411976815302962 0.90976119947193 1.373467367919325
Ni 1.148055353552048 0.7130628064905036 11.457220823546935 0.7460917142030054 0.039737942019570274 -1.18667569481064
Ni 6.426047544232509 7.593812278359446 5.4219110607143834 -0.44240097921171545 -0.9170477058310142 -1.7675722311288138
Ni 7.727922357920956 8.799187320923888 8.805825352173867 -0.7272522128989991 -1.2347267846815961 0.8719950364667499
Ni 6.778870242423149 4.884024898294829 1.1704260054025126 -0.4409799304944728 1.2583341396878909 -0.11657201756048957
Ni 5.2808838790275 1.1099952269272264 11.873206257203586 -1.0337310521583873 1.4615903861105022 0.47849258272795014
Ni 4.200567472500189 1.1440528896812272 6.269575992783543 -0.8988890326441165 0.3399479175511113 2.3787010839689677
Ni 4.987418821636692 0.01949089745533546 1.2180213596021539 -0.6135953121027755 -0.47363011242932634 0.1570074998677167
Ni 7.297969610549963 1.9158215595981014 9.00134387627085 0.5810901403862185 0.29581081802258086 0.15008326194405763
Ni 8.574030368264218 4.28636340675865 13.196942234795637 0.5203833094244652 -0.8329865164140364 0.036863448685252646
Ni 2.7942981195021743 6.954538014514943 2.0328100901562447 -0.17947765594577478 -0.9297947210840375 -1.4111389143281698
Ni 0.5837134557441497 5.170907922209998 6.252068885333905 1.8245234517028772 -0.5813652484244762 -0.41178659675996826
Ni 4.318300498058156 6.148206783878712 3.8487261123549414 -0.34899203003125057 -0.7488325101729361 1.0978595072071802
Ni 4.92736350364837 8.264472835723069 3.4025771562516356 1.2205054988758917 1.3418949924296826 -0.2831954432514155
Ni 0.09764359451461056 5.9630652899642405 2.706400891711532 0.49757273928785284 -1.3302676926033994 -1.8103862409705467
Ni 8.217884523465239 3.872200195758784 7.738874971783974 0.04446928605696858 0.766483647595796 0.5083402622170019
Ni 3.344333962960791 8.419100132604036 11.215389386082313 -0.826231714188706 0.5452052535641513 1.2574872183065635
Ni 6.228559000074337 2.8359200717735056 7.105726497253688 -1.8186803626585388 -0.8921306308743603 -0.8101229815523014
Ni 4.218743799252998 4.870952630973617 0.5471423191189776 -0.8528470027833893 -1.0828856595061673 0.5135997108437284
Ni 7.524044559510282 1.6971732007100175 11.37422753199435 1.5255602040942438 1.0283962702090355 -0.40162971083162446
P 9.073502975483203 1.4911840108078547 13.066561056207357 -1.0379810856839928 -0.3473976889609372 0.9845504766686786
P 3.429955477922129 8.287294223757153 0.0010988415718743664 -0.6134333326036145 -1.4394673289592177 0.23140391250142084
P 6.006036696797524 0.5777786096604672 7.6990651442101194 -0.25886689380837996 1.103213572430242 -0.3512358317601048
P 2.770641354834503 0.6776988350006823 4.5081559029764495 0.8710869228301837 -2.1514199353866688 -0.004043831052070455
P 6.564371226813988 8.939943693702082 10.989977230451062 0.6057138524721697 -1.4691818253045148 -2.471620495107524
P 6.400270208110345 0.8895301533601622 2.5427799850731265 0.9607613446688807 -0.36610092179739534 0.8849762792177662
P 3.7214284833405338 2.880672391430043 7.402751544298404 -0.5965216444499404 0.7455342990376386 0.6888311899186395
P 0.4141026232440229 7.643879796596731 5.928427453548231 -0.9170492484929109 0.4883962149949072 1.2825570167909977
Ni 2.375627546666132 6.218268261544086 10.541476367825501 -0.434356254530368 -0.23827364303806062 -1.2880128976992462
Ni 4.085294677027954 8.208906519644911 5.603791831768956 0.7436332253601838 -1.4883249738918691 -0.8397976257985988
Ni 1.6289109957939123 2.7500415178479862 12.825025213551543 -0.7171626898734811 2.008674601864921 -0.14866504144029236
Ni 6.654463383759477 3.9733909279790947 10.306591408367874 1.1610456529473618 0.7263289297537813 1.1097107501188113
Ni 5.741176404134873 8.128058585446936 12.792322513337298 0.2619519604916069 -1.7040621263903106 -0.6625817693038073
Ni 4.253297180009348 8.740004099421181 9.22956418258578 0.37957813034822374 0.266424908661296 -1.355480701533917
Ni 3.2699028229043385 4.839346018342343 8.427057324538044 -0.5943770873031119 -0.9247085648103817 -1.0521730609136588
Ni 1.4222608485552837 1.8296951466714073 2.944228029312731 0.3153763988593342 0.8311790308916523 -0.215826369778138
Ni 1.87760537360217 7.2807847198018525 4.372131801128091 0.1900960548915694 -0.27042477384930846 -0.24968625575037642
Ni 4.1072898683914545 3.6651369501848645 12.066830036936034 0.8701762380904563 -0.9043024903502038 -1.1624746720844044
Ni 6.846370510409717 1.1316507596594874 0.12520367945263247 1.6261070498710704 -0.06023220531818013 0.9960150256648523
Ni 0.44841916095480616 0.700750640106227 7.823198439976198 -0.7635636457355236 0.7990574677667593 0.14538688490965282
Ni 0.9151229722258977 5.6472011228376475 8.53533590619565 0.24139856182028752 1.3970762655875166 -0.13504282267116743
Ni 4.835490433879626 2.9019699056050516 9.495673868213611 -1.236169944886026 -1.6797677726193203 -1.0703016521935698
Ni 5.827394616691632 5.139246229800686 8.27883305185409 0.3651084759771389 -0.014504621374078245 -0.2047423440498345
Ni 4.376271964444009 1.7837677917500419 3.603320915291902 0.19799705490620095 0.5706342351602173 -1.42142486963521
Ni 2.8945249556068053 6.291772225336885 6.736913221502081 0.13524696826217353 0.21024424770467018 -0.9978001425897333
Ni 5.861479819334652 7.638087239939648 7.821760857769385 -0.067010147471962 -0.6566777451145465 -0.1948425684376193
Ni 0.3310055981094635 7.943394449608801 10.105740243760431 1.3747238660342453 -0.7430956076891589 -0.7297641806875754
Ni 8.461070923469615 6.391301384253024 4.7270915947066365 -1.185999751789538 -0.20669175446672147 -0.3104859035362524
Ni 4.955243051299017 2.275391530598495 0.9752489759293692 1.710569331381209 2.4904417415790854 0.5091894975911747
Ni 8.371336785081377 5.974420904203243 11.48367564093898 0.9366127724471354 0.7717613510549677 -1.1562747139212795
Ni 5.973264228864428 0.9966777635753703 5.115292952327906 2.1086504056296267 -0.36604718574132444 -1.2826513762770166
Ni 2.1466976292108026 8.59716387504052 6.681517652735843 -0.2605764203003189 0.8914539165223099 0.3473840621141824
P 4.3609138863341865 4.859707176290692 10.129212491171671 1.2931754157367923 2.0388971481948888 2.434343098813304
P 6.529221148462217 6.434208531345261 3.4522627880278494 -0.0004070056304315571 0.5684778509388467 -1.1006550676744464
P 3.6343840741131923 1.4107767148341908 10.678938051880671 -1.892308786777967 0.2405200158700761 -0.8577138439573875
P 6.41348935483966 3.3934375850823946 12.705151420620467 -0.18845954772941093 -0.29431212198986734 0.33634657335309814
P 9.463623863369124 3.52508743455817 2.2744533383792334 -1.3606774152435082 1.1402729391763846 -1.068774416915766
P 2.2415266470676296 7.693295537460554 8.624522918788701 0.05009100311912018 -0.43681140093907994 1.0312923608099078
P 2.4365090613250358 4.742093490251808 4.826181033394765 -1.1133928269560889 0.9631380724311734 1.1202047076716
P 0.843027214758291 7.936151458796698 2.4501936321787796 -0.5982147158816471 1.776316038759715 -0.4658751510742557
Ni 9.216315659974844 4.147452206544757 10.103415877127194 -2.0078071116583036 -1.1554442476001843 -0.4746750087540728
Ni 2.855390773310227 9.17345441269764 2.4513888633622223 -0.1621975287090884 0.7422450867634055 -0.10218978069688853
Ni 7.298125669921073 4.3581598974322455 3.6806850535289213 1.1725120017157482 1.2968366666384632 -1.4121861246457614
Ni 2.247254943983666 3.6026305820738154 10.339401514149296 1.5765621490634074 -1.5550998654245733 -0.18247556223183414
Ni 1.3772423099715585 3.3120480330670383 7.917396794374481 0.2505552886188911 -0.8089325607886261 -0.3743809024180004
Ni 5.151024122337986 6.674797001818806 1.3456090754475662 -0.12094032183151429 0.9212056938634458 0.7769102422457588
Ni 2.4720446981230784 2.4879811139023094 5.481902118961659 -1.400490690585704 2.1186561106920867 0.563947567168661
Ni 2.6546892420997903 1.2313543378727496 8.540105814973812 0.6892227689301034 0.6025120577054204 0.8790604279539636
Ni 7.304046746060246 2.801219811609052 1.9776963462543053 0.7588857806438801 -1.3102606533538532 -0.52987865050941
Ni 0.36415995250362776 3.698267436675212 4.428575721669668 1.388233984705538 0.8464745235981421 0.49238708132185527
Ni 8.322297422700819 8.503399732892444 12.05504663642093 0.46110112672438003 0.029003072100569405 1.5599204267416684
Ni 1.6730390779660098 5.079631550036675 0.651283491449567 -0.5170935829295998 -0.6632448568091028 -0.5106910218373656
Ni 4.370020409636604 4.316170746640656 5.679824875370039 -0.2740865389716118 -0.7932017803169307 0.30608237515191805
Ni 1.5151253543287264 7.140478165210977 12.621258492693247 -0.18055263417750841 -0.6011910249011517 -0.2024468631474384
Ni 4.90346805994253 4.128403783306334 2.7215294707461934 2.329318676881098 -0.5260142824579973 0.7978343939929357
Ni 7.225291843427747 7.747668458347871 1.4382890639645791 -0.11745519149639128 0.7176355157448414 1.497134601763699
Ni 1.3436069255158551 9.19841473211223 0.3554766254958085 0.0948024870938819 -0.5084968423995242 1.2241510660482788
Ni 8.661148217195612 0.6063980623294357 1.8118043167680993 0.4723378759804639 0.27935652912129955 -0.2691693041756526
Ni 4.145249015423205 6.347476240860139 12.04169162623912 -1.0576011739077658 -0.004123535250070318 0.6900136402625149
Ni 6.207344105566387 5.608828877470606 12.286558877469979 0.7200608373568824 -1.002890412628447 1.084526794654016
Ni 3.272592552065234 1.3707979759410174 13.280713987211172 0.07421694963304637 -1.7315040246513471 -0.9408615204211602
Ni 8.089695520042902 6.4243308911503005 7.183559731600338 -0.28804942890960716 1.8723261730084526 1.35582651490911
Ni 0.6951545346574834 0.5580012973593299 4.944483216659134 0.5479527344023014 -0.9058605788659432 1.3420443735233532
Ni 5.738964033050314 6.788646903025038 10.110388977026908 0.4652472876822697 0.6008295277966749 0.4772918775516296
P 1.1877036137769883 4.742093490251808 11.774077344674527 0.040967700661613315 1.378548381986658 2.2203090450488987
P 5.98852132738118 3.1620198976523115 4.683734629427082 -0.6338206380107149 -1.4344518780224973 0.34993485356049414
P -0.23965303224318626 2.3742230123261425 6.338246706053436 0.3880856535986026 -0.2698745577727933 -0.12664174309166576
P 8.210797592024244 6.596087999001339 13.503519951344888 0.3702262568196785 -0.894175429218531 -0.20551444632916865
P 7.91451428599045 5.878205711932439 9.321881562564037 -0.4891058394674221 0.027323113294985202 -0.39610312458644037
P 3.0121478216086954 3.0455812468782564 1.3366833974163763 -0.6986813432398419 -0.5573951107621239 -0.7011431745167731
P 5.219607625959317 6.182135927150623 6.343620656397423 -2.3148423376417937 0.6295214964147287 0.9507749228801302
P 0.5874377667358742 1.9911064362141557 9.714784897237221 -0.6861878387585214 -0.2641353412961709 -0.8157231013478983
