# total energy = -340890.7963060591 ev
CRYSTAL
PRIMVEC
9.07748034479708 0.00000000000000 0.00000000000000
0.00000000000000 9.07748034479708 0.00000000000000
0.00000000000000 0.00000000000000 13.28581005038632
PRIMCOORD
 96 1
Ni 6.488474082735816 1.8726025157132662 11.38107627170758 -0.09024237852702523 0.37226617006784274 0.7097980219782937
Ni 4.592497054911203 0.3782831187815476 6.063537253276108 0.042109013354908124 0.7718675376155287 -0.17756141275966839
Ni 2.4515006752770967 1.3461994254853245 4.817368031154739 1.0970843196040525 0.5951684728561557 0.5628111395713726
Ni 3.6910850930933887 4.3309294562749185 4.996833450279459 -0.32442385377358324 -0.07204976677839849 -0.7426011845512436
Ni 4.921156311417375 4.72327631548913 2.6024909460359593 1.6293908628286646 0.21213992206548626 -0.06421124457058619
Ni 7.584053350985354 6.063148737113636 2.389784701318798 -0.9025410275744068 -1.0478101559592727 -0.4198855717180188
Ni 4.720280746946705 4.411982279048592 11.117818446214931 0.5229137891558027 0.8332387416341585 0.2965674936829473
Ni 5.346826601295954 7.826195141498035 12.542961088021627 0.5815367410053339 0.695684465395047 0.3264054029799862
Ni 1.8735193412368567 6.63088159574661 0.5107144807980235 0.9270778363735066 -1.1368693128114744 -1.305685632388661
Ni 2.731295854620015 1.511618351390201 0.3788804169939462 -0.14640452754088978 -0.5674440103576937 1.0771371870581643
Ni 0.5343023136995119 8.773357604691066 4.677960625426586 0.44293551155894684 0.26457371438517013 0.33351913120663207
Ni 8.703025286307101 2.26382376735396 1.5749265154162004 -0.2727094561184271 1.497906446932717 -1.301710706901313
Ni 7.241841416194818 0.4131361048986399 4.670985489462952 -0.6336316619283603 0.8609238662542528 0.11859753263095059
Ni 0.9010552168368529 7.479943727915441 2.590480531676922 0.030227945646606 -0.033958359223315714 0.4809994083102038
Ni 7.68948828619828 3.8426971712618156 3.8741551796974933 0.8412500419744092 -0.4170144208178108 -1.2093309703163106
Ni 7.76653794010162 3.9435389013763564 12.803057227079952 -0.8243938896490189 -0.5322522929479092 0.18887272400742955
Ni 8.10831415583144 8.923689758118638 6.840663984016755 0.0003383571760252237 0.01884618617222561 0.36033419451694715
Ni 6.794140081308768 0.7742555236801358 0.4650874331566763 0.021723764830336778 -0.5711451133583648 -1.3721689608228755
Ni 1.8106124018459337 6.340039122718445 9.133847954078654 0.3368093719221296 -0.48910635368805444 0.2862288307611006
Ni 0.41051815954216914 4.897600249697397 1.2141611183715364 -0.40029659384249766 -0.6891353514226196 1.2382412255927577
Ni 6.581944898739904 1.7531337957531017 6.988096790194478 -0.9716170564364621 0.8170631603155606 0.05054814526119682
Ni 3.314705521958346 4.439813834051849 0.5461702116157734 -0.19769572161569823 0.13146101885718003 -0.730968999628954
Ni 6.123277967492492 5.486910279316262 4.58263437242228 -0.685225217734936 -0.1087761756651546 1.254101332553466
Ni 5.482761870759024 3.1294795337517387 9.281002081607125 -0.5523920011205777 -2.0256130294914727 0.09758904870008354
P 0.04129708947547849 5.651630239227906 12.561746933774804 0.6086911899329388 1.4280236058986502 -0.7826962527999166
P 3.941460158357522 6.1456902666780895 12.258936710545631 1.1363334949126624 0.5736372836525991 1.9204199431918862
P 2.5215062043655236 8.401562161173976 1.5056408305259985 1.1029330650753457 1.322565438863135 0.45003227050472816
P 6.301523373247206 8.01084924843745 5.949492327873818 -0.19897510254875408 -0.36885971548945506 0.32906392364875586
P 4.666650992556867 0.954442602499167 12.575697205702074 1.0294234259219692 -0.11079217765391888 1.0010664720458307
P 3.9778426999273373 6.195743493777881 8.09253295610112 -0.4932468582189892 -0.40253011115870674 0.8147219137768937
P 4.527039343519004 1.2080492507969465 3.790361865581523 0.19777594003433036 0.09065915434946967 0.2598056035725655
P 0.28911502850203263 5.626685323001895 3.470479624904657 1.4736581159083137 -1.3424670628830688 1.2345838313458286
Ni 1.4531775323716205 1.1203063249451912 2.7162571927889987 1.089427574389743 -0.5743553927655464 -1.3666290048412528
Ni 1.9050091208540447 6.556337326442387 5.0979511357991205 -0.4675990757438979 0.01742359479308612 -1.1312848767451613
Ni 6.044076950726864 5.817584736478246 9.233318984648024 0.089044244453866 -1.1040813197471762 -0.4082101922626196
Ni 8.8084239115983 2.5916206632191296 10.191691228426025 -0.23640882191517992 -0.9162750893310477 0.31342390311865376
Ni 2.3801244466434994 4.93973791386084 6.974426104664503 0.6068163415077292 2.611328584464845 -0.34310368957127363
Ni 0.7540953473896161 0.02484687943734992 9.100939364270008 -1.1573206386872907 -0.20448240552022848 -0.27427140128890826
Ni 1.3275905906005636 0.9708456096390513 11.55937251135271 0.7201071172137857 0.7869609416135415 -1.3212503195961374
Ni 4.380855598648668 6.930175203056585 1.815386248804907 -0.3452320487681861 0.21326760791202626 -0.43526076862250845
Ni 5.459432746049837 7.902273504995195 8.293321376759646 0.04397409158810491 1.3668362357560524 -1.3748200252924774
Ni 5.654716582574646 2.8637907589995124 5.008458071720154 -0.4730271887380047 -0.2786078238807331 -0.3445982718389291
Ni 0.5925252731877343 7.311465691105119 7.165701325830722 1.2347782067448219 -0.1812234349922879 -0.7239552873152821
Ni 5.185519774026589 4.665906639161477 7.211298417786645 0.9455324435342684 -0.6780191869048 -1.3369083378483686
Ni 8.35861660125212 7.302324668310507 9.382027176826384 -0.8575742330557296 0.5347444632421435 0.25112118842469006
Ni 4.550250460982581 0.443668210330295 10.378104551073084 0.6194713112675784 -0.3794562600583788 -0.031232732762036537
Ni 8.0810907920171 6.88375296812943 4.652424765224478 0.06680368788811075 1.155997034779861 0.8915652452891935
Ni 7.2278711738106 6.456666591303522 7.140246255204455 -0.2078767759137581 -1.0083738043405215 -0.6890751876086455
Ni 2.46419099292046 5.420680982087377 2.7194860525785156 -0.4785018386993308 -0.09544937664926142 0.14130885818553726
Ni 2.290856504079237 5.261080721139149 11.473718313748263 -1.6195245115575463 -0.8724254391359492 -0.6078733220173337
Ni 1.4022347121895335 3.3732189608203793 3.759485723641511 -1.2127263691511052 0.723192955227961 -0.15050749396566984
Ni 3.670215965581162 2.9326343705926954 2.5786162647528332 -0.9932140658809474 -1.812818761671439 0.49722898279518885
Ni 1.213559281418922 3.626108488164063 8.373036178917703 -2.4271059576349168 -0.557515181279756 0.2173006403308193
Ni 3.607572273122755 2.6886226191111073 6.882713596620014 1.176444246890619 -0.02191865444996225 -0.021246825193918246
Ni 4.063851827016659 7.0834666151048555 5.987662225340614 1.0791297920081608 -0.16042629574127854 1.233716855359843
Ni 0.9236427113947799 7.372094182907713 11.30013964068343 -0.608293697384204 -0.15391112033058008 0.326540900116586
P -0.13904793750306238 5.61250629856775 8.245678220714442 1.0812982604143895 -1.375491340327889 -0.506006986098135
P 8.659916331737477 1.6136310764804167 7.977757293524088 -0.6875728920315062 0.9909882618742222 1.2173109031979938
P 1.876487677337987 3.310520803479383 10.409910227009293 -0.11068650531399002 0.00013626846754815242 0.2556746121233274
P 4.063071163699543 6.237699608332693 4.030170743623285 -0.08659604002368958 -0.5371438167122556 -1.0963880648679762
P 6.902507042701097 3.9405251778730683 10.79329942853361 -0.3315589221564677 0.5371672137510234 -1.0417220407836638
P 6.489064118963869 8.049655477282501 10.249471206869186 -1.4540331425885344 -1.1873660360094453 0.7267266794128322
P 2.2681537255198285 8.592407109767738 6.1192448429367365 -0.4209232689539138 -0.26255848372735424 -1.609749948669286
P 6.91593263625942 3.755417196912072 1.6634364883644248 -0.7005525921206257 0.5551525945848503 -0.11035663277839705
Ni 5.154610953157023 2.800439023067441 0.5576187299360955 0.41509997740391735 -0.08450496182261574 -0.3124188588929071
Ni 1.5771123727041274 1.4242385247557094 7.115428423704486 -1.1818839298489514 -0.8571350886357819 -0.5278086553542588
Ni 6.848995295556869 0.7754455813647174 9.115035783632223 0.49009031486787846 0.28917300099108906 0.5147641634654747
Ni 2.566049400843339 1.5099480949907882 9.192638256093849 1.4323726268959653 1.067629504678045 1.0444425250386207
Ni 6.400985326336145 1.694384342399847 2.6376979538898837 0.12413260351656687 1.1085606956747682 0.7983360162197025
Ni 4.159011054381024 6.96421575467505 10.21718623996619 -0.5331964020287333 0.4027095741593645 0.4939348854249494
Ni 7.827066579619467 7.397256958664082 -0.22598750633662182 0.18022096186970255 0.04768393633952433 1.1129079168998703
Ni 7.445285907627627 3.8819391191675825 8.507661567954495 1.8089307394709429 0.34096196063792245 -1.3214840328734982
Ni 2.953131321407227 8.404394335068632 12.39924823332477 1.138596065694594 -0.42131201975190025 0.24512768984541652
Ni -0.1446106175115411 5.08628475794844 10.400371610571778 0.1066753272720679 -0.6735570373683885 0.7490705943256712
Ni 8.569295844588908 2.519427461346689 5.836203556591482 0.971946414751423 -0.8644056541552662 -0.2106036879266179
Ni 3.4940039154431246 2.5264988186028985 11.664383528229479 -0.3534654924215719 0.49133010081225065 -0.5558071974497139
Ni 1.0246296811962259 3.231746428294039 12.640890762413713 0.5337679582614872 0.43489052976728326 -0.40497163072066383
Ni 3.0017956940009847 8.223089818408472 8.07075789604182 0.23574624863051655 0.7336815134641106 0.6060717500322207
Ni 5.741106963842094 7.824588427461643 3.80128298228877 0.032751997620040364 0.050681071294635296 -0.5037166474020616
Ni 3.359058091347098 8.332573309893887 3.82493163430915 -1.040968193336775 0.4434492179705718 -0.5144882840962688
Ni 3.4823847404906885 4.085964569348014 8.881816248635754 -0.4044106160108713 0.6813986448999941 1.5666731720844695
Ni 6.68013600456842 6.113991705010974 11.44019880950657 0.6086816768512421 -0.5389356185053557 0.28839292829195495
Ni 0.7804971992248975 8.756046849508023 0.2144872463778396 -1.0047760596869342 0.8475122208340372 0.5377236004751256
Ni 4.665743244513708 0.2857264050569199 1.6256115351540301 -0.6381544894993785 -0.16010850739054364 -0.034874957500314135
Ni 5.549018400429205 5.362585107325196 0.3007378344466413 1.0500660418729852 0.17283084005321847 0.07589382311483703
Ni 8.084531157100672 9.049621644146095 11.251287364244739 0.6217012290393615 -0.1536331840788451 0.05781459701562301
Ni 0.12259863521297697 4.982964875676076 5.840043330814043 -0.01639361086667499 -0.006889785141297813 0.012464451015597889
Ni 8.29435711727689 9.034489484266635 2.2176538863828035 -0.8450763576990349 -0.999787091112775 0.2342804627182675
P 8.648787340728347 1.6096369850905168 3.6396348417551763 0.207482625799133 0.4611031836069091 1.0708053313028656
P 1.7632461089538938 3.218329912216148 1.4668064614916105 0.6127658742229447 -0.968875746245899 0.7627573477841445
P 4.614519022438243 1.2048993650871844 8.234824277362389 0.9530058690931781 0.01448019589404603 -0.4095715913865205
P 8.681693207292863 1.5470568349951308 12.633277479575737 -1.5897025431001073 -0.07471857185981326 0.5718400825428602
P 6.543837635888086 7.694553520279107 1.5873091064729332 -1.216929094378543 1.6578216073655319 -0.9959034397876526
P 1.6884567476780183 3.2844865896015807 5.947180293607893 0.2270219813836413 -0.8446804078121969 -0.8512480337273854
P 7.1873583786444115 4.137815137573259 6.1446073232626 -1.815967077492434 0.3977928535840375 -0.011304369269225694
P 2.4975325785456928 8.612196017108605 10.281476587374888 -0.3150488403165865 -0.6966447724257873 -0.5211911500377411
