# total energy = -381165.5509903924 ev
CRYSTAL
PRIMVEC
9.30799259822716 0.00000000000000 0.00000000000000

0.00000000000000 9.30799259822716 0.00000000000000

0.00000000000000 0.00000000000000 13.62318803381321

PRIMCOORD
 96 1
Ni 3.6291304938568816 6.185654452451363 4.293130112920066 -1.8671590269852165 0.4302365759350397 0.524791980015122
Ni 5.476646034835124 5.1633855415452725 1.3193576977320658 -0.5311919700041948 1.105057567617516 -0.08614866807362583
Ni 2.442528972371906 0.2798820315772558 9.767430533602491 0.7811829014791837 -0.51601037716775 -0.5223023808240488
Ni 5.405151343141189 6.506836047502905 7.560487786493265 -1.548272815200411 3.1229858268702215 -0.39919796146168024
Ni 6.062202545676641 5.007783828090319 11.851247153680427 1.0282108936711065 -1.305521596006971 -0.5793808710045958
Ni 1.1384047354426383 5.1856781839885695 5.426851066451444 1.1428111322172059 0.07296739349666143 -0.19710462499891862
Ni 4.170818435247349 6.0436424082937865 10.535206824535749 0.8229566429818602 0.2769852006756455 -3.43411553463806
Ni 8.91526984272667 8.59110038202824 3.521512413412135 0.2835795660637116 -1.03180092501521 -0.6570495266316684
Ni 6.166303135691607 3.2622187308204036 13.577387401048497 0.019255248685186195 0.2800378714590403 2.0499150965719473
Ni 4.719273287308497 8.392114114741046 5.405926698930553 -0.14299755874186987 -0.4126857115354699 0.16404152389636265
Ni 8.986736610442593 3.212411662046254 8.49931612791347 -0.09941324639301588 -0.28732206382527936 -0.008461500503791878
Ni 6.374802171486962 1.0838412824144075 9.735866199661169 1.0762802383745076 0.17922774471849778 0.3876071713002873
Ni 8.418874593665674 1.862259401366628 2.8191685185472104 -2.2420338383205003 0.17887961735045968 -0.5705789564422497
Ni 1.1069623362052852 3.273462785965082 1.6929674922934692 1.6952422141058354 -1.2258703627322307 1.491368388703883
Ni 5.82098591564822 7.772239034927321 1.7879071559231774 1.5128743810964589 -0.010457704998214247 2.6184788223563804
Ni 8.618717196278453 6.348488476210468 5.032269433606536 -1.2168457906361172 0.3650981915644938 0.7260607636940593
Ni 0.9185909037583174 7.9134133597446485 1.1829686119460945 0.7867709370899224 -2.9510394463044856 -1.1740312665737525
Ni 3.1713168744106963 4.362972635915175 11.583006628534834 -0.5407919549878041 -0.8337429349640868 -0.3180819707159554
Ni 7.5552511098174415 8.01760702968631 8.343957353067188 -0.14307777716050196 0.22017076278976275 0.1560307377767442
Ni 4.290770536778364 1.4059164447622143 8.639158478979802 -0.12881715347642977 -0.7496151539752316 -0.22163706292264412
Ni 3.425825317971071 3.987525443600825 5.8939773325633995 0.6083654311624038 0.36906257552888055 0.3268432618483533
Ni 5.069868139195454 0.8062034078697525 1.880544952965734 1.3524115756902901 -1.1698159429408241 0.04016525936497599
Ni 1.780907545435762 8.438300374366785 12.019438858020058 -2.4802933402911735 -0.7018371152600043 0.5234516639371436
Ni 2.0354904529374918 8.480074645467212 4.9232290918819 -0.2914520268332529 0.11829388534760273 0.14729695744817214
P 3.242755718148614 5.079799767373741 8.040923551323246 2.762732879213171 0.3545106458566346 0.6877508123702671
Ni 2.482302025048404 6.953470767753097 9.065781945789974 0.9158734830172549 0.21419217660882464 -1.005785731898371
P 6.810174220607138 7.813845762159698 5.844198187767258 0.5206733298610581 -0.48138610222566125 0.08890077689746624
Ni 5.9226850435544725 0.7533535562919648 7.142773930266276 1.0378679571448963 -0.6817298029871679 -0.7706418927385437
P 8.127003867530185 8.369505000546988 1.326148809183686 -0.9428656953353826 -0.23117996941607283 0.33018003953107006
P 8.754585965274202 6.191453331884422 9.44264022979301 -0.49935142845483027 -0.6195533294584233 -0.6420839064607716
P 9.006860490593914 2.512636773158094 0.4755844390506708 -2.217226035248201 -0.32841009211484085 -1.4766616786213276
Ni 0.3582022742956868 5.57431480191551 1.26404960529028 -1.2127471950867112 -0.2463188819400403 1.18777484141209
Ni 7.710406039624261 6.31712984890714 2.9791189261773243 1.4471996646064689 0.29332867503067545 -1.7537530658575347
Ni 2.9747227612395495 3.0155010771243465 9.358885050154896 -1.1352261207810965 1.3274348511402947 0.53234588110298
Ni 1.541440818029195 6.296391641239637 11.13677959836356 0.6612501949765773 -1.5081970302254477 0.06740969690322585
Ni 3.4890824361525548 1.2604511353242764 6.325137515000655 1.1665133609301523 -1.44505047947395 -0.4166624367950308
Ni 0.5810737815719171 1.2717603464176406 5.986655153974435 -0.6632415143749932 -0.929757954308831 -2.8731154801334973
Ni 4.049851762515365 1.1607439178492833 11.124464193262632 0.35310322398614674 1.921671041990168 -0.873073100022277
Ni 8.794238014045998 3.6820836641533 5.947189265056028 -0.14742011328959773 -1.391730427894571 -0.3021025645685636
Ni 8.503447015060164 6.471000275725578 11.628426840363877 -0.08773272473129407 0.3325760505670724 -1.0045068651859477
Ni 5.4652065118443875 3.557198326507484 9.80706024319188 -0.04982360839034645 -0.5528087769430221 1.3141461044511884
Ni 5.678164076128402 6.405853635032199 3.739919807404104 -0.35430058672835757 2.1330198356129264 -1.740011547901726
Ni 6.088162537231696 7.345514110997051 11.544861543776218 0.5599330466926292 1.003054191899821 0.3109433027886452
Ni 1.0714709601567276 6.659031035640845 3.330147530522677 0.4787604916773561 0.0654155492913325 0.2814638052722895
Ni 7.271534185260377 1.020332848430849 0.42952662972377015 1.338153523109379 0.2904942909056739 1.3573056705577977
Ni 4.295266297237701 2.8710596468800462 2.0445136210312427 0.712831666598295 3.158183200706961 -0.5347120673423115
Ni 8.533986539008582 2.4801518787417645 11.64842506261416 -2.5701189429957543 -1.1775567632285076 2.789796311088866
Ni 8.32661377032623 8.84796374773398 12.55814079536217 0.15098057694734646 -1.1639170609578857 0.4806839339523141
Ni 0.5647326696414562 8.10417136151206 9.905801291027785 -0.7891134691801701 -0.30258696040414984 -0.6363495750801557
Ni 3.7714031618092028 8.249050267411823 11.476064308357888 2.3140311545944083 -1.005799872965758 -0.42124877061413263
Ni 3.7955108628230407 1.7380814711636892 4.03814416933575 -0.3981042141768692 0.05831827612491892 0.3025805326462466
Ni 3.548178881610801 2.5426085095536766 13.191155968427339 0.18725652856024522 0.13616253809790746 1.8377715749620351
Ni 0.9566941025499186 1.0409872841643264 3.711351716303073 2.846010653496905 1.4558249443816347 2.061460121097069
Ni 9.140374337444296 4.004056438581743 3.4093390013549674 0.3869217151974885 1.438328330258768 1.8757670803692017
Ni 5.861159212009504 3.136318821973619 5.672940430642314 -0.03108772254374001 -1.0714061981116578 1.4087596154627158
Ni 1.4187707826387046 4.194516584583732 13.309295803785615 -0.10488429680991614 -1.7929377064767962 -2.862396036833464
P 2.2223297897910705 2.393457235018642 11.622077858564056 -1.1388719450637999 -0.3876830188435452 -1.6009025255809848
Ni 0.7321704265748635 3.786603113838391 10.599929951562666 3.085574990321931 0.698403664098423 0.04485315175894856
P 4.2671096194126585 8.63034287912258 7.512344056009144 -1.8739804207824244 0.11519082094224678 0.08687988981269554
Ni 2.604804516570844 6.738847072781254 6.480591231372164 0.7607963674030316 0.20840770871656367 0.8182152716421328
P 6.028945087868747 2.561001103068481 11.711514636927593 0.13461704798765847 -0.6887838816204719 -2.3622313684487186
P 2.884109452602595 1.4332354032470074 1.7501297368750066 -0.9216672068808967 -1.3614199498364876 0.12221327500666693
P 8.125077113047611 9.166455332904054 10.506039298706803 -1.9170240301364598 0.1258112767705704 -1.037137249626459
Ni 7.321713573741304 4.147771845397827 2.111880217976282 0.11746701857093317 -1.0995759756776546 -0.6304095554466369
Ni 5.222798458754278 0.8959026716265684 13.062212345977649 1.3493447638395082 -0.6239164915231256 -0.3268779717410306
Ni 0.46461962368607584 1.1885468919528872 10.410677052209904 1.1022974883738759 0.18459569389863048 -1.560851680306686
Ni 6.065609270993654 5.604910173819944 5.672695630435109 1.0257611465790335 -0.9286667781271813 0.29165282999014935
Ni 6.733225045208915 9.036822918996826 3.8654297113580394 -1.386937891601934 0.10115054079909677 -0.05391474774058457
Ni 7.574444190701816 1.4726547522020668 5.403923618908091 0.3077911303129086 -0.2512008926226899 -0.5542365105284842
Ni 5.462404806050888 4.13435902796117 3.746512658611865 -0.6225059843288441 0.4087357257487864 -1.3025090344328925
Ni 4.308893198505755 6.05793017704137 12.650860502740217 -1.2229480468791132 1.0520601894848784 3.7161236424495936
Ni 2.202373453507801 4.534956416468335 3.377992474442109 0.8758388356928722 -0.3277606314563 -0.26208437230441317
Ni 7.852138844001755 5.08114011831814 7.4796069149914715 -0.5400761598677021 0.6011079782690423 0.3466911498122158
Ni 5.120857323038622 8.138862250191046 9.407492318673954 -0.16660645641006144 0.444253459039422 0.05078237275918995
Ni 8.561966364972905 1.0718712038415132 7.797517681418974 -0.5633029916061267 -1.137566338878499 0.7639354272526456
Ni 1.6319703547321247 8.992730957721712 7.589082870773038 0.5152215627178676 -0.2906457288818736 -0.46735970603958216
Ni 3.3569834041879263 9.120948556743185 0.13187750173909593 -1.6591364695222135 0.007624092204161063 1.1773076233321789
Ni 1.8188841555270587 2.272378866374625 7.236855396971862 0.6590249051904843 2.783404034409277 3.3451193698133097
Ni 0.8526465680931679 0.6277636036010725 1.566421608755426 0.08344798131301112 2.9458864413486365 -0.9914950263073118
Ni 3.3521618639851587 6.854629193596361 1.881553008571834 0.07561768663531493 0.004773767239559521 -0.384187346985461
Ni 0.3240214636149858 6.859795129527899 7.534454261796121 0.1855179486025837 -0.0460631129066497 0.16680263158126757
Ni 3.170367459158414 4.717672312569354 1.0813150932039226 -0.1875732884697157 -0.10836068539429079 -0.3221165457966453
Ni 5.309614106382104 4.322752799590544 7.681747660994335 -0.3400461336918724 -1.4259453832133828 -0.4024591487114553
Ni 8.274219079589976 4.562368454879822 12.921621632300694 0.3565736990332504 -1.4241165575347603 0.7514540069561831
Ni 6.519466993555329 5.867228023229975 9.326189795104236 0.13529967587697989 0.29324125752319175 2.0062801334908156
Ni 7.910183486288354 4.190458299779857 10.35057162034629 -1.81177669356017 1.3486209982996065 -0.4039771280178785
Ni 1.3222003586933115 4.706074553703237 7.760503517769696 -1.570818818821727 -0.6488096552203794 0.13328007434378983
Ni 8.880960581747129 8.520871577337347 6.044785429793593 -0.5898056658823456 0.1740102050733003 0.04191746616939232
P 6.941575153121558 2.621819527170572 7.671585194597847 0.20676425957586972 0.798106930928032 0.03942092499978372
Ni 0.9014548892538867 0.9680684695919688 12.796846128968376 0.0980184229280183 1.9342630197225654 0.5819105794049848
P 5.122095286063655 7.854456534176445 13.607221379152572 -0.836017075710244 0.22185252136755984 -3.3060725403234934
Ni 7.305582822445173 6.5274067113023575 0.02819856379205482 -0.6870450445524942 1.015672909105096 1.350885625964067
P 6.067675645366268 2.0235762223206146 3.685304229616924 0.6049306944492421 -0.5798912349821109 -0.09715916025151654
P 1.5717011021975298 6.241418636533952 13.286464228566755 0.9117203800808297 1.9998359205273688 0.11455678690267368
P 1.74845988299011 3.037868183509 4.9778446696690795 -0.7324072747373773 -0.9671248249930635 -0.41401959985554504
Ni 3.7908289425103145 8.656898582208479 3.2507382526619217 -0.3375225959390703 0.05505117533787293 -0.06017949770337377
