# total energy = -381164.398980946 ev
CRYSTAL
PRIMVEC
9.28364401993790 0.00000000000000 0.00000000000000

0.00000000000000 9.28364401993790 0.00000000000000

0.00000000000000 0.00000000000000 13.58755142829712

PRIMCOORD
 96 1
Ni 2.413998142000958 6.694584347652985 11.970877596505746 0.8841751234727095 -0.11113362015373762 -0.16503808348167706
Ni 1.4243709573656698 5.221446407474258 4.709105294967949 -2.068144217985464 0.21787116812230864 0.4251527336542291
Ni 1.9821322989625714 7.83923910624511 0.5416551473303161 -0.898838381911839 -1.3093160300523965 -0.9711876822085275
Ni 1.9313693326534527 7.444674945472641 2.9462025395685303 -0.6979640054578431 0.056683054514341094 -2.7370339317851697
Ni 4.075974688195375 6.647442002569279 1.8985070890285405 -1.0829329678043351 -0.5082888401537762 -0.19415274145944628
Ni 9.208428082677823 4.2623902630832875 2.090839130344544 -1.3195932436086886 -0.21018331255974768 -0.4085156393181803
Ni 9.397554481662711 2.6738751931880764 13.595703783834177 0.2999433521337157 0.1678956075351302 -0.3406197468071553
Ni 1.0300296040532264 1.6952491268915417 6.986555885092345 -0.05141203592338888 -1.6592418847518264 -2.2469425884760272
Ni 5.587463362430973 5.397928483102705 12.043991864513078 -0.16370959447824063 0.6920067594331437 0.5718861052894474
Ni 8.956256456149916 8.412773359282976 12.319683603539916 1.0820999303800782 -0.3190916429273924 0.5640020745556803
Ni 5.8200836343416515 0.11774074552158566 7.508236343631385 1.066045705130693 0.8266230360898539 -2.041099555162846
Ni 2.489167808827025 3.4664477467192394 5.74057757732484 0.6301799559343341 -0.3926794436168721 -0.9243534954638081
Ni 2.3074776088204847 3.0772031140548775 7.9650501236416975 3.060425487639497 -0.5114857498245191 2.2916003363947177
Ni 7.718672419438868 0.9231237996397923 0.2766943725969517 -1.0149092914661941 -0.809118194436871 -1.5843883299760455
Ni 2.2991130454253645 7.324618859095625 4.944265571922918 0.9877119051157957 -0.19859252239835473 3.0852240347404156
Ni 5.50864522344699 3.152642006561808 11.092727482672077 -0.41679793393163056 -0.8805519248978253 -0.7634626013812851
Ni 6.912239385165292 9.104376998845964 11.433707377672857 -0.18149262949327452 -0.3896362859151741 -0.7189953722068456
Ni 0.8100545838634058 9.031091911785946 4.551041969368268 -1.2709346020607208 -0.31086822657633556 0.07169212632866363
Ni 8.616623617917874 1.8414665225332063 8.336954765729585 -3.5666875271712315 0.46270420954544184 -0.439788738399849
Ni 3.969110660180695 2.344157286927165 3.4997453932556177 2.3254082860830985 0.06911330985789388 -1.5465077528801883
Ni 4.836927149691268 0.9019858702342999 11.93518291304526 1.2355155991314786 -0.00601149630140255 1.2859665566931788
Ni 2.962113777307594 4.637152410845999 3.2380905242103806 1.1716532532598791 0.26273434718358624 0.59050269194937
Ni 4.594326960300284 7.660677494323092 11.029232926751343 1.020813829876087 0.38143858059573016 -0.0015208075199006066
Ni 4.583019481703996 8.055659419083108 5.098036140459443 -0.1328897808839066 2.8568044016782994 2.3033770173146717
P 9.002516855037689 9.506544464191801 9.701824062531056 -1.5290826154252053 -2.3182356795940593 -0.7828901139782776
Ni 7.048532565191659 7.088805013591249 12.981614859614023 0.14401160182868103 1.0537992836631722 -0.5488161108438613
P 7.149538613736503 2.7964285798462107 12.335513145210301 -0.029025440698072592 -0.46341589090048574 1.7812093622962741
Ni 7.719294423598106 4.176135925120957 10.622177622751199 -2.3233894558808568 1.7185891163618918 -0.45929004165757026
P 7.502892678048442 6.69819568523423 10.711447288339206 -2.111959672508518 0.43695126895105396 -0.23696906529402412
P 4.507497036399555 8.468809435479361 8.772871062718348 -0.4245652365818752 -1.1552845820938684 1.055026471202054
P 0.4877078910716677 4.03429112588229 8.840088359950343 -1.0329802900352918 -0.030905688439920965 1.1993748875448633
Ni 3.1833987196894804 7.579575578873849 7.189281894418533 0.35643074569748295 -0.7460737164808764 -0.40894681331832794
Ni 3.8441435260389523 5.579210202765865 8.323760850638415 0.9566149266006752 -2.1283782230758574 0.35581265249750976
Ni 4.894764252856192 4.219314154145044 2.234554583883007 0.8131126603082449 -0.47281867227162433 -1.6406386678283422
Ni 6.706495263120177 5.586980612934251 3.4163049278405246 1.7018648616286753 -2.0445607742385694 -0.19214162456668843
Ni 6.502821393724464 7.777428603376397 3.080202659485469 -0.49364666476056923 0.22330570887431866 -0.10252376699753957
Ni 7.20639165061965 2.0500143051169744 6.381583499444896 0.2829820416890288 1.2395576304113363 1.0596665410772268
Ni 1.4663608799362888 8.69665791428783 10.4863421263823 0.2808559964849615 -1.2502881294549628 0.4621730196323201
Ni 2.500336032760798 0.25493629576105525 8.51542725466759 0.12043175762621196 0.42952129503556996 0.4488626756766592
Ni 2.8623981553020625 2.384615408210109 10.695386583929041 1.6273848881422295 -1.1017634702472767 0.44960675293153535
Ni 6.586077114620618 0.8456100126613747 3.0585717685746703 -0.8773652996397278 0.5903322278097769 -0.42178201740978327
Ni 8.875674424774065 6.835120153064002 3.939533898226741 0.13261158752185548 -1.6010382798279008 1.1700550555348235
Ni 2.8665200933125323 7.145704468695233 9.538977803456163 -0.5994455029649548 -0.12606941552796352 0.41693085996506907
Ni 2.311543844965948 0.3636152762105248 1.8103783833087466 1.0334767700557363 1.2745025219176371 1.8822645151680872
Ni 6.654284048320893 4.5561990337034395 6.448095239720144 -0.09815751960904387 0.46094094699743193 -0.04997170393243652
Ni 1.7579137250236838 5.166385113915482 7.53296611496537 -1.1376750965422213 2.551153971857477 -0.9460962864575384
Ni 6.9409258456435605 3.074585126399579 1.4192333886832509 -0.46697095524159576 -0.12524203453066174 -1.863548683926139
Ni 4.2651660726894365 8.797571126390997 3.057769661718579 -0.3883954715295376 0.6901529940538565 -1.1060271306196372
Ni 0.193590903465147 6.12137502216099 10.95484122930653 0.9639482270372948 -0.12547960446276454 0.8543919786730059
Ni 1.3836064758251905 3.0538918835497206 3.4573386350618684 -1.0086339999804435 -0.04303461049297105 0.6383709763855586
Ni 1.0291940760781313 1.8674607262028355 9.695437843708078 1.495760861344624 0.6008069020888556 0.10025991066402733
Ni 5.272979916249298 0.9215613623263642 9.771841306844037 0.2896751374384882 0.605316359923435 -1.0767350665237392
Ni 6.021919342192155 5.815302557595274 0.9385522878821341 -1.0221230356058137 -0.6644419624409976 0.14566173583759429
Ni 9.047728202134508 2.031994751787421 4.862631703662864 0.7818331334686728 0.39587969572172466 -0.09687813867598799
Ni 8.705505227179671 8.577613745125095 7.199934876100998 0.8512349211012631 0.6583052534156404 -1.87394416822785
Ni 2.3476572207783972 2.6909013965916837 1.4605391066787083 0.2188780121202682 0.7399133533064354 0.07961883737490805
P 8.767130057165028 4.167938467320855 4.256001259167059 1.1321767924318114 1.340498369192472 1.0040651496628386
Ni 9.139023558879913 3.7898156403694276 6.756437555284869 -0.6865701617986048 0.26823753639000253 -0.7384313694442701
P 6.2466113819835964 8.77364717537077 1.1228057020433835 0.024784663143847637 -0.758437637362868 0.012525643270836492
Ni 3.1176612353378217 1.8586226969551616 13.033858567167892 1.7570366217048128 -1.9485475546660376 1.7554893318223508
P 3.1173270241477837 9.001068606547523 12.045133752745707 -0.47890833010913 -1.025198589207344 0.04085765744631028
P 0.671766348705395 0.3645371420763798 0.5549316868545793 -1.7313667277425342 0.6447817650079088 -0.5187128637005777
P 0.7178178655993935 6.057484982998709 -0.4146753191330108 -0.9696421920982786 -0.14611373577334835 0.6581389030411052
Ni 8.112215379352888 6.406132239717611 1.621633542099152 1.2540601949028853 0.339327510358293 -0.5590413881162952
Ni 8.954696803929739 6.2360001766998865 6.212242402910263 -0.29009319881251333 0.27404308732818616 0.7752742493042326
Ni 3.621670277203597 0.6454490742187289 6.472035901299872 0.9386030634042867 1.3234177595611014 -1.0877596997690169
Ni 4.7168339287375805 6.2125311242438785 4.113767475237765 -1.5138729975643026 0.11563099380345891 -0.09736253451157426
Ni 8.43160058965512 1.7646257997569488 11.044111823258953 -0.8862150367208737 -0.7662669035992996 0.8375422541055189
Ni 4.946427732649581 3.426973691718074 13.267021003897966 0.20678071463610193 -0.4318810535169982 1.6022171306273503
Ni 7.708469694498539 4.5502575014360955 13.376509518118862 1.3039691639181863 1.2541681812356593 -0.442212003129361
Ni 5.994514024609032 6.781562809860399 7.749728065908741 -1.852128357904339 0.3694068462421767 -0.7327194066611574
Ni 5.131701419304863 1.3378102591458045 1.207847596077409 -1.082860976915819 0.33691324448984555 -0.40278567881293853
Ni 1.8336775450764853 5.419280864688472 1.5256100253791247 -0.21795807140916013 0.6403165301477036 -1.9388902340819316
Ni 3.588889729647361 4.472321308648047 10.730918803616593 -0.45743319095448964 3.181163206541902 0.5646587343030727
Ni 7.325584358089068 8.259240452037144 8.917319924146062 -0.0005676995780119255 -0.16298094384233222 2.398264350812876
Ni 8.669243313060539 8.582515509245654 2.7351472446950598 0.24366833169107066 1.7773362524941132 -2.138467488991059
Ni 2.3002920682346657 3.7653346706991373 12.854978526250921 -1.6492834879875338 2.67683026571208 -0.7619960441380876
Ni 5.707203804906287 5.483597951482469 9.675138227370931 0.2656206675924458 -0.10818096528331692 1.2047940016779057
Ni 4.3329552424021625 8.137021276569048 13.706985898108275 0.8805786643707028 0.41465209123322133 -0.5309117197596146
Ni 0.3825353430243478 3.702382279597796 11.1971749781099 3.765816895909663 -0.1560039983038668 0.5627183227472502
Ni 8.725474345784448 1.678009399672077 2.1548090088466685 1.7509677898029135 0.3392876582592931 1.547622840321238
Ni 7.1199702070623 3.1434047806149223 3.5841383605623194 -1.1022686920184694 -0.43245466663228105 1.3888345944040146
Ni 4.752761631666675 2.907043200104651 6.665889531894965 0.21937912012640284 -0.026142462723322716 0.7579247022821914
Ni 1.3377359899924626 1.0069968828731013 12.079184302824089 -1.8247643640690896 0.7989931901877271 0.4398887543128231
Ni 2.410656030100577 1.2712650977515536 4.306261980326704 -1.165836903688418 -1.7590433677221964 1.6472937112510146
Ni 7.684211532288274 0.21387845106487588 4.9384632943180895 -0.09562318322296434 -1.953252930561507 0.5634539153616941
Ni 5.04284766097557 4.1104727099226395 4.4923024959902405 0.11226439132407118 -1.3875457003892617 2.2710538797019337
Ni 0.4679448693674153 7.143662066978334 8.846677890580594 0.08975978246365186 0.15372034447601265 -0.7319511610365652
P 4.31815711359881 3.24443868009227 9.192563263159599 -0.09758750603818676 -0.5272484119754145 -1.4633950434194085
Ni 6.608979864782396 7.263662451490344 5.595502998280223 1.7847942514340553 -0.44417118373826087 -0.5539585742767491
P 5.72404433542654 1.2970736285378284 5.1501573039103 -1.895182508781336 -0.47892864182410416 -0.44154865851374925
Ni 6.473680034681975 3.156494718891414 8.90805299053784 0.04327886529329321 -0.3297830612029675 -1.980559331685944
P 3.6727860219910897 5.126651116877621 13.745438752250992 1.1531652217580204 1.1258901880921512 0.5524135983871324
P 1.6865596359505515 9.010036606813545 6.5070380249054445 -1.0767792894981132 -1.2377565726468553 -0.3008591790797657
P 4.337151449565974 5.45123516791378 6.316268420902869 0.8840673942502516 -0.2672785149108429 -1.6053860152736352
Ni 7.733684072058079 5.570270053432347 8.50198917973481 1.858812454792734 -0.67707147827955 0.04403271274018224
