# total energy = -340868.122891074 ev
CRYSTAL
PRIMVEC
9.23838823685657 0.00000000000000 0.00000000000000
0.00000000000000 9.23838823685657 0.00000000000000
0.00000000000000 0.00000000000000 13.52131501523191
PRIMCOORD
 96 1
Ni 0.15380161398345693 2.1001443590338416 0.6732992898939058 -0.3578715919090675 -0.26109064093257617 -0.9713632885544432
Ni 7.05151405432145 8.650411173736332 9.605664230033147 0.44618281485165096 -0.6398308487605369 -1.159742360754906
Ni 0.8278492133380614 6.478225861930522 4.501462027705629 0.8208807342894379 -0.5922086188968834 0.21191392209760923
Ni 1.044806298126818 7.509664212037202 12.469790051853828 0.18242259750671164 0.7664108853763317 1.0499320873982823
Ni 1.294187354696002 8.491575561911704 1.3308600613032866 -0.7425754735196308 1.3708049905958133 -0.35408409984217726
Ni 1.2560235722003623 0.9139297449671155 7.870216339301019 0.41004750258167444 1.0817011522797628 0.49806330577102603
Ni 3.4140649113601236 3.723689498709765 11.355471347861132 -0.34784248980783966 -0.2249548144419674 0.9604813515346167
Ni 5.627832209370938 4.17476305090829 3.1694102142982663 -0.7311086105306117 -0.3609252911337268 -0.7120582787673801
Ni 5.062470554230374 7.817625889474179 13.292791882796472 0.38209446901217425 0.9554854409819222 -0.8105490133461266
Ni 8.498846173585408 3.4453368561066116 4.635552616190975 -2.0391138921913847 0.16281485057811312 0.09262090606153081
Ni 6.555717463860667 8.113642330705185 3.607202659327649 -2.4150539115663894 -0.3552881474526075 -0.6917992714080279
Ni 5.982262980478471 6.80034075040195 5.728345875203075 1.6038847481377605 -0.07793476480426578 -1.0610384817240888
Ni 4.415561644650447 5.400872721457507 6.677163470137883 -0.36418930659697923 -1.0509592431112158 0.7967419322597052
Ni 3.297060722227401 9.035892168268663 11.625816155395967 -0.0918680870559063 -1.513879939542838 0.019617517120611376
Ni 7.9804340083123915 3.5127586146767347 9.803994876122387 -1.357867713708855 0.10039952156568516 0.6322661490394015
Ni 5.748494800311521 6.921566883035159 11.061936337755354 0.5150834944781064 2.353549524404005 0.5658368137715739
Ni 8.459241202498792 8.070212666819442 4.978237700282057 -0.1063346561031975 0.5531895573212086 0.5926482775374632
Ni 7.741538522581395 4.514107533752599 2.06320373916285 0.5786190531379067 -1.6791486509780822 -0.37965474922243003
Ni 1.8446567277298187 5.917806744585932 8.292839350571542 -0.8109436776813841 0.2811604150992577 -3.0951729184230112
Ni 3.9365604443075695 6.344638765613176 9.072329295971654 0.6399275222394011 -0.7077853624236391 0.5860937642483971
Ni 2.506762786233815 8.302687472609875 8.413219246826973 0.9519676576366508 -0.9508376577972656 -0.22043404375347841
Ni 8.155630805999952 0.26577272911384986 2.7870813578892726 -0.2516960870915536 0.42986582285918223 0.3012250470596167
Ni 4.723560275641039 8.52173890004975 9.502820642645599 -0.6869116042984235 0.6632664540756578 0.5202272434625751
Ni 1.5756902877448133 8.761484317513887 3.61096175956911 -0.19076299905160693 0.1730766375154374 0.39673253064032316
P 4.127360880008961 0.9516741046292279 5.37608889688693 0.25193957056092736 -0.30606283476789226 0.7529922979775806
P 9.114122841271103 6.884336177768292 2.584193414800495 0.0517449937827754 0.9024168432917168 -0.56023052332839
P 0.05633938784105776 7.906961105337852 9.35654739137231 -0.033256705170600795 -0.36787035499299225 0.44125426720178196
P 5.233713321681155 3.4764979401922544 7.663300458868232 0.668581695640984 -0.19653872519311957 -0.4095345675009979
P 5.678199902947851 3.2350526592618394 12.184205598808266 -1.2554419057417605 -1.753783661985154 -2.0191096811553164
P 0.1688749685029161 4.026967313226071 12.91254535913367 1.3591512084069688 0.35497344442566614 0.5996697031606188
P 2.9185269957746427 7.990688619440487 13.531050843566454 -0.4162117224108574 -0.8410903764680934 -0.10441532759329758
P 2.4164205860341386 4.81977809086546 9.850940670634571 0.6328261353079295 -0.7651312473329597 2.0189780406734585
Ni 0.20916173265372365 5.243977171197655 10.598183097472765 -0.18580359816380257 -0.4599762690913175 2.3777983696490406
Ni 1.9618733997958262 6.303583367547182 1.868915811839066 -0.6373304509361863 1.203705139489101 -1.3020452074225963
Ni 1.7962198573292765 6.891994801754951 10.386749645110575 0.15694193673710388 1.6712715622228507 0.11942645629014917
Ni 4.647546815855485 4.87366561042418 13.118663966647219 0.7905805406439997 0.2170792683486326 -0.12322680387284583
Ni 6.338615336373971 4.1833455137353175 5.506149700350586 2.1232938665744143 2.363300947363814 0.6373157956481669
Ni 0.6360501078502311 1.5614908847683433 5.518833083790011 1.2141792995475476 0.24913706811512573 0.3120784448343529
Ni 8.446778616542215 0.11873084392537227 7.095174677917285 -2.18034253195829 1.5257913462684431 0.19512590400599297
Ni 2.2202526466702035 4.809412619076522 5.752427582254971 0.08212360607463276 -1.053960748941701 -0.028048678607100083
Ni 3.8957360059516675 0.8863041921235639 0.1683576187523095 -0.8989821065785549 -1.0363751746494536 0.13055521921345903
Ni 4.077020901597259 1.2834800625361265 7.655688026823593 0.8972936631325386 -1.6916557823061575 -0.2999222690877931
Ni 3.011391276008526 3.034856782553896 3.1414751754431918 0.6120781041273007 0.5858142853347653 -0.546380247708859
Ni 3.753547970030488 8.422241456942018 2.103714072313027 -0.1031313186745514 -1.6320894927067504 -0.9804477673542149
Ni 8.589086751512642 5.770897892190468 8.591889678554322 0.37455136655759363 3.0626314941518804 -0.06588734672142846
Ni 8.183142726666139 8.60087493511575 0.6850930165300553 -0.0722135460497724 -1.3237496889792233 -1.1076417834049248
Ni 3.8543942178451585 7.879966534422273 4.620125431395655 0.8454615089525955 -0.4176458837542226 -0.3672489193589094
Ni 0.534919317672727 7.624026222086469 7.3076354390699665 0.6426392647436094 -1.3135724913359053 -1.608808410691623
Ni 2.5886703378209224 2.4222962010588853 6.201916750842265 -1.2675325183577073 -0.008840738220081547 0.7218192148088859
Ni 8.180112535269728 7.556900091945264 11.3379202575718 0.873718961136392 -0.2911164978707051 0.7811654179776869
Ni 5.145967108622917 6.300839566191287 1.4561242935077476 1.6207743248042477 0.9252415544957161 1.8990723307540454
Ni 6.1255041926776705 5.686209585693849 8.56218364064226 0.0635322162256906 0.175275187828653 0.12976254810883459
Ni 1.8826172656805773 1.83802356485597 11.754579889127744 0.2862702255219973 -1.1776012433131977 0.5730359026231744
Ni 8.782741849230774 2.3552809315785237 11.675290496814242 -0.525377677315263 0.7246649117877971 2.096798134276731
Ni 6.772634823579287 1.441770609444936 13.117339181750129 -0.2544309695242134 -0.7828824006687937 0.4591902828549124
Ni 7.66559896990307 4.121965661181207 7.643775124977036 -2.450619210265508 -2.3404016741681373 -2.7875036583999475
P 6.8414331020215595 2.289993240729653 1.892510655822088 0.5747228034072941 0.9209233867363364 0.2977630566529452
P 6.205517874642022 9.023466535865701 1.4590713394085246 -1.2299388763746495 0.059851424939993694 0.4766239049503276
P 5.167446361661494 6.206219992160703 3.765064545014527 0.2963625767609928 0.7665600093596864 0.21929710193555782
P 6.803980675433004 6.250176244185456 13.386629889168104 -0.10536637865265724 -0.006242638475602151 -0.08238277327329037
P 3.7325213980236915 4.845516240958139 1.5650245683327546 -2.17480771818299 -2.29843072905299 0.6260952443419991
P 2.3495993227102554 0.5909316665642942 9.815379342152251 -0.5394081872664 1.268073478462842 0.6925569755096589
P 6.842061312433011 7.599923266741244 7.609431416086322 0.3373958405532189 1.0812182991060733 0.10110606071440652
P 9.023799117848235 0.29672964481577174 12.49581828734238 0.3679955677169469 0.5446342115520298 -0.5455382114235379
Ni 2.2112544563650105 5.3114081681561816 13.213732526354223 -0.7715932009082195 0.43291180877435764 -0.7382207960953608
Ni 2.3349102851483896 9.03232615034484 5.938372321011384 -0.5901982733350739 -0.08963097019527144 0.8610498503091558
Ni 6.4468338181347855 1.295148147089986 8.354875128702316 -0.13832020787085855 1.21567208204299 -1.1774415778068819
Ni 8.98449901357894 5.999464859686141 0.5426444580558918 -0.3226675332041088 -0.061968728393312626 -0.684223258832983
Ni 1.058063385486112 3.072540168852544 9.929553812916925 0.7254658104225377 -0.2503974228847881 -0.8035846662131515
Ni 7.577797326514408 5.867152660968504 3.773744934758633 -0.15378127962093516 0.5005428776597701 1.9128210477987058
Ni 0.9742065339458257 4.130501932066215 2.027507530209836 -0.2839824579290851 0.12511425070354582 0.22398602277079488
Ni 2.93084176751676 5.596735794004121 3.662220957626979 2.0873974097881214 -0.8586656663476954 0.8788403415233574
Ni 4.353886163667418 0.9665017180171489 3.2849769101953754 0.5472135422434317 0.6222992676346766 -0.32860935260984053
Ni 3.805449236082413 6.283074145290993 11.443480854988875 -3.055568673767828 -0.46746486415887883 0.9618453217616788
Ni 5.236531030144281 3.6828373451886516 9.893790163728564 1.621311171144324 0.3848267803416728 -0.14975364651878081
Ni 4.685063911162866 7.849017933269914 7.389898668610616 -0.5781883933583913 0.2396674380617937 -1.7445757702336406
Ni 4.455702442264476 3.2326137247232656 5.446277552783958 -1.6846361564552148 0.6356818595891698 -0.12284113839865295
Ni 3.162725316449357 3.09684636874265 8.637903319676576 -0.4871813687511997 1.3660520492918604 -0.2207407763606198
Ni 7.187004258649956 3.943387613337896 13.359451474323292 1.3225417847140515 0.9539204104876473 0.5638992304292288
Ni 0.7318549671130083 4.052816323979593 7.38006902334909 0.9638114443491144 -0.05102379934603471 -0.9129951330281952
Ni 4.201692953105043 1.552021536654562 10.244370374549439 0.3820412471767356 0.40730310706731787 0.20476754086081508
Ni 4.871974985346305 2.7118550087957134 0.8419719376907809 1.937740436748205 1.5435836372548577 1.0472581401105447
Ni 0.4992877774385384 1.8450724552079847 2.957666352085712 1.5290530477388504 0.282810549108171 0.6674326696382054
Ni 6.195300217067542 0.13650273169754903 5.947742818369246 -0.10493931841756766 -0.35372388828928114 -0.045234703468083386
Ni 6.018218788145629 2.078988449589393 4.439939903970101 2.687343763648894 -1.1941455208251242 -0.8704060947130752
Ni 9.049472599222085 0.7812978980107123 10.051718565811948 1.1426393825260321 -0.7740750867898089 -0.979154759574404
Ni 2.6549095826753737 3.1595380724500846 0.39783364366690516 -0.9207171842628015 -1.2378445043749713 0.22893745323879927
Ni 6.796479104049209 1.492433931450767 10.588081843592171 -0.8933542188688163 1.515551927928622 1.0552056770923957
P 1.235117099242814 3.5482247877584974 4.225343227418488 1.4773391643043268 0.4774273746882294 0.2591610280100311
P 7.17847722615335 5.711550485085169 10.561742274414414 2.8264885243035773 -2.7107958240242476 -1.8706287307013718
P 2.491602590863361 1.1661617681976784 2.051102374192858 -0.368987499316571 -0.1682460488960135 -0.6508791361548985
P 2.750757862363648 6.761456373610822 6.316833988034594 -0.3116997213386955 2.041128094407936 0.06676357867879469
P 9.014671590105388 2.4242639777888706 8.15597632172625 -1.7051733571766183 -1.5970476706112688 0.4795801593651741
P 8.071570709914786 1.071403618341039 4.893823773921029 -3.094317769511568 -0.7513478203956222 -0.7951167379514564
P 5.506735414175381 0.043968261929677656 11.426120075500663 0.13842176644572934 -0.6174545379478656 0.7745466271095887
P 8.622123228444234 5.686800842551686 5.951379971883778 -0.7544349439613781 -0.5750879000561967 0.41869977894003374
