# total energy = -340890.15237206174 ev
CRYSTAL
PRIMVEC
9.10330708325036 0.00000000000000 0.00000000000000

0.00000000000000 9.10330708325036 0.00000000000000

0.00000000000000 0.00000000000000 13.32361009271706

PRIMCOORD
 96 1
Ni 6.661463185537574 2.2070876607185648 11.120658001042807 0.5112486941130486 -0.2808878781641614 0.6732873286467694
Ni 4.542896081360085 0.04006911576215549 6.0167023556126 0.6742257813006389 1.7555631224830799 -0.9140641977226579
Ni 3.0180466548470317 1.979350231369727 4.618002915146813 -1.0574772467353917 -0.8962281979825018 2.032112264062571
Ni 3.343799389859975 4.406164411342915 4.6754547954827235 0.22968641558968184 0.278985518935126 -0.04720751092373805
Ni 3.8349410050907577 2.4389579914114634 2.647241653861054 -0.10672469245276457 -0.6017396983157701 -2.246350463417983
Ni 5.0341105230462695 4.245454630884652 2.513658817709326 1.2314326873113566 2.099505763015881 -0.3068814740144457
Ni 5.19250806354552 4.29047958693691 11.839599858440213 1.3330694237182528 1.5761844540090144 -1.5612100920873695
Ni 5.616221484381019 8.030445790876593 12.421294798648477 0.7141200463924153 0.3041411922651472 -0.1232499438012974
Ni 2.216664339603922 6.832241223455158 0.09948822072461035 -1.143290900067102 0.12501012102551373 -0.6015756619340801
Ni 3.0444553482371655 2.051584971821541 0.10791515194530903 0.37512240856971524 -1.300616702506186 1.4594882521658348
Ni 8.016572351122521 8.949852480405497 6.805446549851394 -0.45774609420921814 -1.2221018968287338 -0.6607614282656169
Ni 8.802378908216538 2.4108287730124585 1.1691823146130642 0.49578376570822996 0.7560593669386786 0.5944439359853052
Ni 7.102227100244054 0.7393196099495639 4.599243730565962 -1.5341713428020223 -0.1783833944403315 0.1777604161443519
Ni 0.9253056324164609 7.739622444535812 2.7035201179342994 0.0025675036168600943 0.3642039618849986 0.00395718487553512
Ni 7.976144565067511 4.051153647872236 3.802557811365586 -1.0795686793177923 -0.06565003389964179 -1.9010993884864034
Ni 7.972020767030375 4.077307448668463 12.259386112668158 -0.5406130062077785 -0.21382039509170273 0.36697818219602607
Ni 8.41834680226818 7.215271965641739 9.37004201113023 -0.18418843115788278 0.3191461503144116 -0.30064577751737903
Ni 7.017420692928478 0.865153711246524 0.2574415198459099 0.14620912370063208 -0.6122061450647328 -0.9312731054017768
Ni 1.982208669744254 6.692796767974265 9.466957637317767 0.41750858684541 -0.3247287866085117 -1.5956687879858713
Ni 0.13924964471269258 5.004779668133133 0.9114458476227765 -0.3695405436065636 0.019283273709644208 1.0221245782677109
Ni 6.4462519065178725 1.964511841081579 6.760785726076145 -0.11929198759481392 -0.07157179870071545 0.6266439177566175
Ni 3.346484865402922 4.673046060470303 0.37089603405523014 1.533853040230655 -0.6236328988444356 -0.4319036792248175
Ni 5.98470514210106 5.726325981641849 4.624651970525012 0.6608275056168619 0.47203808535185804 0.35907049731317514
Ni 5.383777645351829 2.9104910835252698 9.083557300870021 2.129186320799449 -1.2271901099849187 -0.18087762161709495
P 0.5253363670340779 6.048928972458658 12.386680384395929 -0.8413729407055187 -0.1787577470606147 0.3516415518389557
P 4.296396736438319 6.245105236697674 12.30625904002624 0.5179605589155853 -0.036670615948156196 1.6800102276474291
P 2.359213022746323 8.582670595575765 1.3532921455226683 1.4451237559140466 0.5677350592355512 -0.033005508391743155
P 6.427890536449654 7.81535285484692 5.737452953696575 -0.5701133296597407 -0.6854237068989874 0.22137635306208972
P 5.10064659336288 1.3298019723327679 12.530295064779274 -0.7657634816003199 -1.3238039392559267 -0.8247836688882698
P 3.917034626942611 6.107308479770249 8.274002036669428 0.7171025260595069 0.9963680381288967 0.012023763933753486
P 4.892353827606364 1.0839216522819182 4.004597515595152 1.732433735554468 -0.32201421589082607 -1.006925759040085
P 0.40568523180074395 5.80461442119895 3.4511747157046173 -0.9405781848527865 -1.1377051784492083 0.009236173886287318
Ni 0.3568678380834286 0.27351887020658394 4.802414975846335 1.734157146003478 -1.5705797062277274 0.5492863656120603
Ni 2.01653724015935 6.678195063666172 4.72889575878737 0.18976104014965384 0.034308800584198974 -0.40930651065059187
Ni 6.121655291484434 5.915328840023772 9.188147925126232 0.13984101539075913 -0.9627930303869289 0.5349748340853947
Ni 8.889442935649575 2.1656767175156286 9.848998850041575 0.021214429294086044 1.2728716711824335 0.211135649170688
Ni 2.371975859055516 5.420027013528153 6.833786054640371 -0.7534008462699089 -0.8046925545653496 0.7422314599166506
Ni 0.7747824524075458 -0.10965479389872322 8.98120517978673 -0.31216663367278497 0.9341432278607202 -0.30227045760499555
Ni 1.6392779945633746 1.3363017334773923 11.330157865297611 -0.22115498107990297 0.25299526551895135 -0.963712971098037
Ni 4.171390125740864 6.983702044077373 1.2508417087245836 0.9431258909753049 -1.113477416250095 1.2128418116830466
Ni 5.484442013331181 7.838903109862527 7.912105531840495 0.506512979200276 0.6714461616729726 0.39843614359499124
Ni 5.418989236538675 3.0363443017667726 4.7638296991129945 0.16975657200326894 0.28563721992368873 -0.3883975284120666
Ni 0.7978110879363364 7.480442193067181 6.809057831708638 0.22521089631683147 -0.20729904903341714 0.0784384439135617
Ni 5.253427393489256 4.856268318954696 6.930422209305303 0.2512458869280125 -0.2670363169930498 0.14285383407515398
Ni 1.0565844215854097 7.921187901159811 11.337112791788497 -0.0062022721559699635 -1.1871487777923166 0.9682995620274549
Ni 4.805608415915711 0.6565659983456302 10.393894582335234 0.28473656248629026 -0.3384908733896106 -0.8206318515034254
Ni 8.18006774349991 7.123902074033061 4.568505504402182 0.02151216304016295 0.6182405241842708 0.17004813510175876
Ni 7.614779693363012 6.259005986372522 7.081911250178986 -0.44171835132239406 0.3150131019826446 -0.5253666215716694
Ni 2.1888810468680764 5.4593715060590595 2.3320979127387904 1.1077358857806279 0.2579708643566718 0.4481810762286023
Ni 2.6524123321945927 5.322348530220281 11.30361717395706 -0.030114302886877168 -0.6772275442414402 0.27492034772681684
Ni 1.180261949471779 3.3634807394323536 3.3124758210609015 -0.2298885042981589 0.7335179913030528 0.8883243697543928
Ni 1.739960569156577 1.1672806337963808 2.6587127309175544 -0.6992886378065376 -0.6755480996564882 -1.1860288052552606
Ni 1.2581316369103193 3.5339310583006287 8.044608715790888 -0.7218418405167052 0.43174838459387577 0.1917032514776892
Ni 3.727904322263735 3.0237817382099355 6.928717159918205 -0.04151997362065753 -0.7045056632311028 -0.17805583589758367
Ni 4.050507313080543 6.905941596321936 6.117801861662978 0.42008714620586357 -0.7521803435992465 -0.8146437522407906
Ni 0.8411928970885884 0.4538508287422117 13.388495670196297 0.3655622756851059 -0.8719022196426274 0.7123791524419087
P 0.4066601959724376 5.7790978518874905 8.206997146046167 -0.13912239205717974 -1.1937616551231442 -1.496541191154074
P 8.715333087397351 1.4907302321572375 7.7933656376303775 0.5588835223821924 2.1338119924969186 0.027089914238256574
P 1.800916312328013 3.4226158212187405 10.205152078531372 0.8573176369602332 -0.7180376362792666 0.2788201970018553
P 4.188103797255612 6.089229312216715 3.5636260454907753 -1.4038606354992018 0.9889275226904517 -0.8909587220534462
P 7.149464159879147 4.1688594064156455 10.178944568224285 -0.4784771561089824 0.21156245229546145 -0.1826542539015435
P 6.553252176117194 7.965530109192676 10.362757631328128 -1.1633537322552479 -0.17164401883396893 -0.6598168049641605
P 2.375453322300959 8.719921154087674 5.718493496363369 -0.6561928350583279 -0.6490523673588047 -0.22975352138219138
P 7.1473157794447895 3.9684227945356154 1.6576038617345838 -0.5679592594312154 0.5556986968963075 -1.1224258836926346
Ni 5.527691824533018 3.0049196862608296 0.34898619494755206 0.15633361372914364 0.8486360500258352 1.377354361678557
Ni 1.7381125978507521 1.4871253226148407 6.754151235989026 -0.9259367807905278 -1.5002024420557454 0.6081795404038429
Ni 7.2021449970555365 0.4544516469992778 9.06297290325066 -1.1840210307966124 0.4841796058103984 0.17495508548507288
Ni 2.762698895593928 1.7066333625032573 9.034753562113094 0.5836908112338592 -0.5306538381125376 0.17499082381901476
Ni 6.6322415703075395 1.8774205037277665 2.3320050590081527 -0.3989691332803258 0.5877295000796072 1.6051790414691516
Ni 4.223197045452429 7.149327610275269 10.362117668851283 0.7785657755713107 0.4616762825015597 -0.9939442591787527
Ni 8.443107797104844 7.70172537780602 0.5554856092397946 0.49455889216219345 -1.3126427804327843 -1.4050600551239414
Ni 7.837155274932881 3.8537029206636864 7.784079354235936 0.010968840306677883 -0.21904436249480339 1.078468247164762
Ni 3.315151282966231 8.850817604365762 12.178858259607447 -0.19110649843395475 0.09865682784296557 1.246311661305718
Ni 0.3855833094484194 5.111743524504753 10.494287671768213 -1.0504221396608233 -0.9431629148608273 -1.4922204522915334
Ni 8.547641070527426 2.4800594221789414 5.6117180784451 0.8050242268731554 -0.16732302286111184 0.4618017523358305
Ni 3.6350687982400927 2.8097994056251423 11.408661142898147 -0.27301156073987815 -0.5216601192543597 -1.734134777405975
Ni 1.2954825052245966 3.4920285365237285 12.496479920874762 -0.3673731036415996 0.7489340687478069 -0.24632608102889192
Ni 2.9320568176311737 8.491555596560996 7.9009803804471535 0.9026076191462843 -0.0218165816544592 -0.07122727087710312
Ni 5.580955273352622 8.016890966864905 3.494422706245068 0.7405293896238795 -0.5165616216855297 -0.03988912288545389
Ni 3.3393387694666057 8.684673149673129 3.7095329385578992 -1.1500642142351936 -0.6072603710236832 -0.3457159303831401
Ni 3.6647819920440905 4.143206287500306 9.131203098986058 -2.098342338835399 1.6791273108218439 0.4036205160094082
Ni 7.594970897493679 6.437449008721161 11.467577745318328 0.01530397734692203 -0.37133543072345726 0.6703501003953165
Ni 7.8929676496915535 8.792947882241984 2.493886435067695 0.15102222881855926 0.909843217662775 1.0575240408129272
Ni 4.560829596002816 0.13759011186022052 1.1119152314077372 0.19419285066876235 1.691788708339596 0.7485653725544786
Ni 6.274372368462334 5.823840605425067 0.17227280091470892 -0.3088488821534617 -0.5066261077393727 0.0978055355862638
Ni 8.282753045616666 9.080821757138986 11.39052735550306 -1.4160116690394386 0.9117509762084491 0.08174308280676244
Ni 0.1479615094401514 4.947037392306307 5.554879760995952 0.5888492155063472 0.41578440506545167 0.9272416156448805
Ni 7.289709706369462 6.120826890554238 2.303825772421059 0.7654685760677205 -0.17983118263045159 1.3168653031545643
P 8.788969737115654 1.6551996783756269 3.4161998104978286 -1.0410959771638908 0.7525485255719426 -0.7697036971949904
P 1.904302569078013 3.385756531478426 1.3060532652261905 -0.2032333636044758 0.08348166276442397 0.7118155666289547
P 4.8426042552599045 1.0776312671965744 7.919300785634207 -0.4655092830944047 0.20008761888664248 1.1838752492473674
P 8.782743075178786 1.96286414252811 12.298384679535905 -1.3201113208956876 -0.4886371273611198 -0.4790517976655298
P 6.3735073808782445 7.875789709523617 1.2862162491053906 -0.47432328184160893 -0.17650006137468957 -0.4910835320190832
P 1.6292552536386804 3.2870493744880016 5.696069320414414 0.7832855496444832 1.679389820454611 0.12348314285802604
P 7.0205886437384635 4.152737449851037 5.769202557259749 0.2824241123030297 -0.04842698515313595 1.0800972981277528
P 2.6229813409052776 8.706721359046071 10.153722946057204 0.5281346712351098 1.3944635105550178 -0.6439410142741684
