# total energy = -381172.18255321466 ev
CRYSTAL
PRIMVEC
9.21830282316739 0.00000000000000 0.00000000000000
0.00000000000000 9.21830282316739 0.00000000000000
0.00000000000000 0.00000000000000 13.49191798203585
PRIMCOORD
 96 1
Ni 9.046529096332055 2.408429139467121 11.405096435123323 1.3824981106630254 -0.9555175797714383 0.2869741935675574
Ni 8.060935799445334 6.120455372810229 8.430357446649015 0.27361936952720617 1.4944190026047488 0.5044676666354732
Ni 7.311229656837486 3.715612153192046 12.011827620751612 -1.269035328155479 -0.6876276565288416 0.8272398437382464
Ni 5.6731280036853455 3.10949951569194 6.161219630301206 0.08922576433705279 0.6046532724181393 0.3675726212469153
Ni 4.7766111682389605 1.3901200853981837 4.879257893457245 0.20783306716001623 -1.2704484064529218 -0.08452373087569315
Ni 4.654772858101641 7.318862411683041 10.504470080220235 0.6921440563419563 -2.0191842431469937 0.48118709884097777
Ni 2.3478741073651275 0.5002782231204772 8.210924963142261 0.7900768615347038 0.605678371248544 1.2056882313574009
Ni 4.223439244601201 7.529537507383902 13.068434114441152 0.8138217705601275 -0.1785597721171957 0.2512726264008899
Ni 5.912121726059572 2.072532616444979 8.628958409141292 1.4085634402915095 -0.65777663460568 -1.853185338413944
Ni 4.650182143230763 0.26017277341005063 2.8680445064291105 1.3676420194867995 -1.1151756298881244 -0.6208265397438921
Ni 8.465149165656374 3.4953961139342393 2.6847164282703053 -1.0285122269616092 -0.7826725986508327 -0.4317311582026952
Ni 6.872300161703304 0.5149417776287193 4.022034996180742 0.805667259773793 -0.5310780701341499 -0.579701230458492
Ni 9.400272253872307 5.074353135336281 11.559767574890369 -0.492550603482913 0.4666040588204803 -1.39711920301031
Ni 5.405188810036914 -0.03211380199934783 9.465362691027456 0.5879716979974002 -0.373970297243143 -1.244477436310457
Ni -0.1154343550754753 0.1859368578946653 5.287955042224902 -0.8323627667871085 0.7836082230912247 0.9851611136694839
Ni 0.9269187985872558 4.927772900071583 1.2789869904808435 -0.13794534102994307 -2.594565763184209 -0.595165130422046
Ni 3.6420408773196127 2.2420295528522494 2.983252091251928 0.8596077185459905 1.7506183768832948 0.4857891163893634
Ni 9.007803005624112 5.122150036150535 4.625555446890305 0.40763040849974963 -0.11384716243015877 -0.25767518749312396
Ni 2.0508511678981853 3.859048947149577 10.685774740880731 0.6243726052239377 -0.5132161022520646 -1.0394358158526484
Ni 2.958909318642439 6.3447366836705585 5.893202081077668 -1.1770371432796116 0.10989923352600428 0.13082621348665857
Ni 8.130727571106803 8.705387358929332 7.825555651828906 0.54954141904566 0.7164206695011339 -0.2125142746857695
Ni 6.026465555895641 2.399727061478952 2.801691161769322 1.5519194108140628 -0.1564356865246467 0.39792166585241795
Ni 7.852869483480331 7.48153780390467 4.861299717473397 -1.2304692949568228 -0.3357073971072025 -1.4742065322126159
Ni 2.3861024097135775 6.430992344407102 10.72430724722665 0.11061400020484176 0.12753237322673522 -2.7535622684574963
P 6.101281302666805 6.681462853958522 8.918657406911626 -1.6961089329815047 0.9547177095779622 -0.5674021013761648
Ni 3.716884278999638 6.304231460492577 1.6119871227149742 -1.2508967095732395 0.8634211787548097 -1.6514115900741304
P 4.651380522614727 4.821578050046469 5.0001992627171825 0.33265164100001415 -1.7049818099911023 0.7816241027816604
Ni 5.480354852320314 6.746249087116205 4.528440625274456 0.340051275898195 1.5216966073737794 -0.2159515825020926
P 0.4574278636711077 1.5907656674855635 3.7971388245134086 -0.9034481127697086 0.6292152780282195 -0.9065468062996904
P 1.3812336413509432 4.027107828296091 5.83749403266866 -0.6753858630470111 0.290588393281377 0.32483497316907284
P 2.8007416765651043 3.8320854110103886 1.507977932320152 -0.3211675516198146 0.18078686167550154 -0.12790955406049584
Ni 2.612089106620318 5.565485880096523 8.234657484096225 0.6148068159123734 1.0388424052430238 0.008366112576508173
Ni 4.825873779222833 4.191580789593666 2.0912881756343102 0.057346399129952846 0.484140782152663 -1.2699293007246581
Ni 8.02517800228844 2.7573695611685634 5.002263240748486 0.16957608056134665 -0.3291197165873558 0.566215023046599
Ni 2.167232242686992 8.147698466844323 12.357503841377197 -0.40752884992487876 0.017535694890918187 0.3818710401474585
Ni 3.016293254528405 8.74402126660774 1.3392120073370997 0.5572069060107178 0.05218825196778109 -0.0651844071171329
Ni 7.718623337567508 9.049027256432472 12.390828928384643 -0.34182405152790163 1.1613243605300452 0.0662285321109311
Ni 5.1008741929336985 1.646905132472798 0.6681398325837846 -0.5110949421440036 0.5547872408256316 -0.32546849298801367
Ni 6.476429359665244 4.82791102417557 3.8523878014353286 1.063421894354601 -1.7232073318601935 -1.3591866896305949
Ni 4.776546640118286 5.56498809173703 7.009631673614687 0.3083747707305205 -0.4996684454746169 1.0601324249700517
Ni 1.8873922199255022 3.3490555545463336 7.9905346979586325 -1.5660072563656966 0.05372988542328811 -0.35858867258075017
Ni 6.186716534440482 7.581325933377053 6.712850253685129 1.3576013474213457 -0.4273844511982252 0.955225245342
Ni 8.145762623224075 5.316084693687717 13.445465470733005 -0.8453735772244796 0.943712102496078 1.0706374382664334
Ni 0.6850922917153979 1.5699046479016372 9.092392919016946 -1.7323848845944034 0.5802187935248588 0.58196868633643
Ni 4.223946251263647 3.145192784728158 12.284958562623494 -0.5494570868619699 -1.865290092097278 -0.6740306345706972
Ni 0.37780292824906603 9.22079189536632 11.016529294515374 -0.023811243486984796 -0.7951169950617725 0.0114303533241287
Ni 3.9984481244134455 3.470986047713189 8.595566028522285 1.0132059356218421 1.5358268761275744 -1.01547673393389
Ni 8.13531828597768 5.937140200275558 2.401480382700721 0.5659414576702382 0.3958187605768022 0.7446035596932531
Ni 8.028358316807422 0.8983263883161713 1.576746472353776 -0.4845938105296815 0.3285059942627568 1.4554521344232483
Ni 3.283845279452788 5.546145880499935 3.5900782254006405 -1.3956163932125383 -1.7835475235111475 0.4906862965806646
Ni 1.8411347757044934 1.812456635215941 1.8039232521718223 -1.352853291213399 0.3951330473636872 0.5449784822653259
Ni 3.493441833708083 7.768623412787665 3.9636149230427944 -0.9611261842074674 1.3551981372964919 -0.22078937021036818
Ni 0.00504978635796502 6.6260055433898515 6.404411367840487 -0.05132770373969871 -0.4913447561002699 1.8232348147984407
Ni 4.2667007403623 1.0451158790579156 7.2577883891247605 0.24422548974612132 0.5789967481922996 -0.6216366943500132
Ni 2.364946404435137 0.7295088408365786 4.295165938052624 0.513141026039755 -0.37801901339121996 0.07724493782609278
Ni 1.122531187261987 7.626016266095955 4.7223605335269125 1.0086874789261984 -1.11965346315382 -1.972109658256694
P 6.503475860531014 1.708409649779009 12.326607777198015 -0.06812677757490848 -0.19512770377820585 -0.3112176394959543
Ni 3.278222114651111 3.0385831110701345 5.400208160951101 -0.32772180779856463 1.1074222111949508 0.05172339651622059
P 9.363491225087566 7.191935598315351 12.429740306981952 -0.691971535319834 0.24179374037617712 -0.13687344812200297
Ni 6.0847436671681026 8.799681379841388 0.812175816233298 -1.0206045420787586 -0.7262767363596072 0.03513438180928788
P 6.641390891019358 7.856464621632223 2.7865399590348363 0.23751439627453289 -0.062426384756021525 -0.000112100097832065
P 4.219060550698256 4.938816427009957 11.037212400852296 -1.1504246828984057 0.663159239073832 -0.7251084270831188
P 0.7648656418149921 5.333663997420173 9.199127039764843 -0.3781395981294842 -0.6423271328198292 0.8598267765353321
Ni 8.582424415831676 4.32949582008201 7.293582137663173 2.504448340270822 -2.9474514718429106 -1.3800411644821005
Ni 1.6296300327378097 8.172965835240056 6.9762254655412494 -0.3898615145521028 -0.7929207587414021 -0.7184400139240078
Ni 1.4439457563440723 3.6344449956858718 3.4486150701054683 0.9393142305386983 -0.006014838735512222 0.7845821569687198
Ni 4.0358283428901665 7.812253640666906 7.940438752387759 -0.5386394274211757 -0.4707011117079894 -0.0009338246681790369
Ni 6.519423524640689 0.74565562029005 6.394615999122024 0.8830001293280018 0.4034888755275503 0.413167793378211
Ni 6.4050981314105275 4.314949338021278 8.131241952411612 -0.3095307387118347 0.8522541063943968 0.2372701414742107
Ni 4.855658116065814 5.212019271644878 13.058652573177119 0.3361735381103436 0.1881841825808372 0.41492874193337564
Ni 7.52317687834594 1.0432722184672019 10.043343833404156 0.24370509846627708 0.5576985009351556 0.26315523677108876
Ni 0.9176221400585814 8.867481998064887 2.5946176570324186 -0.8054363747099096 0.06137454645273946 1.0923822861426928
Ni 1.466788711063016 1.7074970377866059 6.2809331216077275 -0.8401300694373531 0.20147704303500139 0.4704514575910284
Ni 7.593558621396439 7.8876777954330075 10.120125844195318 -0.6100073376412011 0.0006348053705214874 0.3462607471430165
Ni 2.1127244173225392 1.4835568041355576 11.418736758003718 0.22937814032064366 -0.5678715848134156 -1.2532865499616543
Ni 1.1918159522610103 7.159007820165202 0.9653194832009375 1.117287791135121 1.6534718150372685 -3.6155739684592896
Ni 8.247569561043289 3.6410821738124417 9.609456749985577 0.404170217865291 0.0803055790292875 -0.3651035908811325
Ni 8.210853060379224 7.902906431912303 0.916205286894618 -0.014556043437303965 -0.9919169443360788 0.006755573556278688
Ni 8.758918044180707 2.6878635568986535 0.3336186803623151 -0.8950233790411232 0.410882339778144 -0.05157530097413054
Ni 5.775534131196543 3.6528355100782415 10.214056663971002 -1.0863707898412904 -0.6206861575112859 1.6961683254645303
Ni 0.8698197082625548 0.382460014901209 0.35707465222767115 -1.8168186268594517 -0.5157527526309891 -1.7196867203014445
Ni 2.2191589432244454 5.349030908443772 12.565320341332155 1.0587622840954023 -0.5475745251272763 3.3116747170016185
Ni 6.493990226791792 7.056905896651474 12.323531629502408 -0.20995962658471584 -0.07027853381058864 0.751183526903616
Ni 6.9924330857942145 5.302985485190695 6.021820453037337 -0.1672068089982217 0.7828186373103938 0.011138018894690495
Ni 3.8854686034145054 1.7174435866735067 9.946795015589657 -0.17288817565371517 -0.2826100030615907 0.26800099489916424
Ni 2.849054802344759 8.72211857879006 10.236709721649103 -0.10772202336902738 0.476720835539508 -0.8946654814810721
Ni 0.6349189123997133 7.713525616034184 9.236378202000214 1.0342887244340704 -0.6905106345035915 -0.47095822202411797
Ni 5.984559150668717 6.225202949271631 1.3071590461372453 1.3831041196781406 0.8171531489262055 0.3979862005417662
P 6.8785317344999175 3.6033055683087163 0.9557647121895634 -0.4757972952839741 0.7345495178913608 1.0877807828149397
Ni 6.982403572180731 5.57413264826697 10.628326276874091 0.1195203015555361 0.4573442307851091 -0.29826030800433795
P 1.1641426067943967 6.384670372065419 2.7466846262150812 0.16037513078836896 -0.002782704951459724 5.049083794283491
Ni 1.6280076114179818 2.8640345446443085 13.129822481130148 1.1839192151114255 2.466253060148024 -0.027313085992656184
P 4.487783300097741 8.455257926587194 5.810807045618079 -0.841653448060415 0.9590376771095548 0.05728623531597876
P 2.830940837040996 1.1019743716755284 13.349092722504919 2.2111250645567857 -0.3379853945081018 0.07304504081213227
P 8.228773441320962 1.8524732883373833 7.535061114513681 -0.2279810028628009 -0.18851199823390116 0.21124929193041683
Ni 5.023495757941442 9.482407333188606 11.699260778844362 -0.3305842169480242 0.37100144442280625 1.1058263274627407
