# total energy = -340885.46613814664 ev
CRYSTAL
PRIMVEC
9.15100096529991 0.00000000000000 0.00000000000000
0.00000000000000 9.15100096529991 0.00000000000000
0.00000000000000 0.00000000000000 13.39341491006570
PRIMCOORD
 96 1
Ni 0.14779873447762665 2.5800332608071312 2.904469194748224 -0.10414099088598838 1.2089972411259757 0.10839179574254236
Ni 3.261233785509134 5.693322810920546 6.322120127606618 -0.2711966190183265 -0.6661959690176268 0.05640100449754803
Ni 2.217141159684312 8.44821340146983 1.8154369174355043 1.0182668950845173 0.34843821441030953 0.19471169928670984
Ni 5.278324909318775 2.5445273763922494 8.833506238278009 -0.195267828900496 -0.5671071958435653 -0.2996983260024451
Ni 7.394814207487809 7.895977935803633 7.477449577962877 -0.8024860338323341 -0.14558588829433636 0.13428717545206548
Ni 2.703278944131776 8.407958147464402 6.164668002028667 -1.8857745852038748 1.0252307279968602 0.8987013421133425
Ni 1.2211644978423368 4.52119852817598 9.580443894753913 -0.5108486304611525 -0.9349392413994544 -0.3748565565028383
Ni 2.513212650498506 3.253116847499856 3.114813191802869 0.5095425100552193 0.8703667568347075 0.5712965513345645
Ni 7.254501907041062 3.956471945956609 9.026023170015996 -1.0968824880058916 0.6164978304615512 -0.5469338062194838
Ni 8.45022662172016 5.7969487478056285 13.123631921621872 0.43423592690241986 1.489954281965176 -0.09178195510000323
Ni 4.627478255391041 7.556457491586898 2.898991405467103 0.0897376709764648 0.7029863983730991 0.04589727675274677
Ni 5.8404526072149965 9.153929458220151 0.8579823099834477 -0.2912013442750275 0.7345034951447736 -0.0957378544239577
Ni 3.8375089311644803 1.500883149623182 1.9745645913217966 1.9892830847121872 -0.34778643975892365 1.2950937158054276
Ni 0.9865145266654322 9.131234975398268 12.943771739557652 0.10018097779697585 -0.7094133849453653 0.6518844374909613
Ni 6.035698367492293 6.8009508376455035 0.449290363265773 1.2870893574437123 -0.18578174378693166 0.6475696121656912
Ni 4.890322461073679 7.44047770316571 7.26939699159315 -0.5604452104423574 0.9380284218477394 1.7248358686025518
Ni 5.893867000856662 -0.19560905502246928 5.333164113837606 -1.4180973479238739 -0.462204644201204 0.16511727345904467
Ni 6.83793003324358 3.9324780209731505 13.15053861026751 1.0538897864944494 -0.37974550916402344 0.8986072397376393
Ni 3.043476562432712 5.806694564017445 10.305455752503518 -0.18827160008832092 -0.6940253325250693 1.590401626049661
Ni 0.31907893787499186 3.0599209114774393 7.27910711890053 0.16820953923112322 0.02172402194065291 0.37460947348903867
Ni 8.030561709538082 4.809674688045754 6.087400608821065 -0.007420460833787221 -0.21338613576776153 1.0283165660110356
Ni 5.310893322368406 2.429636557106467 4.339011246522404 -1.2051670687466083 0.3578489662012482 0.07746862380112464
Ni 0.7444888485714157 6.713924816824492 6.1401844984843335 -0.4475326440113261 1.651175562803924 -0.3741965543213362
Ni 1.359637447060374 1.68942122606643 5.075421591289321 0.2835014045276085 1.1582758035117084 0.6432108209763633
P 8.36059256557486 8.027853013201275 0.5273447425712298 -0.7223370349855688 -0.5321705318673803 -0.7950128653837405
P 0.9400457428873992 4.98887874332839 3.0887895747670338 -0.2677176593307905 1.0914224933325847 -0.3252358081519173
P 8.029564250414055 8.245445518257217 9.6046720853665 -0.45889614865326134 -0.17300258974439237 0.12262516573310495
P 4.074080612580334 7.5763609190617345 9.959075717833846 -0.7142187767538087 0.4824847346064787 -3.092533423917635
P 1.300274902679102 5.206910496438947 7.372311895689822 0.7018481710035978 -1.4904389349110785 1.0062595862109962
P 5.846464814962568 0.748363382453184 12.087369807470713 0.003850484094341756 0.011194068943606528 0.13229457050206894
P 3.5842641256754524 3.4453061733971087 9.98765703968771 0.6457996647494619 1.7445472309885504 -0.9706199826305153
P 7.9262036925619705 8.194547649928461 5.377723998778282 1.0797409432295988 -0.760439241173929 -1.0958080239947903
Ni 7.299762758668899 3.533192388325078 3.7213204999173497 -0.6813071136274523 1.080623345834552 0.5519705973124429
Ni 2.37251600800397 7.216086004264342 8.21363206280146 0.11697928030123723 -1.1120779647994075 0.6413154037258632
Ni 2.0525878572233847 1.9606477487913452 9.61185104575915 -1.3352962561662423 1.1501081800992514 -1.0023844195263059
Ni 7.184560805344429 2.3191199163645795 10.93857600212711 -0.39782987746956 0.022372197047613087 0.09996423380047946
Ni 7.150638044126397 7.723225336323186 2.482804788817524 0.9784425639987279 2.5446745347807207 0.24697836990091016
Ni 8.9778641963278 6.344764279922242 8.523676217253048 -0.8746535571355194 -0.4980887596923228 -0.6135588024378853
Ni 5.56504407697008 4.054735396174907 2.1474864843232933 -1.0954501264347394 0.561190316138498 -0.642658548017319
Ni 4.923366726182477 2.5067154396906286 0.1784070030835275 0.718290375720021 -0.1928921295794678 -0.9053378735932538
Ni 3.7566232321069712 1.6611629345527306 6.446143646027981 1.6553469205727944 -1.461744138079547 -1.0619615077589903
Ni 7.744034712910671 1.0958415372593981 8.628653757006191 -1.0091263662358299 0.15701264207403925 -0.228792957241135
Ni 0.2879810907082157 7.088530199403768 2.1773544369371414 0.9199299124748156 -0.8142493450158492 -0.3099655122564081
Ni 8.918648067964734 0.6379922426293885 6.574385775973894 -0.6503528313377832 0.041115796203703384 -1.2756194091308999
Ni 0.525671024463116 3.1144517272579235 11.854311195391682 -1.0067609513274467 0.6505040122036667 0.21912766623722904
Ni 4.046106002101909 1.5234678204314107 10.978783670926623 1.475498511551162 -0.14026344764015844 -0.1347394324981357
Ni 1.0170605684635956 4.471609253009939 0.9471771180741304 0.9441576746739287 -0.8085355824605236 -0.5727569379301749
Ni 4.601150825117429 5.223153523458642 4.21086337188821 -1.0532583235580375 -0.5823723495327519 -0.7668004075052665
Ni 4.390503929925121 5.202170277849538 13.343565252768876 -0.5455950328034023 -0.12535079219438414 -0.029281522572936664
Ni 6.931984022938464 2.077981885380935 1.7399256013462576 -0.198323070787052 -0.278051951377263 0.23212150739373574
Ni 6.053835651747524 6.202987819293439 5.648927644000352 1.4684246354235162 1.0862432631244907 -0.28661449623529345
Ni 0.575238337226427 7.190289332056727 10.532460977329857 0.8049707479274006 0.23664253519254083 1.0915063112956427
Ni 0.7347027679545924 8.663408344227653 4.2458330076364135 -1.4938284202086016 0.4126090926612636 -0.05233017686228407
Ni 6.316588347418784 6.267959927372217 9.654200963925035 -0.7722933122990377 1.6180152740018716 0.3060381521775439
Ni 2.80907366828653 3.2276587623343405 7.698575284558144 -0.7742656055340601 1.699606404611802 0.5008138719329697
Ni 2.1796586590236537 7.0018336146237194 4.117590877690499 1.0424702318035983 -1.671463623628999 -0.5870792680901179
P 3.839458094406844 7.168528251350905 0.7199586749212789 0.32692733692172726 1.9028937613826649 -0.33966226798989246
P 6.271931461866046 6.016042017048178 2.962369409147666 -0.2850702916766252 -3.2768524671161114 0.6232408056123396
P 1.7558300413238512 1.1251155898993999 3.0062594408050516 0.1246131426974112 -0.6872777293885906 -0.7038811422732264
P 1.3483725646596736 5.443601140869593 11.895509002514311 -1.1479042304693974 -1.186567194257234 -1.3146356424930974
P 5.529272813522202 0.5843490739592765 7.665681095868007 -0.29149085049098833 -0.3345018068348755 -0.3910020559144492
P 3.3421286355677817 3.560727750748887 5.3785942589864915 1.0936261858521232 0.0025654467343310654 -0.5915051650719555
P 1.9776411579043438 1.4772918686897893 11.686665769646273 -0.2717267804901836 -0.19509222255458014 2.1189335327231893
P 5.534351619153712 0.6369499435997867 3.1356793045974083 0.4921819072895846 -0.7295006426135435 -0.8281888379150768
Ni 3.60689455148937 0.33309369611761835 13.114309796762738 0.3843889214733057 -0.5957068618581289 0.7407559038123888
Ni 1.2701772599366936 4.264851533301219 5.114074504995512 -0.4044795215755937 0.2600375170777135 0.6220488421867674
Ni 4.750550069694066 7.601599380199942 11.833939236658585 -0.007966306034928214 -0.28202147754797235 2.24612086390568
Ni 5.762083433470397 9.18897779257814 9.775974251166597 0.3734627614791052 -0.6320396348508921 0.3281781786096929
Ni 2.4455501480851987 8.62368384828822 11.26348687302726 0.6996899870100144 -1.8166517622642844 -1.7853966609047442
Ni 7.055064988242628 7.928701915872606 11.572164783008963 1.6554744472895941 0.14387970423650706 0.6537857682787321
Ni 3.5174160623634143 0.5146806720965509 4.111176025892862 0.18442265865587595 -0.987656369287512 0.8715705473348215
Ni 2.0718415636174337 1.8930584543871405 0.769201127144196 -2.7963107151686164 0.9593007009629544 -1.2057453098475814
Ni 8.1865313729317 5.35180744845576 10.786842337160206 1.0466557306398554 -1.0293678900936853 0.21291099590355592
Ni 9.385815827053422 0.7430118769877658 10.507616009240577 -1.5724548117632533 0.5817396010447594 2.2767774124492726
Ni 4.432140985102365 4.931099322143966 8.483388934743635 0.20369770483540403 0.7101142676671318 0.8059225703177089
Ni 7.587241459414646 0.8608786018435791 3.9702103439648724 0.5419175839518151 0.3503071492982483 0.11877828118318899
Ni 5.307690471970155 3.9947871877208123 6.516432485767853 -0.12970187007422823 -0.5784331623793457 -0.691283508113874
Ni 6.653821041351055 1.9431235816123509 6.330035743590863 -0.6537759980867193 0.03904631526918437 0.8182857198687521
Ni 0.7614465687799767 8.975530691037648 8.584000531853908 0.5697443763560962 -2.158484041322302 -0.1136450737216817
Ni 7.984596230822631 4.86714297519149 1.885860276892103 -0.25677684404857065 0.3462280941328682 0.6645502058840878
Ni 3.39412462403308 0.20952772775314832 8.948435491768569 0.9298787961574114 -0.32924338664941366 -1.5574560243615758
Ni 1.7519866208459518 6.763422581979157 13.472704180826302 0.12612906512130537 0.5509197874504255 0.021403919597072815
Ni 8.008571853803813 0.9075002073406142 12.878090428890692 -1.0179393365417695 0.6056860845580279 0.2063217727218124
Ni -0.04782221684632187 0.5242819024903894 1.7652391006937949 -0.43141362696227636 -0.2584853420992451 0.2700105691300253
Ni 8.583273027263449 6.228940058520398 4.23846645172044 -1.2221798012545209 0.25163386639505053 -0.40089308977591603
Ni 3.108457821512628 5.722514504550308 2.14662995061679 -0.9048915300844544 -1.1237507731516452 -0.06030342487574776
Ni 3.0208186836153805 3.3505933116202984 12.196164229798455 -0.7321339664713327 1.0788096896645807 0.07191272697990195
Ni 5.300104292026873 4.0967659444010796 11.50955088792341 -1.1768815915383537 -1.6411510886883867 -2.7202078613667666
P 6.549563685387461 5.473872652633622 7.692976702062003 -0.322851881300773 0.8844687434537283 -1.378136234149904
P 8.594464701655046 2.8740457763653073 0.664884289673206 0.5737159594093345 -0.19249258014820397 -0.49860272321426385
P 6.40094227590754 5.779259862606152 11.936466138307013 0.4375225680734917 0.8237112617596974 0.5272689808007048
P 8.849978955426263 2.765560657876024 9.418584647027972 1.7608451968176255 -0.717524444088274 1.6872203722426231
P 8.300717565129867 2.770227668456331 5.365777366792811 2.1616868645303158 -0.7671490490939368 -0.13715832635227346
P 4.110025745049833 7.408568162198006 5.130186672698934 1.643191773267499 -0.9447775676461149 -1.0939005225594323
P 3.23060538470073 3.7524503755881087 1.0437677652844284 0.8466012789839935 -0.4565243059869751 0.4896367722702276
P 1.8224767826108568 0.9909893662218437 7.269557134113064 0.9961317537483747 1.6628288307721364 -0.2895522387073788
