# total energy = -340868.7095544963 ev
CRYSTAL
PRIMVEC
9.24119930049277 0.00000000000000 0.00000000000000
0.00000000000000 9.24119930049277 0.00000000000000
0.00000000000000 0.00000000000000 13.52542929101295
PRIMCOORD
 96 1
Ni 7.009458980804986 7.667007282415925 8.351032544407804 0.8773514156826567 -0.8984627437399753 -1.3689915915361583
Ni 4.451781465998262 8.266853535016846 11.867468786201375 -0.14656650704005078 -0.34104654993192873 0.7146082988827435
Ni 5.804637609940017 0.7393477021581928 4.199294340302112 1.0928268298792791 -0.9664249707125615 0.36236459468341464
Ni 6.909690992157944 9.249516472473616 11.9340544001879 0.2723369032703568 -1.8433295286657867 -0.21697976665629082
Ni 2.383379253054976 7.569401734426848 4.527191501285183 -0.5376989178847772 0.286213661252449 -0.5777957859056629
Ni 0.5030918190759426 8.975579598866329 10.455576164057252 -0.6538927261702416 -0.9563699004694045 0.911996516560352
Ni 7.008414725273575 6.228004677732438 5.832287278523933 0.4410552638170985 -0.6295754895811156 2.1779681181888426
Ni 5.208607972688413 7.875488740722453 9.704779539971046 -0.6641198032148885 -0.9387151635021188 -0.4329740294708607
Ni 0.9815909583271806 4.745152581929072 4.125946016599774 0.004018377130773725 0.345801805228727 0.03006442348554822
Ni -0.011552423361214178 6.813878236851114 11.855457999350266 0.47335269039822353 -0.7762921490457857 -1.4477696781773262
Ni 6.301971237674169 3.947433767924808 11.141937601255686 0.6433265206186211 -0.3254219560207944 0.0028104728656016113
Ni 4.769863549106008 4.799925170731501 9.630782484071316 0.43285190207069973 -0.648712981741515 0.36247695189156287
Ni 0.7405028520823203 2.3012989200461735 5.478975895090118 -0.14468343108472503 -0.4501826800396634 -0.9262867079307789
Ni 5.918193468081446 2.4749595390398036 8.551114676586016 0.5695978234759028 0.8007767644507112 -0.7025925053687899
Ni 1.9412987564916904 2.8180575489044535 3.154279182300757 -0.9219775390324637 -1.4005182013895299 -1.2210868253006584
Ni 4.189885875200078 0.4314771443797349 8.48581358931512 -2.0289942872588798 -0.2885592786664901 -1.833528740525281
Ni 7.379513569299075 5.334990615587352 9.595629885700209 0.1532233502349361 0.602873297699581 -0.25716122397118296
Ni 1.0367886423016885 3.812678598375792 7.89111468477611 -0.20342516790030774 -0.9191683517184427 -0.3389523864070614
Ni 2.404070298495948 1.1334977939496418 10.303753423349265 -0.20166061980071723 1.027283753871147 -0.17591642095707768
Ni 8.020889771972229 1.8332876179860738 11.331429318929498 0.35440548773733804 0.6296608502060704 -0.900197724153211
Ni 3.9308088502167653 2.063744648449204 1.2368643056403266 0.5124915653812141 0.3574949252959391 0.6549044552642077
Ni 8.280160862142795 9.252473656279383 3.602566068376395 -0.39530582549612564 -0.41889775388345274 -0.7345176362121608
Ni 0.5632889919220743 8.987297439696677 13.03570055218962 -1.4013031591846705 -0.1956429528517276 -0.5743934450923333
Ni 7.5564270904790485 8.555714945643862 5.889079993513676 2.5034854621369207 -1.1514122436226557 -0.0505849120364032
P 2.2270366417238656 8.751914849957068 11.763417501635667 -0.21564639255684798 -1.8224354588255967 -1.5381964048010155
P 4.04221150889962 2.350859472390939 9.675213246633017 -0.15382884502941893 2.0918634159792746 0.371882818586495
P 1.5690447625420627 3.1977599495648548 12.098605044819893 0.0479454175310271 -0.29215213822407105 -0.26460919560879587
P 3.8729034948201027 8.983028005577102 3.702221314390843 0.3469225490967316 0.06496972000316553 -0.41757543552760346
P 1.073725716275589 0.9570370915399268 3.581087672747138 -0.7134934685520099 -1.205962310954394 -0.3252502063296205
P 5.374321160204046 0.41739263238483326 0.5409982948661709 -0.21746107716808352 0.9292946415191672 -1.2928105761982056
P -0.19582378749790955 8.269163834865102 7.6653882242822675 -0.13069354456353618 -0.35502795181268537 -1.0007975346551603
P 7.2482792967188 4.033561746267753 7.8847983249909825 -0.24596278415220224 -0.15780402762708307 0.09862571749471402
Ni 6.531892278572504 5.022989241680215 4.004947296467207 -1.3185432050776196 0.3762202696195843 -1.5766994459722201
Ni 5.522402139277797 0.9254321896157987 10.158341302660219 1.5185765736875587 -1.4366314021723192 0.47747056922133896
Ni 2.224125663915064 8.147337103266919 7.169194036433275 0.6247405300863176 -1.6655729691761767 -1.7851853162248865
Ni 6.386472764923943 7.730863970221692 0.17700685729384247 -0.3158001166603142 0.02672764580283139 -0.861599809275355
Ni 3.280884538105069 4.454091765846517 3.6163077318738157 1.480908883933456 2.2952603017448086 -1.0301153097826712
Ni 9.447000903502452 4.94521530758856 0.9600432537024762 -0.27468689155977205 -0.03155463487782953 0.36656680569022027
Ni 5.785757839580077 6.077742775601934 1.632194498594264 0.6707463073924707 -1.4166732138828377 0.43433954235981975
Ni 5.2235694745057115 4.8199600910155675 7.357184059205721 2.5985129207574147 2.0110973523738007 -0.9888755864065936
Ni 3.313746243146648 0.972848783701384 12.567842654039445 1.5952810656291492 2.6079686668536763 1.493351994792815
Ni 1.791646773521126 1.0066992970780158 0.8879582019571638 -0.7591032959713249 1.390290610124251 1.468996448766586
Ni 8.16689148118255 6.885922627319097 2.3413327199366747 -1.5933463105002819 -1.0992373613913133 -1.1248807729910304
Ni 3.2523107495818513 6.0148379313336475 10.92264948437896 0.7415897125675938 1.0727462570793203 0.012171088144895169
Ni 6.963021953855062 2.828684928206426 3.9286371683594057 0.7325168037320481 -0.455020467747939 -0.7153523761376196
Ni 3.428882346384283 8.676016879342196 1.4671707045533504 0.9689055710425699 0.07716831895188646 0.9047174664004355
Ni 5.636216751002229 1.9814517678543617 12.03055839720933 -0.5697960555296381 -0.16481054085190325 3.002536585742513
Ni 2.5956033971156782 7.90161361140652 9.391111053693407 0.5435880296757025 0.9178025817191677 1.7227499326078006
Ni 5.100051603418608 3.854171583650451 13.551398291357582 0.696524187687523 1.3792659768789728 1.5866856106506546
Ni 8.787585879614126 2.054013665488354 2.2098655691316953 0.9892684509696382 0.6964413981657296 2.197699278069183
Ni 3.5696165719405824 3.5522153934835257 7.739278082269037 -1.1237636286674517 -2.756601312394136 1.5565209141418161
Ni 6.073427135485394 0.4237274745687484 7.064372035838189 -0.47554121340911 1.4510987425505588 1.472856960163257
Ni 8.986669038137952 2.176764517025837 0.03863098582264108 -0.022096317678407106 0.8839527230492583 -2.020752873185694
Ni 6.578449441114538 2.0625340513287185 1.5749415718747486 -1.330030894002245 -0.036334572764976134 -0.673042302515499
Ni 8.512826539260857 1.7636366981608826 7.3654484638229 -0.6722995108122035 1.3823183905520515 -1.225976806403108
Ni 4.156959481762748 2.243559906238585 4.116721451365661 -1.4785211004275698 0.8242236826197418 -1.623976633791629
P 7.6592169513276085 7.562452352483297 10.490891407537678 0.011447322604993189 1.4405186530418677 -0.7439530705934477
P 4.534351582574895 4.365283839679596 5.314087022560342 1.7038821491690204 -1.1523190717076415 0.15332645147170368
P 9.108033709766483 7.0642223284080226 0.40593169689761 -0.49633603866727416 0.7370787120711176 0.0776506579049437
P 1.6174594061620937 3.2630952292735054 0.9495166034738872 0.629432022024716 -0.6636413209165731 0.4242860147785596
P 6.827213287575241 7.292211958633216 4.028995669647662 -0.2922956057804708 0.8136315089261924 -0.6670454615021157
P 8.50074829165418 4.455847593731191 3.0165760701453674 -1.180531272475799 -0.5359523675073156 -0.5795114830451891
P 2.3617271228771304 1.872461062213085 6.8511036362460755 -0.1301070759324469 -0.0035668914156519213 0.4374431209858079
P 4.728019398254412 6.2650064401020895 12.838297443715446 -1.5452412274629386 -0.6804699624381377 2.1785543297096157
Ni 5.469542478749722 2.4416727388261457 5.920500071449943 0.9319076536619821 0.7578118308534111 1.4375492860008985
Ni 2.4523740477232625 5.161403926188868 12.865645849199147 -1.5122236348863376 -2.4007120410224205 0.6784020241655155
Ni 6.145970550720601 6.347899998657478 11.327006480899998 -0.6037582714076957 0.14813976506444165 -0.3619097665341831
Ni 3.7047875954622844 6.184367734198598 5.920053721519261 -0.9861579303651145 0.4032055399591766 0.9346674757953064
Ni 3.6448214526009783 0.4706367268076567 5.800624157043629 0.006375821619356762 0.06795322811152169 0.20511721089074997
Ni 2.4257871170695444 3.9333686624486317 5.8088469762635375 -0.516270315697356 0.6537903962644224 -0.01683918304452584
Ni 2.1647879226124833 3.865492052906901 10.088455656370446 -0.6638305541092437 -0.20224297466674845 -0.5789952055304028
Ni 8.80214076865813 4.116658611209788 11.324652747414596 0.761155036294031 0.31299684288356416 0.048200470964626665
Ni 5.373267663473242 8.055516546097873 5.584014139750999 -1.9355172038446407 -1.2638812947583653 -0.07138102284614803
Ni 8.738422698843259 5.6052217682380405 7.546716438156863 0.13945432147530173 2.136056051336089 1.2529942155322162
Ni 2.3557757904680257 7.3230960470046895 13.398398221846927 -0.2599156467878685 0.6915892122797509 -0.019343694633934427
Ni 8.021203972751591 0.49426924601542654 9.08117601197055 -1.4767994897507728 -0.5596183436656879 1.7135430692975524
Ni -0.042696189435630534 6.9422939436165185 4.34522027167741 0.11570401313323944 -0.16588963284869496 1.4037585627036984
Ni 4.4030341392000825 6.77653455010392 3.587065804634483 0.473471732474591 -0.5255987921871335 -0.4684891916583351
Ni 7.396896265357346 5.633139431604354 13.156387843902644 0.7335231335093755 -0.15337941619682616 0.5072321167544876
Ni 3.5713816410246495 5.588504438536067 1.319035202403181 0.40909182353662454 -0.03190481912839667 -0.0006029236913215423
Ni 8.226598870460851 3.8893805533378574 6.034357192691584 -0.15799300370943758 0.04651408440113925 -1.5003106854988355
Ni 8.100909317516388 -0.0762556050313823 1.1371757913080638 -0.7886555557071451 0.4586740053401262 -0.13775996449201436
Ni 5.727482836207694 8.471693960762526 2.333082177118587 0.7020680003238877 -0.15419599856085056 0.7017458410977786
Ni 2.911800275547247 5.6664909202137625 8.489425050037912 -0.7949660713062051 0.7871758858378249 -1.10155006868489
Ni 0.9246928936643571 8.196999308805008 2.052998057675061 0.8899382512087318 0.6164474368395899 0.7850742661137899
Ni 1.2573206246167155 0.5471279824235611 8.307305037119912 -0.45451601730769464 1.597259786622075 -0.054928790827395726
Ni 0.7361058894111214 8.951700339634765 5.478475022083016 -0.27915803995724825 1.2268777209508226 0.38201990702049693
Ni 3.8344231405475675 3.702292471626169 11.705785685741038 -0.03718715057325853 -1.2686987707516666 -1.17393844974963
P 0.9364107344947065 5.857007486900262 6.025091966180143 1.1435860627100176 -0.13584140731306282 -0.4302234633089171
P 2.054558896252542 6.425581520755204 2.503380847773036 0.35807059529375107 -0.3738026613170272 1.4591285548335708
P 7.7377116989719195 1.318968665767551 5.2632724394579435 0.25052957758727823 1.7384429178630254 0.9532629794093067
P 4.313228163498715 7.33674529850818 7.708479937051919 0.3565862974387407 0.407713198021543 0.4596448538938277
P 1.2990538810755934 6.289310794505732 9.927800177282613 -0.5412699230654872 -1.0342452727906446 0.06432051645494084
P 0.01785584546719305 2.396778992174855 9.488020739368189 0.6044144169344559 -0.19911239945756676 0.19016033247060155
P 7.179192090056583 3.5351561394040116 13.102434949486376 1.1633719870876933 -1.8775923065033986 -0.12216596670849929
P 5.0859587743442525 3.8273258994137285 2.4341309960015023 0.2926113372486767 -0.14347578392986904 -0.5780739792677141
