# total energy = -340868.0160184999 ev
CRYSTAL
PRIMVEC
9.27435555718552 0.00000000000000 0.00000000000000

0.00000000000000 9.27435555718552 0.00000000000000

0.00000000000000 0.00000000000000 13.57395682416422

PRIMCOORD
 96 1
Ni 7.787286807368755 1.7483458565324375 12.2953850147676 1.725216134760106 -3.256229648659437 -0.4272137299483159
Ni 3.0734286758346037 9.10391141443651 6.076694069852341 -0.04002667690458268 0.20018326392424235 1.0622715828002414
Ni 8.805388458952748 5.968214715639375 6.993845289034656 -1.254621466722994 -1.3646862792925851 0.43624961489833897
Ni 1.5050609625269054 6.596533753420969 1.0095098886300924 -0.6510819961943239 -0.07731770004555716 -0.6254056744741423
Ni 8.731017402036372 4.597427872333729 9.469056702799534 -0.5121115563339761 0.11773929839571337 0.7316143465224367
Ni 3.3534214689890343 8.192594692311946 0.7545893881889341 0.682827921147353 -0.18247684778341475 0.2037020757107782
Ni 1.4580585287506 2.5860705676043234 9.428307039514937 0.5611334947586336 -0.030783046819127635 1.9876627754999447
Ni 3.425520308802964 3.5381573565956286 8.040913535214846 0.7688778588595856 0.7375083434093685 0.6804941308078538
Ni 6.233637496271593 5.879023238601742 0.8796466528942329 0.5545075048016838 0.15585847386493804 1.3079844557251668
Ni 6.575620081722949 6.932321069384843 7.598646416088161 -0.04166035585326373 0.8297739230140098 -0.1678038191522723
Ni 5.134598544062931 9.133088536903017 2.734527958722605 -1.7292252559194992 1.7830510434907034 0.34892209602526364
Ni 0.5491800346922915 7.748603470494056 3.0503392403315472 0.8373908161293191 -0.8541073575530516 -1.842434013434711
Ni 3.7731231536995535 0.0037987760210683895 11.373808073131052 -0.3959997662393567 0.51439058217614 0.6963208134274652
Ni 1.23526068608916 6.032856973615075 10.75582715944781 -1.6103245902258332 1.144079200296352 0.6424366618145001
Ni 6.316114339912611 9.175351775008508 12.313397668058906 -1.1842133493130766 0.5711962783112744 -0.612458627395171
Ni 1.7000728360498667 8.284948724581962 9.643237446388603 -1.79188612528383 0.3257397443715293 0.22766372873269825
Ni 3.2457832988217494 6.860361344903715 7.010188558332328 -2.9370076508017675 -1.2322155882239683 0.5260569627704746
Ni 0.8102485054077813 4.7078761722236315 5.4636396938214205 -0.05304108688637962 -0.6587251145618784 -1.272538199102415
Ni 0.6252761217354217 2.3689022587436366 13.510458211195969 -0.32650104801758606 -0.41816293259995724 -1.6345790918978238
Ni 2.6511208972229117 3.4459331653028946 3.4838782634781853 -1.1163112861544646 -0.20423917916117085 -0.463128441567054
Ni 8.278744180738958 1.1502890408132111 3.5367893891564015 0.2097698791714129 -1.0625662312225248 0.17773907598811325
Ni 5.241884288720449 0.4623173483257767 5.277826126103379 0.06680754454285269 -1.7620731556874554 1.127132802250001
Ni 8.132719453073621 2.353033836448597 8.627240146072142 0.8013853445689876 0.8121168720538788 0.1581876362187469
Ni 6.440344332105509 7.983096275466452 4.2906869104235295 1.1252690095683846 -0.14248179544771591 1.0014511090787592
P 4.798839051165619 8.131068617791028 6.929939414887258 2.6773367730348534 2.6042081713699794 1.0685787559651918
P 5.021701814315701 3.8156831711816896 5.874862762715386 -0.10775621904107249 -0.4588015320569259 0.40201614763676574
P 1.0426972424235277 2.3291152735620364 4.482785708877601 -0.06660108495900142 -0.8200626092635167 0.3817679389106909
P 2.805399801301214 8.114653008520298 3.4079454050922102 0.8053119333169034 2.106839577673133 -1.3132611307430737
P 4.557279187286842 2.3909937735927205 2.352271484424838 0.6695345464725566 -0.3271219694310366 0.9377142330414302
P 0.1585460350531402 2.8167237893913617 11.171488934893736 -0.39833021414474623 0.9060287290126912 0.6195556434512685
P 8.974302296041905 5.979585075507123 12.978616584148666 0.8140940503849076 0.93775408514043 -1.5854471102578631
P 5.731839216496382 8.347819580653306 0.7679954690933636 -1.4247796450400558 -0.6986710588271967 -0.7569384271095222
Ni 5.792474952887361 8.871310577990233 9.71641489374953 -0.28436812340327794 -1.0260295697490718 -0.04378305862322137
Ni 5.663533588090209 5.494387892113046 12.185177848121224 -0.5738020913652376 0.38843943739359554 -0.9867569974016942
Ni 3.2247490605019666 1.101543028199111 3.912475910003668 -0.21435749854209535 -0.5118637019892281 -0.3532906574066045
Ni 0.6519714266647264 7.861926820595215 7.108002403697079 1.6834742749366296 1.173298502172786 -0.3537046050155715
Ni 1.1453365349654316 3.9793569974019407 7.777496797681645 -0.8287215704900953 1.2574977598295247 -1.5339350584215001
Ni 6.722052881031174 0.9018336936051751 1.4223875025488588 1.2333317041062823 1.3372886040059229 -0.5135778564668574
Ni 5.071458731681503 6.522107050371473 5.643426785322443 0.2599781245946878 -1.3770270602461252 -1.5248665204613288
Ni 1.1433981946617127 8.993806265700856 4.812890627214254 -0.3289410249176464 1.626787363767547 0.5505986566655807
Ni 9.269718342426405 4.994861829440282 2.9207486706479817 -1.3153522089441476 0.6476901969039556 2.4784650288331833
Ni 2.995718850930961 4.625009805650764 10.361571523978025 0.7569615670379738 -2.185044822529966 0.8627894587080818
Ni 4.647323905032334 1.7896538360193481 7.079551463267803 -0.1582341731859662 -0.20912427516761403 0.5563931518601708
Ni 8.330328146142234 3.2833351643229842 4.52605985173479 0.5292101636874758 -0.2504781555240525 0.7249629026441902
Ni 5.801229944498417 2.5830285789937024 9.186772216396065 -1.1109775326463769 -0.7216582637509894 0.6397421457014725
Ni 6.7349627839152735 2.450859738475524 6.275552018609524 -0.03304150383600116 0.1893272950463449 -0.9972974919217019
Ni 6.011646522540409 2.0628763496440423 4.040763432736648 -0.4448221870586984 0.6125092781274484 -1.2831244592586935
Ni 1.6945545945153557 4.501985479675491 12.920534077832395 -1.1150524740466992 0.3746488113674064 0.22424236175597506
Ni 3.4192044726937167 6.982448960971451 10.018788561645275 -0.34320936191120244 2.3180369333196915 2.2816198281432385
Ni 4.917624996668168 5.8799135767316795 9.14162558115935 1.3182215600721428 -1.9020555817520854 -1.1665665827655909
Ni 4.630064329409266 4.453499149015955 3.663393616362467 2.625645258197833 0.2757878379334347 0.03951014227948034
Ni 0.07907686490731816 1.1505023509901755 6.620290015085927 0.20346501999930766 0.5933141932562362 -0.6744211851408966
Ni 2.503649370096426 2.1233915194132593 6.206270728002625 -1.3035153642102197 0.6684564829170294 -0.19882752122729627
Ni 1.7078725690423437 0.760359892193594 1.465363011158299 0.5792330325728218 -1.8106153262622173 0.11514968329166621
Ni 7.421153800142832 7.396790068191302 12.987874245828918 0.47123641538616906 -1.1977872313427693 0.8660776425410504
Ni 6.941892204281674 0.6629819415382918 7.576562320723493 -1.023438669093444 -2.4868851345760783 0.48549343952581553
P 1.6991824979199288 0.8530107038402571 8.289112910210525 0.5878814522764392 -0.6415079793526436 -1.8156708864082538
P 8.146093073733729 3.835252061329283 6.822990329335124 2.744493730497325 0.882564327342164 1.1769366131460053
P 5.036485137014878 7.549974598318222 11.49681570526639 0.9375941625237982 -1.1424339513834452 -0.32486839751016955
P 1.6039255923720934 4.611116821081525 1.846587249686669 3.147600797205424 -1.148159798123629 -1.399240620228687
P 9.024634223449956 6.842990477014406 8.998610381860313 -0.2739980930228636 0.735043941029276 0.9051800078591508
P 3.8313011858776838 4.126587391284902 12.554349134215562 0.8872082538720786 2.021224413505474 0.73924692336703
P 7.5266774172515145 0.6162410445876559 10.226836469287413 0.016745337779138905 1.957456427119893 0.23825050310960902
P 2.464400297534997 5.6939441998408995 8.600228585619599 -0.5912714517945946 -1.507265519550114 -0.6386867078537645
Ni 7.033059119045108 5.130081932924601 5.420610393949963 -1.7643020450179743 -0.8025847641937275 0.46758776288998827
Ni 6.962481273536488 3.6876599675810353 2.6996016632691346 -0.1737322688215653 1.431477882995838 -1.3353692754960227
Ni 3.2601492755225183 6.311644100551882 12.62110594524986 0.12270924080647899 1.337339511848516 -1.6188866208632313
Ni 6.934797322308732 6.557507265392025 10.023281059459256 0.7966002644755185 0.27892741200368093 0.3536971488164038
Ni 3.833193154403802 5.454869863241532 1.0942608042446607 -1.3845601353983767 -1.1934811477682479 0.3100565293083177
Ni 5.496641560504451 2.0865630536425988 11.696190235626046 -0.46734325097935 0.8037798129430931 -0.40176829329201774
Ni 2.80121706696161 6.0070371678468755 3.5665303924385356 -1.5568875534526156 -0.6874353380123774 0.3562266001064768
Ni 0.5713800595009619 2.5573478885583056 2.1831267158832284 -0.8334773400075258 1.2473316179298002 1.8877839023244198
Ni 8.53601480286893 6.4884504141887165 4.466767969458687 0.2951664995703626 1.5323124352164126 1.3920914107784155
Ni 6.153878038797989 4.478910883141267 7.800884867432452 0.7068803341108665 -0.4690720607449986 -0.8819436630390294
Ni 7.297823420435392 3.789798444924849 12.44852688285913 0.029708839918342382 3.2310798888666867 -0.8623112335200825
Ni 4.434291958733649 1.1058834265825583 13.549184210106061 0.5456929918338472 -0.8128964305323807 1.436228767417262
Ni 7.370756952246138 7.790690495844664 2.0507937192723436 0.45814744341269487 -0.5289378838626956 0.2270299518034413
Ni 8.832098602850884 4.5126046167461045 0.8120616419119777 -0.10381806032893087 -0.042438114559552716 -0.4261068700373823
Ni 0.3592857505453689 8.997618025819653 13.21542797800111 -0.7931470158195953 -0.7910847339739279 1.1769769794656375
Ni 3.1536796741507773 4.759515783760029 5.65367494817225 -0.016641465211422957 0.2232352606476994 0.5138503934019538
Ni 1.3118390396193398 0.921627023156357 11.521954773339406 -0.8677645433251702 -0.6706020685051225 -1.6669873330252
Ni 9.037599772467177 0.08941406157011803 8.733524260333478 -1.017936765438608 -0.6793466474669719 0.8872966998208268
Ni 2.9836900118212792 2.7351651069468415 0.9931953698345323 -0.8533517103339497 1.3038719762186899 0.2656774889723102
Ni 4.706967285382652 6.882907303173289 2.611127093913211 1.4447393759914344 0.0517359949217109 0.5670015235036364
Ni 5.370055882009427 3.6705487816462914 0.43654669664183454 0.3772862489902535 -1.3882404124634415 0.6105123023020775
Ni 3.674175054654684 0.25921452704700454 9.072764418857517 -0.2665354660972313 1.139320088344812 -1.835250608312394
Ni 2.841950036406269 2.3716289192665707 12.24168649630572 -0.20048896809011924 -0.6186621851027216 0.16401195621000786
Ni 8.443725691087554 8.16700674543175 11.044001789042149 1.4816976983833385 0.003923503424122275 -0.5766794129130326
P 3.7012376240625886 2.3132746743335577 10.35665797042343 0.7717729210191934 -0.405763787604656 -2.614798802401632
P 8.967967911221617 9.188808864868298 1.772378493991897 0.3073998084117609 1.3123972400808819 -0.5473775786251218
P 6.802489366457752 6.005441978697403 3.339994057066908 -1.3246390335627123 -1.2150105371995914 -1.2470002027323106
P 7.573837515071663 2.8356805720746228 0.7820702310307986 -0.04742914001624089 -1.2518683294578892 -0.14771321904998433
P 7.686159234776641 0.18928866873145442 5.523066981688119 -0.6931953804246062 0.07135402626295453 -0.35467185402484724
P 1.9700864226645765 8.080337893095608 12.021449303203404 -0.10364862463060213 -0.36804827533175327 -0.3564456580958184
P 6.418790729876595 4.4405799717763355 10.266947129476666 0.46917259087860486 -0.5142820816227336 -0.3788181122537476
P 1.3511159352473296 6.83870572476408 5.136507206428986 -0.03523696882542319 -0.6655143695695699 1.5357433152748325
