# total energy = -340869.928599459 ev
CRYSTAL
PRIMVEC
9.25241019523654 0.00000000000000 0.00000000000000
0.00000000000000 9.25241019523654 0.00000000000000
0.00000000000000 0.00000000000000 13.54183756868359
PRIMCOORD
 96 1
Ni 7.400364352451036 1.6193938099715945 8.263500401944176 -0.5645288935934277 -0.28436246697632317 -0.8804246552913418
Ni 7.716001067606507 0.7185347596178012 11.94761114197854 -0.29686342765681134 0.9051717803290347 -0.3418410208087661
Ni 8.815483454173746 3.3569871578487738 12.056054013526282 -3.4751773376753765 -0.47218618089394804 1.0389856156891075
Ni 1.7034889645722882 3.489944289723784 6.386561133078576 0.18610853099873112 0.6813734480890137 -0.5033705769165525
Ni 0.4955128182022393 0.07371024960302418 13.616452606778221 -1.0760861200858307 0.25652564726971305 -1.0859995225448005
Ni 5.8712000449182105 2.751204117121387 3.902744263381149 -0.7908962721122056 0.45821352076393995 -0.383145793094824
Ni 5.411595829973238 8.080046391945697 2.5024641768359723 0.20485907213335683 0.4823345821818597 0.4153681434636394
Ni 6.7010579513205455 7.336605995057112 7.764984251451983 -0.41979069801136737 -0.548627648982139 0.06976097074422179
Ni 8.25255757662277 8.490696105516232 9.148526728285129 -0.24738640397260622 1.009420757547797 0.1820122494421704
Ni 5.43305216879148 3.312834657270656 8.716555761082528 -0.6068726486669612 -1.9850952718830843 1.3653218559940552
Ni 5.121856610441856 5.29801324466373 3.957561091739304 -0.7090783702034498 -0.5307091168305055 0.011757654756560397
Ni 1.841553426774021 3.9530736728833973 11.748667672378671 0.1421753199508906 0.24068996578903706 -0.3983340707994882
Ni 7.2116521978426364 8.951484628942763 0.5882386208622935 -0.3930975049908972 -0.8363112099118952 -0.1759588441592389
Ni 2.0164239760042015 7.1133545938732485 5.317608923828524 -0.8172079134235409 2.226467865561443 0.7658840663385842
Ni 3.0538782058497937 6.72549356616271 8.009224744748474 -0.5113096292579711 -0.9610950738592157 0.9142236061186578
Ni 2.7111874438187127 4.3084587414511875 9.270850065333141 1.485799122146222 0.6909983727732874 0.44093262219630514
Ni 5.621782828219905 3.6229106740088066 1.3902995118650394 0.08678861565046987 -0.15950892613333176 0.35413526479508683
Ni 4.880720300704451 8.238632699554442 13.703120856603302 0.5335656124426941 -1.6391870229834802 -1.4988197027756058
Ni 6.122301200238733 8.839650749125557 10.311729537365242 -0.12941262096858358 0.14540256863893666 0.16447758299251675
Ni 6.551344704913479 6.311901586208302 1.5263136400080737 -0.8312363664921492 -1.8208735136551155 -0.29262085033037344
Ni 5.826344361179168 4.3036104786048055 11.015621432897769 1.3464764411527779 1.7116592220112783 0.15066895924419857
Ni 3.030460356108969 4.525890376737391 1.2228836293816712 0.13103138751892918 0.3744395235700777 0.16205868913837895
Ni 3.682255631826922 0.012654521173657039 1.7056345984541124 -1.136864684825784 1.8161704517524917 0.32638740525785725
Ni 8.689484134627895 8.785107792103762 6.489112995171565 -2.6603032145913343 -0.4125211609331476 -0.12337361386335526
P 3.6890654055958856 5.034051239426279 11.654931506545287 0.1453120658076594 0.28361967527302767 -0.5494776556872601
P 3.2402772579551495 9.087966929032413 5.4723240230881744 -0.0040569436781930125 -0.07723928139913795 0.9332754805437863
P 0.19646289847560247 0.7711976269251208 8.08091519324584 1.0542132312721393 1.0713894859411097 0.32393303018009373
P 0.7625716050707665 5.225067244127712 1.079697032997196 0.3564320312490636 4.15245116177372 -0.019268104200992623
P 6.403306144718618 5.030174479631175 7.976304669925143 0.660131765101418 1.243904337415806 -1.1026245326959914
P 6.469479381125721 0.848033340630259 6.235203733412346 0.08664874763849593 0.4341253694664846 1.4600955467325305
P 9.022274817945943 5.055405801734388 10.999641595565736 0.4235043994175287 1.787784444410631 -0.9842285745528855
P 1.6145177898951761 8.649671014345488 1.6093253373963412 -0.247454023985748 -0.7262731368151815 -1.8113953989613514
Ni 1.9701526735332953 6.769581299870742 2.631368753125648 0.27568833624109296 -1.5341096363261515 -0.09566380665291266
Ni 1.02440833172842 7.77784417612791 7.712753471692231 -0.5096795498537158 -1.289619580064734 1.236327810620129
Ni 8.768157376961451 5.644599271309938 2.968533050656455 1.266447769933961 1.981331691075594 -0.5995599170556319
Ni 3.5131678388543532 9.290900037829532 9.963433665348782 0.10898957722754132 0.22358467356731818 0.5986034666796336
Ni 2.3746310296257067 9.568564862295021 7.642078937814203 0.5413876795902741 0.07744085588698277 0.23170524579192353
Ni 7.647348185316139 7.857599950432893 2.676544570251113 2.033364134191801 1.4610550824323225 2.047964400603479
Ni 7.973218065945079 4.407931401492123 0.7805416357964203 -0.42027303696442453 0.034050918937122004 0.17483990006344727
Ni 0.9491307238693328 6.290287956419852 12.421426133461217 -0.38181267610569725 -0.06937016306370633 -0.09320017560376852
Ni 8.342500254351163 4.268173748258161 4.9227697284868 1.3668807158407428 -1.3819257830993232 -0.24856191233794614
Ni 0.8239030553184966 3.2194315781977103 8.648467275802904 -0.4329076950092996 -1.3379825447491538 -0.4172900430767007
Ni 1.5239366958759448 0.4960448317779396 11.137700506321462 -0.7612622512958567 0.4872649296039415 -0.2054360276827494
Ni 4.02336423174592 7.3144094634378956 4.169680918437515 -0.15403221928947666 0.5396812384221287 -0.5365920579738436
Ni 8.16758344307092 2.858957684123222 2.651018096268513 0.23680091514727608 1.223105398392584 0.8027290030810756
Ni 8.811745480528826 6.08903878624495 8.956679857164602 2.0156749444421544 0.10835400052607146 -1.3035040513563099
Ni 5.341471814490934 1.2369824517582295 13.70176630377752 0.6679165512531594 1.8497038076232468 0.48734669068447034
Ni 7.763327144818802 1.3229836028214321 4.54969127625272 -0.7310358483111474 -0.3776824559874076 0.3778763171657686
Ni 3.096698359386158 2.373779807904586 13.50557265043327 -1.0288598401090152 -0.42036945333297276 -1.0130233872973908
Ni 7.154749876267736 5.84198093409975 12.654373135096844 0.9467004957004405 0.44134631269495606 -0.5785537471176101
Ni 4.603980717240181 7.097940078792958 6.459131485768101 0.5460406049812532 0.46859409266731555 -0.7666584826107635
Ni 2.058651975299786 9.006027585964558 3.5355568206018235 0.8231556463665436 -0.3029042345342525 2.4012308896403676
Ni 8.216482429985286 1.8425804442853728 0.5206118308422769 -0.759431368734705 0.8152551605725443 -0.41966574239772886
Ni 3.728045808977195 2.0550990498551096 7.085468755337542 -0.9125919840525057 1.1627353819449588 -1.2027391760314061
Ni 8.825938677487509 2.305330478634487 6.399384973355456 0.019548868666205043 -0.7916501195590947 0.5798040745849434
Ni 6.75538810291206 5.767961654002319 5.785397820670271 -0.5957685683339998 0.02193742350303964 0.6340510088539661
P 9.143018768604877 7.796552549172536 4.414435845730685 -0.08397557168170698 0.7506795906840039 -1.0221505464096396
P 3.036751994917251 2.1681357429738988 9.29962691095302 0.00031290325472849335 -0.7482313862538275 -0.6934740880072895
P 1.2349469215555502 5.237511735594092 7.871449882980123 0.6511599006201109 0.5777119679426052 -1.0047472633315278
P 4.24371037618596 6.176085459639529 2.057831286531706 0.4189869711631494 0.17577398184194243 -0.2416700703141193
P 3.8390099622532565 2.333485562301547 1.9165895467317906 0.8329842024211912 0.14288237332024425 1.2690492121125498
P 6.695238185422885 2.103396630118683 10.267638102693207 -0.71686058525203 -1.1081966274671302 0.579413524014744
P 6.978093611905205 1.0126855282429894 2.4223503342635193 -0.36160997590557725 -0.6741352784693616 0.15800688766650853
P 4.780896049083053 7.911467481523798 8.81342016674103 0.12353122248714209 -0.6287725340638461 -0.36181232172437044
Ni 4.20077919372945 4.34150835001469 7.089599031166979 -0.5182564928894494 2.8725102424493305 0.38932903908740046
Ni 6.789214913916586 8.211421361708624 5.222151809732875 0.3884870028020793 -1.6968820637021034 -0.4094083263357787
Ni 5.152593116502315 0.3711752314945748 4.543272879427271 -1.143440795381405 0.8259411795314808 -0.7690526938745529
Ni 8.371552821789404 4.351195623297442 7.241308022413673 0.2904739791906997 1.1811316250639592 0.7375543661559556
Ni 6.354842021074824 3.237362748801313 6.378449545220899 -0.2535724781786601 -0.6684024897506424 -0.4231215621568132
Ni 0.8665455625826265 3.3055622630010837 0.7197403486423881 0.21605545506980853 -1.687235541751275 -0.18808570932975993
Ni 1.0703835570789368 0.6564455369900737 5.567414741747341 1.0319148248852552 0.0859802608165616 -0.76376444889242
Ni 9.192213832639633 6.38284906618169 5.966411970148537 -1.1193935246242142 -1.2169460636594074 1.0402418566937117
Ni 1.7091884491397904 1.739490091929676 2.116751558730262 2.1738733792941787 0.4182349234884733 -0.003408254350600582
Ni 7.181332050232727 6.316157694813905 10.308127574147502 -2.1647043112004005 1.1683918088997878 1.024764844104035
Ni 9.221303409717924 0.6764723784614348 2.8676327437506406 -1.2320422958708974 -1.6845811348475634 -0.159437449465448
Ni 2.8416556774004476 5.162983572945992 4.866123698669237 0.6303920719451401 -1.6333668167572775 -0.28502041227529623
Ni 4.978175935362731 5.424910047980763 -0.1921420229999149 -0.8054358604892775 -0.7578226294866884 1.6615972723578802
Ni 4.843396078715321 5.578074443322373 9.390546643178697 -0.6366946171244002 1.8089942457190267 -0.3955698777907897
Ni 8.891584526523918 1.962371396713053 10.135076973966715 0.5711813659129389 -1.5163042327136145 0.11834530741082844
Ni 7.615704943074488 3.995727283039542 9.595353365003284 1.4255088098965967 -0.008739179645210756 -0.242949194136859
Ni 2.4888797884560914 8.344221202613427 12.727106330202583 0.8959507759513989 -0.835419037114929 0.584846007884225
Ni 4.372476166325454 2.8435246642229073 11.560626317496155 -1.5871316970491376 -2.13259920313574 -0.26924643727049113
Ni 2.7258617660980287 2.011002063737065 4.524761582715906 0.6588937789292588 -0.787773667322824 -1.0112752942580325
Ni 5.025853604155488 0.8503001810832429 8.225826438856584 1.8431528938786064 -1.635993455746847 0.8965572991871462
Ni 8.819776572419396 7.133441576009688 0.6655850676001039 0.4018739656319466 -0.6432213624993245 0.38308588639116603
Ni 2.536881291599275 6.555230717118595 10.540180792975951 -0.17688958350362438 0.6591791713801616 -0.1413530811599114
Ni 4.9591529803776915 6.9202753017391 11.675880813294864 0.0054134577060874515 0.8785089263258676 -1.565903898018613
Ni 1.319356658096658 4.140953110590702 2.964335232233929 0.7005644191951678 -0.14218920390796158 0.7691308554106561
P 0.659533991452139 7.915409008188985 10.282588146790884 1.6085764971864749 -0.9071386742474183 0.5653429048542908
P 4.096004902751536 3.2947554481068586 5.333371329525271 1.8303094622570348 1.5078931258317838 -1.3914923437418358
P 3.9287120773213307 0.6605693361325018 12.194843864672968 -0.34249408101173273 -1.0019697005863906 -0.6792774847919334
P 7.557646070248065 7.87410624989462 11.960759741846847 -0.6918676627521181 -0.20851595215965377 0.24121729904741684
P 0.6937040668681168 2.6448384116213783 4.4085855468799835 -1.5713222408207068 -0.6186806970454829 0.1901888717156918
P 7.017101772516551 4.727037770402159 3.376399639295326 -1.4723825916299997 -0.9516449841899094 -1.126469457634389
P 0.9776096418868193 2.013389185520207 12.629361095110921 1.0757495626820184 -1.6888075142240853 -0.7929796370037956
P 6.322375314342088 3.2853827567645215 12.78746257643503 1.0163635074142174 -0.3782234160925421 2.312571539329747
