# total energy = -381169.70885243145 ev
CRYSTAL
PRIMVEC
9.17340887598422 0.00000000000000 0.00000000000000

0.00000000000000 9.17340887598422 0.00000000000000

0.00000000000000 0.00000000000000 13.42621115237867

PRIMCOORD
 96 1
Ni 8.344490241474627 5.9400664555414915 0.2587231472864002 1.253747291648157 0.577491881511999 1.030130993511955
Ni 3.23846092403367 2.3661156315461778 6.391561446199159 0.18434192601661153 2.415578159500975 -1.582987850084093
Ni 1.573872543107277 1.1182385104813637 2.749003616493927 -0.5537516004722657 0.9393597390646532 1.745062480062072
Ni 4.702628673483469 4.454937467400554 12.140288944795449 -0.8538898422256069 1.1180524372152874 0.6842857366398021
Ni 4.931688686664105 3.8024787794761323 4.91975316471179 -0.43086855309208383 0.964762495408474 -1.3830280150245666
Ni 8.87812576757571 2.546877648355327 2.6286374873411127 -1.2305749672967519 1.3244081484988288 0.06430020473996668
Ni 6.045496440783185 2.920620662252224 11.180555927135293 0.2644706131484026 -0.7860217176287236 -0.968135268535449
Ni 3.2324890350236344 5.463296889460706 3.3255514307671232 -0.9303667915374234 0.26255668395514137 0.3751650888821926
Ni 5.662717619397984 8.576604999724916 11.073133477541866 0.6482620102470255 1.0510320053306803 0.4693913917576303
Ni 2.6737458895362725 8.296109684425582 3.0961107211288574 0.30120396401369415 -0.14517425467821451 0.7072485160835625
Ni 6.631383702369925 5.996051768334501 5.537479492928381 0.14165210045756896 -1.3242731655828612 -0.808414226391311
Ni 2.7015780112819696 5.018322357648404 5.634430496584857 -1.5188640230209907 -1.640740740623845 1.7303729963706973
Ni 2.4595559717247113 3.7532084017911824 10.953008609035694 -2.4323026713445075 1.2259444105032757 0.4009936199095223
Ni 6.783258655442357 0.09396322446973428 8.306742582354204 -0.3281002741839059 0.6041143691955337 0.15837121298446274
Ni 9.069143655219298 5.196515820044635 10.894255678862764 -0.28364435786337605 -0.9496894031254354 0.24798289990602457
Ni 0.14486646888861113 0.9945809623165665 8.849685448838668 0.7575632051777147 0.3281228998917252 -0.12964273470151866
Ni 0.9606576972488052 2.7138978990553615 12.695019641353486 -0.06395027759971568 0.6773288457059947 -1.6827106572977277
Ni 2.105645867258993 6.557996433429393 1.4063284907751796 -2.266361359322271 -0.016553533483306973 0.6862953108706632
Ni 5.482285845299068 5.832288077693702 3.265858226210894 0.5341001447899253 0.4106691953260734 -0.15361415791545155
Ni 0.5758066028568971 6.961663106236792 3.3065266986351523 0.4853340311298157 -1.9797592043821517 -0.3914072617726679
Ni 8.005908902808864 0.4196201477342089 10.633209824514397 -0.3276181923411648 -0.831717677003942 0.4312192515632831
Ni 0.7416370624592331 7.087008561587222 12.015666354044082 -1.5842266075872007 0.5907466896393762 1.0464911800375332
Ni 4.958961230484131 3.6575480967271985 7.453655026577569 0.09536787267904866 0.3827562709658892 -0.7059812193353647
Ni 7.998441748194165 7.8087264845742705 4.632378710290143 -1.3343328638117085 0.025357247817866007 -0.23328390313295308
P 3.0538552490137607 2.4786733552837195 4.184036620174334 -0.40624946899182296 0.7558472509278724 -0.4656231829644497
Ni 3.834860911896142 2.0067198287271553 11.246962232117857 1.1248571188419467 -2.4592848563603065 -1.834440710816589
P 6.1713556070161975 5.292047697387972 10.21550691918126 -0.35565838630783264 0.15705300839367145 0.2217573905505923
Ni 5.886475402397668 5.982695285387324 7.930473211724029 -0.28464914497880656 -1.4401378726636809 0.6163667042003256
P 2.4360261786206525 5.989254272548884 11.38361391358944 1.0954889500924745 -0.2890917541311925 -1.7906049445785612
P 5.897621093868012 8.498539292389424 3.3318086127851654 1.208921136472402 -1.4628016328097841 -1.8937252075095192
P 5.05415369170862 7.8071853519265195 7.341586245519343 -0.3612410226019327 0.5770537655333159 0.1655463905766633
Ni 6.908246347856702 3.585591879531006 8.865622411629966 -0.4656905458672754 0.25453895585698744 1.287118410909435
Ni 6.765113653196811 8.679383869876132 0.23800225190104088 0.6821342375144381 -0.026932819835102 -0.2381098637666867
Ni 1.3559765682142186 6.640080093739379 6.9272536505122995 -0.5689195664619556 0.6922157901201562 0.31360388033994374
Ni 4.773025411214674 1.0531440029311114 3.85747152945672 -3.0679364513045613 1.115508073526879 -1.651118998534376
Ni 1.7394984356974412 5.142658738050901 13.160036236313445 -0.6850681233317815 -1.5803460415858719 -0.3751429773950055
Ni 5.149520447696841 1.3545638632871133 13.207094905180702 1.224303018245111 0.1995651707242692 0.2874665598229436
Ni 2.815933723108554 -0.14458484524405182 5.926920043651657 1.410877690246983 -0.24967288601393775 -2.9801299359125384
Ni 0.2868589088573386 1.1681143331350732 0.7424158848508645 -0.16685559630639005 0.4995293487935913 0.27136322650317785
Ni 3.2720631197998165 2.8118790764995896 13.18957369472115 -0.7138922466523254 1.1052928235567738 1.6277468994673385
Ni 2.390636152780933 8.60779458902464 7.937374367027024 -2.097956159140574 -0.41679484860783705 1.8188181737879836
Ni 3.97031546354313 6.735281728372485 12.804469414251397 -0.6209836341470466 1.195036922291142 -2.118027475969152
Ni 0.3582124331073566 8.06288494373257 1.228634061807745 0.3443599305758779 -0.6587724228600461 -1.2632344052029858
Ni 7.597628005466829 1.830342701237203 12.49346517657176 0.896932680248694 -0.42040133501217275 -0.8843638424447479
Ni 7.980305919357236 3.441376722654242 4.814397484079899 -0.8831112009845694 0.047126778284473675 0.5210340556345865
Ni 7.106575442168491 1.641709899834182 1.2676898489970345 -1.21399983654689 0.5594576497181075 1.0113742817297422
Ni 1.5086771280622315 1.2509593863603166 10.873968685705016 -0.6969203946846771 0.44371121338270686 0.15197507965013182
Ni -0.14637090790189206 5.760157565733777 5.556746403047856 -0.19878124137039313 -0.15945416163599635 0.017604857565956776
Ni 5.964559456550395 6.520247856968107 0.6378913150397258 -0.6822465947225863 -1.9537188144543323 -1.308886912934778
Ni 4.001330758079122 7.543715883021391 1.4910476713809921 2.7461564629117285 1.5544357494780132 0.4292577569615382
Ni 7.632321836858465 7.385630532314866 6.9813611665612925 -0.035142609339403996 1.042171983836889 0.7901969320523359
Ni 3.1388101862210447 0.7965692679429451 1.3355106935884276 1.5024305600553156 -0.33561612294497684 -1.2931219367910376
Ni 0.5271462568450154 3.588600757557568 8.90273251885147 0.34178831319395975 -0.8009693400774915 0.4440950790846868
Ni 5.658727186649344 1.8852914188564267 5.861883328575696 1.195917268013566 1.426725455912517 -0.1512132617834428
Ni 7.3133257255912065 7.105667274715352 2.202113432281323 0.5285820431851737 1.4907688074466714 0.7141506425200346
Ni 4.047041853220456 2.982944800399971 2.1154338942539366 -0.6883534789512725 -0.2364782417005347 1.4588354490731843
P 0.3262440214159989 7.9294668887986814 8.792100293582756 -0.18738765482147082 -0.8527621563790669 0.23933807974683297
Ni 2.7652414670878813 1.8283153779327208 8.938177652408886 -0.1538915799465543 0.7915084517749079 -0.605928282475821
P 5.747333140486418 1.552269165812908 9.633037669645423 -0.4069092140630089 -1.2667406185840313 -0.9275581184440348
Ni 1.5274550955023902 5.7936588540051295 9.340789383225264 0.0887835345933116 0.7077465387659037 -0.07397218061209196
P 3.9928270082906385 -0.1698493299176919 12.328282359617825 -0.3954158687114287 -0.4214166636505645 -0.1773582956099268
P 5.548848098228131 3.430854822969893 0.6568509159705124 0.5739571288858631 0.32775728902219037 -0.5045486563850536
P 7.270733589379844 4.192321125496859 6.702539080993804 -0.7340304121630972 0.9653934441242534 0.24652791262705287
Ni 1.21524730661213 3.9729940988594596 4.280598671305425 -0.1420526783300973 -0.9425700184718347 -2.6419920749869723
Ni 4.246068126587181 4.101091576795159 9.696866246806453 1.1840629397781415 0.35723472965601705 -0.8756259483511177
Ni 8.28775270917498 5.476974441709498 8.219311742161038 1.2914373499997631 -0.037070936710368416 -0.1616398564334055
Ni 7.118097243392155 4.6617244444577395 12.151431884243207 -0.36431374798998545 -0.08018165185691353 0.11592255690194875
Ni 7.544596530248676 0.6985101165254674 5.77964830702352 0.3775670134554659 -1.8202173681283556 0.8613529833718713
Ni 6.954590408192649 1.3918721161347567 3.803645637052287 0.22084850558307773 1.197350400915667 -0.7678406758443227
Ni 8.284734657739799 3.627413449418492 0.38430252455657765 0.29951963433273576 -0.16800282253695584 1.7876592316866762
Ni 7.978379503547546 2.2735559385949315 7.275677139283851 0.9390658619733181 -0.31380776882063377 0.005474392851009926
Ni 3.8027906753691294 5.17217876698223 1.029772909796137 1.708861604661483 -2.001694313892346 0.23520297453253688
Ni 4.433609292364712 6.854086543378589 10.051169890501864 0.07902722653749615 -2.5034972892114626 1.235652381819659
Ni 4.4511671964587345 0.863102165964432 7.295373364926629 1.083433047369205 -1.7340496738913362 1.8482822446853717
Ni 1.9722645059595751 9.05733747832849 12.880959129986389 -0.3380779542219081 -0.055570538176452675 0.3654103234882739
Ni 2.2655016858287076 8.16323286060013 10.534406709658034 0.0749625695498193 -0.27983629697119544 -0.6020685424100986
Ni 7.351679747021252 6.903439481741097 11.941271844837342 -0.3350887896865971 1.881311921446831 -0.5559668629560296
Ni 1.3160355470933338 1.47124962090256 6.566531372807177 -0.8194136628256081 1.7002054716483814 1.1876897378974514
Ni 6.509120512314999 3.5015267629596263 2.741350241684291 -0.5644083088551635 0.6036101758656056 -0.337186038535258
Ni 4.0919181681775925 8.879639379997608 9.215992497710166 2.320980589329048 1.4440459494688356 1.1612523696415291
Ni 7.218023183463307 7.177339116244399 9.635977747107352 0.7035245302647561 0.3430916053864156 -0.5047962536194854
Ni 4.437590551704735 6.240156171647946 5.565311614674078 1.0114992373433804 1.811410568470003 0.4228402834709686
Ni 5.4603430518858485 8.696859213292594 5.346545083303212 0.0716054801521283 -1.5563352804935713 2.1634395855553645
Ni 1.5197494322636345 3.382400878651907 1.4795011019540611 1.3667249069891687 0.0878381399609068 0.43065180909558737
Ni 8.305136318505268 0.09405404121504819 2.62188402391686 0.49033894054357485 -0.3548505456945566 0.6064520161897748
Ni 0.7177339116244399 3.7617121515796668 6.456530278051352 0.08728355300901743 -0.10666195753562922 1.5906764769776025
Ni 0.1787787258660312 8.933184566098344 6.847004671925827 -0.9951292806257894 -2.2689401757930407 0.06481493959285611
Ni 7.916046191991182 5.427401341540167 3.585080003330146 0.15951612522218334 -0.9971463110558182 -1.2728837553672916
P 2.4429521021269154 7.079302898348465 4.931702446777033 -0.32317455474751433 -0.3291269156762074 -0.352587974912625
Ni 0.9117927842247517 8.749679700112543 4.556762303055542 0.4381229206616519 -0.3285113935793955 0.6526760801543212
P 2.639134618822194 3.9289617374951398 7.950048348373054 -0.2372863394241268 0.5410338957952812 0.052132201918865057
Ni 3.3508535264160955 6.263566710439976 8.001014889311392 1.4672031043115892 -0.5235617071524468 -0.8447050904025453
P 8.797830921946149 8.91706688715728 12.715118579634575 -0.7943798597854319 -0.4157445529664517 -1.1319988720930503
P 0.2630098811333891 5.077536710274797 1.9351736628961684 0.04405688110989832 0.07303784172328068 0.5418821027281894
P 8.777906278428796 2.9510029915936045 10.809643827137778 0.1629117811672936 -0.681874041874516 0.4315460387750826
Ni 9.339905983975394 1.5809360677428033 4.623235573921015 -0.09061930225046974 1.3576771949646038 0.45310653855467775
