# total energy = -381172.11780549545 ev
CRYSTAL
PRIMVEC
9.24953045659622 0.00000000000000 0.00000000000000

0.00000000000000 9.24953045659622 0.00000000000000

0.00000000000000 0.00000000000000 13.53762278010353

PRIMCOORD
 96 1
Ni 2.4334404091005184 1.2608034656255382 2.790401979541477 1.1513849899291462 0.3910480786610362 -0.3864450326713861
Ni 4.405412505505536 6.853420924718007 4.199614157704333 0.08398585609435213 0.22063896067543293 0.4285517320334491
Ni 4.584548157466285 1.200283789331885 4.23643653754921 -1.160222385715118 0.9530860875118102 -0.6775661585277813
Ni 9.048167956708022 4.669403347794572 10.23128831774547 0.05720164602197245 0.4303839001461814 -0.4559141832068019
Ni 8.415250351672745 6.871078277926715 8.6509875789218 0.35618340557336725 -0.5683510955529955 0.6096903206214145
Ni 3.1417324359785264 3.172727611778623 9.28384413705756 0.09672181560378182 -0.9431971105328724 -2.2409712013839407
Ni 1.307800328723208 7.869666811067342 9.701696289954388 0.48545281609586716 -0.06380089650604497 -0.6596352850809737
Ni 0.48099869577574694 7.1169307914350926 2.3343326176411168 -0.6013473479733579 -1.7520088294729184 -0.40644178750828713
Ni 0.8390230372401105 2.2902576811430437 1.1289412377163297 0.5085158685629177 2.177997171654565 -2.6136191802712343
Ni 8.873629321271489 1.9784652666263447 5.57528013962971 -0.6754809938639786 -0.0841159539143132 0.04436258527577521
Ni 6.87526831512082 7.441432060487552 1.2539976612824435 0.9290750693091935 0.06141491277237165 -0.850824830147038
Ni 5.001368987742489 8.322292572863144 8.452756271801604 0.10040337822042708 -1.2381422381210483 0.2554918066885599
Ni 1.294407008950442 2.16320613390636 10.978077814392975 0.7455461261121805 -1.45961012245568 -0.9770881068533623
Ni 7.182657953248129 4.36409485396897 11.872007912983289 0.06603749914604755 -0.09717432976016813 0.4868723221512131
Ni 4.085545251098211 0.9723753644693418 7.445584174607714 0.7867344274250322 0.9681753777447648 -0.7219485412978986
Ni 8.953018039233957 0.6338138845145465 9.277846741656552 0.3919405085683185 0.19943533001462427 -2.519267921782158
Ni 7.510396557881023 2.161578216585913 1.682306408104072 0.2798676644297632 1.6000026394745346 -0.39186311836316384
Ni 8.230379990969512 6.5845555799978595 5.805257684404662 1.159772699772209 -0.30557663916009303 -0.5061064877904767
Ni 5.416654396000543 8.88237937686889 5.545321836168376 0.6714551605340371 -1.0027335753356086 1.9824922870425987
Ni 6.946378703527608 0.07707078568687724 7.616063191226384 0.4123604669855673 0.36653543823165263 -0.6185896799935734
Ni 6.330896462975523 2.110733548912642 5.894971652962668 -0.43962007403246867 -0.3400026820484467 1.2131953383677234
Ni 0.8028712483368942 6.20378941855746 11.756247267298136 0.014006598691737166 0.5165613645752136 -0.7018625691813009
Ni 5.045646488952594 4.033969870536785 10.663706630848203 0.22054717229257498 0.04553475120700545 -0.48112384970321004
Ni 0.22995257104333147 9.212060382850042 11.242020559124816 0.0702728773836338 -0.12898453229222948 0.6790926224746369
P 0.6503631440017243 2.7156898240632015 9.04842509364841 -0.00849055396951441 0.510663768143856 -1.6146263029249805
Ni 2.4107698105072517 8.234708771117063 0.7961560893900513 2.852482377264178 -2.705786543735114 -0.36248389387009833
P 7.766358807930582 6.449364446158943 11.418592241305861 0.3983993768197848 0.21032678011614747 -0.2631714347210048
Ni 0.8716156069108956 4.3806792616710215 2.3236512601317307 -1.1033686099508675 -0.051110959743202296 1.3412424464473482
P 8.167039207955765 3.772938877921289 0.3054287377185893 0.007756761127283415 0.26430117745007387 0.27876851782831347
P 2.801978691577108 3.055110585376346 13.047587132024372 -0.7936725493057621 -1.6137140755233566 -2.8192992056439894
P 3.3972137104561355 8.538056364533945 6.167700526459806 -1.9697406438038847 1.393696036261374 -0.06110895149617863
Ni 5.553658437764504 1.4141884254264945 9.523595660426354 0.786890236276606 -0.02789749774121647 0.37054970159736833
Ni 2.5990902459862038 4.70081475245501 6.934254419302371 -0.3684498816455461 0.05233017686228407 0.5332154281921269
Ni 4.186161640938096 5.455900152765631 8.571155808461324 0.9609333514703711 -1.2874973915154084 0.9706027562393349
Ni 0.16596154605442995 4.6455210607412 7.746782177199188 0.16909168472576042 -0.5752740479250739 0.8286035568549924
Ni 2.6851293761839052 5.928486400797365 2.534175192927344 0.38361784763523615 0.022794372186696225 -0.12009494311208349
Ni 3.7965066809468473 1.9263164151906702 11.248464706835925 0.32156530127886557 -0.1656276374365599 1.31879620162869
Ni 5.084818249475843 2.8601304881319303 13.330429441874784 0.792192879436442 0.7453203832546196 -1.1872760473988004
Ni 1.626955369302837 5.583617666178862 0.4590227369027389 0.7130952046723268 0.18974149976562807 -0.9756485461933585
Ni 6.00905905862925 6.338536574945347 9.889639344599962 0.9713344921990368 0.673608202321298 0.13877966400578035
Ni 5.058577332213869 8.435238586499366 10.93973943654343 0.5075331929346744 0.9664807636511613 0.2547492720955807
Ni 3.0860687630555232 3.5540024973816626 1.364240037232492 0.45388532570223117 0.808842057957349 3.0691641530640754
Ni 1.250591984251827 6.940070523910876 5.265308957615261 0.88653539617477 0.09491124475760428 -2.268947117771576
Ni -0.025799714670011846 8.427450482045865 7.009063694848059 -0.14534754703128516 1.4419528143852327 -0.1447237974043572
Ni 7.969016015265741 2.471391231633433 7.866793906977962 -0.04970816585840471 -0.44112596915403385 0.45490091145093914
Ni 6.464228441238249 8.186194985061704 3.592749704467364 0.42135598561595816 -1.856006867023139 -0.8862859991681253
Ni 6.612803645319702 5.656374470966556 3.255324066824789 0.35733268868646206 0.6587161157008139 0.28091461763703873
Ni 5.395870701574157 6.20086656700484 12.166965257528709 0.36878721038030676 -0.3801460870365517 1.211842423884255
Ni 4.948165689860616 4.631434026201197 6.365904084989311 1.3247861006635377 -0.29537398759547845 0.844624614873597
Ni 7.007666090830335 4.57650106616635 8.744532702900994 -0.5707275662049719 -0.646617532665067 0.21289968304964624
Ni 7.814761599623184 3.2374743233873 3.8840655089613074 -0.30246766121746615 3.075040923559827 0.33990318035610495
Ni 2.653542230449101 8.078992929698195 11.869083211524622 -1.113521125003837 0.7622963489873259 0.18870380252973307
Ni 3.7545600613546544 6.645953961663346 10.573045510394664 -0.713869620944506 -0.9713833431591012 -0.6967694709291097
Ni 7.3709876382573105 4.249761410798276 6.425578354219961 0.3838644164284034 0.4436034841602489 -1.5113453460464423
Ni 5.187765520933641 2.390060112322705 2.2288472750882597 -0.30246534722462104 0.6525395545764567 -0.06956196735953826
Ni 3.708673141884562 2.84399005788091 5.876560463040229 0.30746202910826403 -1.2342734991942614 -0.8276170245720069
P 8.725285355445779 5.493314502545218 3.7301163278163325 1.1089808139313224 -0.019441396554063295 0.3546250599473118
Ni 1.6549259487177854 2.4818339512628897 6.7308785234683555 -0.9254320732399675 2.2556933380854636 1.0384981345297277
P 6.365202970597892 1.6424205838470811 11.81579944272975 -0.36347711102130303 -0.037981364339779757 -0.06607606569346684
Ni 0.5950000808111906 3.707988676647556 12.395886505951417 -1.1134717598231405 0.9410762075351277 1.7271807146856446
P 7.6922145736084175 9.288748237985406 5.461767129790401 0.34866035772344467 -0.3341598501144245 1.6544989707502022
P 4.381493220331245 8.835012532562027 2.752564001277366 -0.5407240778643461 0.8110403511602484 -0.05004549459316542
P 4.7195080530494575 4.750392234486797 2.618026809225696 -0.9269420821265907 -0.6288751210799814 -0.21337379447258736
Ni 4.645696801815566 8.311979346656905 13.245548352861855 0.3250702291083305 -0.6387710400374547 0.08622168740340634
Ni 1.782338227633432 0.9114107857716344 12.967174491065464 -1.543484135562516 -0.0009469372943015948 -1.7877121964117986
Ni 8.13502658383039 2.488623106451571 10.55107417628677 -1.2294627080691793 -0.6239871968600609 0.6773283314853625
Ni 2.316776084311912 8.219086314558913 3.3555297775224697 0.5959472600037091 -0.018176670909026763 0.6083368919173137
Ni 1.398010997054555 6.667745854884781 7.394303854060619 0.49671553349388 -0.08275738300388973 2.1051992138562325
Ni 6.251553992664204 4.975710790884993 0.7783960663957913 -0.31080574876951633 -0.3911547794422296 0.17304629849813422
Ni 0.08002786050134782 1.8397038141187199 3.074191441287423 0.7817241186946343 -1.1892971915938872 2.322458202315839
Ni 0.7858743115865935 0.07168200937498935 1.4003317041892145 -2.6675902351710508 1.4666999394229256 3.5166116935607628
Ni 6.904469082056333 1.0975677561298338 3.7911706269572694 0.3702375696735882 1.2651329077772793 -0.7934560624195819
Ni 4.7682715764210215 6.933928835838281 1.8070696215619009 -0.07122110022951605 -0.3475375569729111 0.00344682089801987
Ni 3.677742712796074 1.1169270229008281 0.40706720064886753 0.9706510929787671 0.004586333819101779 1.913851288835433
Ni 1.9037938090810804 0.7919244293099128 8.186037743047798 -1.6135184145727826 -0.7003723577890196 0.3555935945081682
Ni 2.0723849965798458 5.459969946066748 9.496980137190073 -1.5054876017140846 0.5892726761970111 -1.3172270573693574
Ni 7.199260860010639 8.591907129531904 9.855307863245972 -0.2815183126593087 -0.5068220258002626 0.1482238401378157
Ni 7.06270079569771 8.421632527531314 12.22441871455118 0.006589994512691876 -0.49031554350480716 0.6993377458769182
Ni 5.559087912009403 3.6339184385672296 4.296516861156948 -0.7827643870336907 0.031367201457371784 -0.31658790266893216
Ni 4.107882866603205 6.711153900253283 6.745228244666884 -0.9898541482697791 0.8235626519969752 -1.0622602699463317
Ni 3.0736281448964275 4.865669129740931 4.60143779966592 -0.3357922435115249 -0.9239205216914476 0.012807179066997298
Ni 1.515998004666024 0.5808020519084307 5.640856534100002 1.4418018906296652 -2.4109123785941895 -1.1144156117936483
Ni 0.18813082010924098 8.190486767088338 13.186253314370628 0.7456240305379674 -3.0748419201751434 -0.2318296871849298
Ni 6.047851588413076 0.7630834691003391 0.5926571748039795 -0.16263744445998443 -1.104505294658472 -0.6888617860462588
Ni 3.4507777400169717 0.22002135043558338 9.689674675514702 -1.2114122783253718 -0.2971033115817593 0.9010503019614934
Ni 2.599016249744365 4.16245509495909 11.227576492717942 0.7089133053804952 1.1428021333561416 1.341866196074276
Ni 8.346517092535018 0.8499791057973216 13.300768048333827 -0.2685879777508858 2.1663133075587337 -0.47701856928558495
Ni 8.551875162697282 6.016079452073676 13.821371382647579 -0.6136436488422077 -0.8814494970114304 -0.6290257877252328
P 7.850659026445081 9.208897043511447 1.8318167396917602 0.3432618124156927 0.2529790675690353 0.7834503573571218
Ni 0.6323598583624203 4.411757683243186 5.440811394101741 -0.24057735147057271 0.07045516859776897 -1.3387430770642623
P 5.25875566544744 3.0950408073784406 8.165082007359137 0.052550006182574015 0.7417468069707484 -0.274888723157933
Ni 6.379595239635478 6.6157542454630125 7.394452771497319 0.5963884613061858 0.22703457978913155 2.5481969461116822
P 1.7748923557984342 2.6421283101455146 4.262279725011302 0.00789817180115414 0.8413302603930415 1.4842564602494501
P 6.207239493333179 6.2889960910344795 5.447701369169927 -1.824085335724194 -0.7114952071750585 -2.5657025590956137
P 3.675883557219882 6.249019621381236 13.599489026729756 -0.38076032358178297 0.8431364603638448 -0.8812515220680113
Ni 9.186642673778522 8.766297772484762 3.950738897716854 -0.6356330086291053 0.27814811063549516 0.032606730291427716
