# total energy = -381177.51913416997 ev
CRYSTAL
PRIMVEC
9.17941623790883 0.00000000000000 0.00000000000000

0.00000000000000 9.17941623790883 0.00000000000000

0.00000000000000 0.00000000000000 13.43500353379405

PRIMCOORD
 96 1
Ni 6.034961393016393 3.8345084193253354 6.50346870700011 0.056516189919173634 0.5196402606108534 -0.9837783743893445
Ni 5.5004347985837985 8.053616025570642 10.692623877641811 1.115406514952008 -0.3052891898266613 -0.9102263120338066
Ni 8.238517009439299 0.013146760119976696 0.8766728165411801 -0.9180697193376253 0.4222551003914599 -0.011619843627115472
Ni 3.137818255363688 2.2751734229136598 11.664538646634345 0.1833613072708971 -0.4801226621322054 -0.06632906224453738
Ni 5.641944681288421 0.6192783098604132 1.1785425134588547 0.5356908863158129 -0.5001101609977258 -1.0198388675573276
Ni 1.7887653290738017 4.97755688352018 2.718747606162925 0.7049399225550439 -0.7291843969247055 0.7823077591122463
Ni 7.7165845742614225 7.807424078623445 3.834766360925231 0.08929004191608493 0.23514126805666602 -0.9745949081178635
Ni 3.40925359731852 6.152669049082907 1.2993730069732226 -0.9190786202181139 0.534639305122847 -1.658787056602595
Ni 8.409915071832962 0.5138774973163492 5.783674869985838 -1.0627567499667763 1.632846682587749 0.14637984495054146
Ni 5.307309057650834 7.376964527536874 2.003589374413692 0.9149286026054824 0.5331652916804819 0.28656950192997094
Ni 5.2135780371333915 2.785466358138925 2.5345938267864945 -0.9242015432669761 -0.6811199373173108 -0.4319530444055142
Ni 8.564065010874137 5.477036466265811 3.525103339512472 0.05186069342503327 0.057382651684526984 -0.56392571279179
Ni 2.6769748361042898 7.240916397570267 3.6757091058945734 -0.3772571955245309 -0.08399948294110694 0.15401962088398635
Ni 6.6236281851780925 8.202377647204731 8.484460194202967 0.10914744296164429 -1.4847567969246365 -1.5570451620764023
Ni 8.055571241256688 7.113818198560913 10.408205169178324 -0.7042153856841936 0.12345923159862608 0.14666857983555387
Ni 0.10781224522352066 4.600090103116912 9.37705470843169 1.0609114692279213 0.8579506425585417 0.015605567747740866
Ni 7.071455192029918 8.316477792639244 12.552848209303226 0.1779977289661386 0.1274668100961224 -0.777700599357538
Ni 4.210231110618985 2.1770638207894377 6.913585753477073 1.1851548872907396 -0.0952341753146618 -0.11338436386112731
Ni 5.84137668126511 1.4702579399920035 5.056317193885642 0.310293327909472 1.0388202937558366 -0.3270921446343657
Ni 8.810045831244905 5.629488213279198 12.075744371892366 -0.3366803025434331 -0.30882908465911973 0.7103312687739445
Ni 3.296429390758938 0.3305471115879855 5.147218200337319 0.3026563801895046 0.840925568755455 0.9090942553118925
Ni 3.3256566524695965 1.723472140459506 1.1028352769768637 -0.6287704771813171 -0.44579483538461284 -1.941827205223069
Ni 7.250554784755001 4.562583007843749 10.324101520545973 -0.9081707150563586 1.1620252432518117 1.9418981676703198
Ni 2.0927141637984685 6.335486305436389 12.511508707697086 0.7693936221537395 -0.11668360343768935 -0.028797383847666537
P 5.7946442725437 6.349264609402374 9.363297517123346 -0.30505753343182945 -1.379214040595115 0.32569500717652294
Ni 5.226521014210035 9.080967125883218 6.581150435942517 -0.10847844191907768 -0.8981392989622855 0.7856131693363955
P 3.6294127194505696 3.9322875624603664 1.3873384360709213 0.14046425079705485 0.0002123731211222149 0.7815130311250927
Ni 0.01977613461980016 0.6746311084915202 11.7276838518189 -1.087418000158882 1.7633697630116922 1.6413588338238183
P 0.5491264561633751 7.353722245297116 2.7620753693540316 -1.0315474142435073 -0.3843657815448542 1.853139315667357
P 3.907310370527356 2.47455034639215 9.283453117685012 -1.797160743419208 1.542818219843743 0.3548721429611114
P 3.817884496285761 8.556363480542716 0.7252344770946451 -0.35105662586976316 -0.04691491938398372 -0.30829712341504967
Ni 2.7202649636882934 0.7610626571143917 7.893266308715593 -0.26581041500574865 0.2007249953603253 0.020059746864352548
Ni 6.2823650229239565 3.168651914938469 8.821128140624076 0.8433771156197412 -0.420110029023999 -1.5842327782347876
Ni 1.43310884195713 0.22991500584627309 3.55267188068572 -1.1362075108577594 -0.6207586626204341 0.4374608615976209
Ni 4.429389676367095 4.592048934379934 7.985792989805763 0.6623704246239497 0.6966794823184647 0.9782803273892507
Ni 2.755568999033518 2.1566763370396345 3.235188914470414 -0.7328937274554926 1.5511887032956253 1.482592956504098
Ni 1.087669045256276 3.8511507011976422 4.716761403075658 -0.09635234807950502 -0.3576481630443518 0.185528490125545
Ni 0.8809513425095652 6.138872386284189 0.9774646441276682 -0.5585724188996767 0.7761965040081859 -0.047049130969002845
Ni 0.7658175947921936 6.425618994738198 5.288661991244103 0.2710341252985332 0.6763842224045383 -0.24022356767557979
Ni 2.2766145912831868 5.744772503424979 8.272563464742325 -0.6849781347211366 1.131965961972586 0.10501079508545141
Ni 8.193648022240273 4.636275362433312 1.208079121501062 0.9896561733263599 -0.8016612239381936 0.5059352523199351
Ni 5.311605024510317 1.0703842042383205 8.975778357857218 2.011139775575962 -1.908980333896377 -1.2714295394192683
Ni 1.9579786903722587 3.36270477692444 8.570255609271644 1.1628423398364685 -0.011593618374870357 0.015948038688824145
Ni 3.8445415214138245 0.12093605680258131 2.9691088440237468 -0.5374418075686487 -0.23266066772665736 -1.8549172335033859
Ni 1.6326326360974828 8.346834122562973 1.2538320864961743 1.1411908230049637 1.1978083143886922 -0.586413352371345
Ni 5.119801119534117 0.6825630421737376 12.044964870874146 -0.4306093858934261 -0.5866486083106026 -0.2169687109126973
Ni 2.8076162898310795 3.9187571027362735 6.5497788625686635 -0.9560323146243278 1.2785815770830173 -1.2491334470252293
Ni 8.014217970525996 1.101603399300491 3.514905925871024 -0.2815111135704571 0.27356074837512884 -0.18014228611296718
Ni 6.969269929039007 3.666653611649107 3.6657007882302732 0.36675886709636835 -0.5705653295954948 -0.19455974708987783
Ni 8.279246079857073 3.371489478387097 12.465654769121944 0.13342277056924118 -0.23321628311981124 0.5755650968029313
Ni 1.2133719729779355 3.995157385153929 0.5470812821969383 0.6832002168851072 -1.9292370272628838 -0.34054929858053606
Ni 4.103667266021297 7.647472748438699 8.516556023528128 0.18498881557199107 -0.13153763773138638 -0.3980661618500822
Ni 2.3484435243503685 9.157899814450126 12.333750227703135 0.8576423672895036 0.01822732164130409 0.7084980722199475
Ni 6.21093080476053 5.7895588758767085 4.3670476701146015 1.4287897946407135 -0.28149388717927654 0.7287257121207321
Ni 0.34960174408138556 7.724901125489392 12.679606769907025 -1.2566621513021068 1.3421289628173594 0.2573977654620212
Ni 1.4439680915185966 4.114462259668199 11.449619135364246 -0.9648118605891707 -0.8077953618603895 -0.5541773751557746
P 7.666740343391799 5.428385559523822 6.026553047624759 0.07654971153128107 0.19444199056509096 -1.4925269277883586
Ni 3.183219648711966 7.2022435164185685 6.181002235639478 0.01642523543555881 -0.4743111976567508 -0.5924055653990378
P 7.127844346768792 1.578556694282944 12.39985028701604 -0.17452211171271234 -1.3251738230202597 0.051571701429704735
Ni 7.932888341519578 6.996239054323529 1.1843585916686141 -1.274475525334444 -0.44805997726970576 0.18312348022847819
P 9.145011913871683 2.96259237634523 3.111479755983539 -0.24314125554300706 0.6280793646515634 -0.7802228515587595
P 7.418795127918618 1.027855968212729 7.8082896975867975 -1.1384279155478458 0.8941690014606277 -0.18844257844854642
P 1.3539455552131843 2.0626148575330006 12.942691596793331 0.14278364295885085 -0.46902012446114066 -0.31901862359761185
Ni 1.224736090439555 8.872585194949277 6.004169958756897 0.7552119313367187 -1.1343198069167433 -0.5807751802489611
Ni 5.339437014933281 3.0532482923799247 10.927535239816322 0.09932402911331926 -1.0730905277926164 0.21127577429297809
Ni 7.56468359223002 2.344413760565513 1.3653326212157195 -0.6051219845244417 0.0861646089132258 -0.2596857901652495
Ni 7.36169915811953 5.342181660426838 8.127720535955056 -1.0998605967976092 -0.035420545591139004 -0.14155851230249816
Ni 5.030366065876154 7.728582071452324 4.360988337371133 0.24072287590950156 0.8611010152620654 1.140849637615461
Ni 9.027772408039855 2.674808493841816 7.9760123216673495 -1.252248338505127 -1.1389184820310192 -0.33286838499651056
Ni 7.468428232211814 7.752678039414158 6.17319605996148 -0.2433646844077228 -1.5629016208571793 0.4670275195111441
Ni 3.470214101407869 4.626031133768395 10.123732302158276 -1.25200176971196 -0.7404756535678086 -0.016495940772494173
Ni 7.9418749901422965 2.917989592220829 5.661832804787891 1.340784532974323 -0.2743770736288372 -0.051151068952518364
Ni 3.494466119447932 7.089970074840972 10.90405062098449 -1.2723628498668154 -0.3224245639553673 -0.5353363311898716
Ni 1.0357961633696762 8.372839409129021 10.438097938575547 0.979132905197533 -1.394629603819237 -1.4653717075298054
Ni 5.4591916808495045 6.49212386631286 6.605252829495806 0.14985957596902577 -0.18338624697156158 0.5068438801771336
Ni 9.292598570210869 0.14554882590584448 8.268304215548309 0.5719771223413569 0.3599022491858512 0.22849239528158066
Ni 5.097026987529046 5.27430905581358 11.440698578539365 2.4693234715432313 1.5636739802468296 0.8235413118407365
Ni 0.3765112031595253 4.6894609008603085 6.82452522000686 -0.10752122021213095 -0.3165447081358226 0.9457386460078034
Ni 8.413412429468567 2.478240471771448 10.312587778597583 -0.42112844298618446 0.14139730413428553 -0.34849657845207077
Ni 5.9843828088374575 4.988012238761525 1.6299751950594064 -0.6171223514194275 0.2621388796914324 -0.41743788150847466
Ni 1.482916355161287 2.011237664130187 6.187772973151344 -0.4100361897277648 -0.04546584564228299 -0.1797972440687226
Ni 9.040026928889016 6.917736685557965 8.285433924429672 1.7271904848776576 0.485174622733816 -0.5372091227325523
Ni 4.357661716879945 3.486369874212756 4.782646664045587 0.1798005865028323 -0.3349707760514941 -0.26313518216643067
Ni 3.325748446633261 4.401814709602391 12.709808885635796 1.5441503083916053 -0.31314776663913163 1.0919696240853065
Ni 4.335346555693194 5.374364694207482 3.2199676062516276 -0.8872172527331429 -0.7360047622806486 0.8056204656962577
Ni 7.422154794308725 0.3056249961531742 10.085724010751505 0.5231552157426475 1.153629820099265 1.4729245801763988
Ni 3.515431906428819 0.2671338674455312 10.06306003174283 -0.9406656023602702 -0.07060943478744613 1.635647642371654
Ni 5.0029838668551445 7.199691638668706 12.928973876975364 -0.3112621195806446 -0.2418613603893189 0.3693664799225445
P 2.8626560703640918 5.219021431038675 4.871492399172825 -0.2008653775929315 1.1254063064771973 -0.49763007488834937
Ni 0.5977406452398983 1.3940963223998748 1.558662145192017 1.8877543346380647 2.025111407264706 0.41704758804859143
P 1.3690915922177658 6.14183733777054 10.439535435178529 -0.1581801800195792 -0.1605669350842009 -0.6585790759023173
Ni 1.4069842229783185 1.6852123330442965 9.967308621683141 0.17198314734094253 -0.9651815852237634 0.6206537616114536
P 5.922486004278735 0.3577567375813069 3.2240781489005075 1.5171982052827935 -0.7599548453383428 1.0549040866915766
P 6.8236476678022315 5.273482908340602 13.075120282886662 -0.3647644623741589 0.4556599011041508 -0.9522674482652567
P 1.921132513077477 8.008921447282576 7.792463465829466 -0.4775011653489583 -1.867127916636965 1.0827164809181546
Ni 5.357235903267755 2.562434078684188 13.283026720052822 -0.024160656406603552 2.4499957177488967 1.0580881408465133
