# total energy = -340895.4685888337 ev
CRYSTAL
PRIMVEC
9.04323307020356 0.00000000000000 0.00000000000000

0.00000000000000 9.04323307020356 0.00000000000000

0.00000000000000 0.00000000000000 13.23568570225652

PRIMCOORD
 96 1
Ni 6.428373235061226 2.0519005564643926 11.612791874882992 0.095464546157913 -0.729715329727511 -0.5578383689471297
Ni 4.556595796299678 0.05073525089106688 5.7959998366225784 0.21241040211805354 1.9490034112565338 0.4816385845560996
Ni 2.559705227032113 1.469733379778062 4.83376546613207 0.31144569634636043 0.14494439805559553 0.6654513775421185
Ni 3.367935145777672 4.28906078705573 4.955904277258005 0.2014310202884144 0.2127461881909175 -0.4808052900215268
Ni 5.009887857493327 4.56680560651589 2.696347575469617 -0.031509640572507026 -0.21563662236483508 -0.43209136975559137
Ni 7.1104319650232695 5.87761320707366 2.6859840302900078 1.3002379790105283 0.5249809560974765 -0.8618872586087867
Ni 5.100582442664621 4.812302256595172 11.315664693831682 0.4860215441151436 -0.8009742251734979 0.18114270235302352
Ni 5.668407051589294 7.621917231479384 12.453204851730813 -0.9931870692977541 1.2235291161935637 -0.5805502087223485
Ni 1.817635601946259 6.476591754169147 0.26639737051480783 0.21141641363590044 0.8850917217497078 1.035595359060636
Ni 3.1379385973020995 1.8333527411453523 0.39845751271975727 -0.8858887637297066 -0.638225709056946 0.701040844610954
Ni 0.4686293846008193 -0.01064931134686565 4.716206148268746 -0.03413782222397346 -0.36757879189450243 0.5446151853886362
Ni 8.619286371369386 2.214904833831286 1.3573721123241975 0.08491839521095053 0.5963264977199988 -0.29640140041872826
Ni 6.7573298837989855 0.827272254770606 4.744040315553494 -0.047067385801447974 -0.30207891041947976 -0.23019755089814548
Ni 0.7436856508481542 7.350719712813322 2.55652562625973 -0.42414614676658563 -0.6231379614858882 -0.17424366124034507
Ni 7.619900590488936 3.639168837376298 3.7395839938508746 0.7434607043380616 0.026675966629289543 0.6576848462228222
Ni 7.684306496919284 3.889711611548268 12.544306382393454 -0.06618508046750537 -0.6650492570076932 0.09779319429108964
Ni 7.9754081717287315 8.855884480037902 7.142585180456167 -0.04347195514070578 0.019776154185662715 -0.1463119678270835
Ni 6.911824478780178 0.6187009342527392 0.5028408398966137 0.156204287240131 0.16789097954943988 -1.9353333699686086
Ni 1.9668218190736726 6.373869668920296 9.155295981780633 -1.46026626798244 0.4892745038348026 -0.023299336847572776
Ni -0.11741100883981045 4.793872147453772 1.144957417721397 1.1820893609915384 0.46521000668643103 1.8801109591601943
Ni 6.308360488046745 1.9759373980798214 6.9160295821907525 0.44605708790706405 0.14959732344657461 0.12460980026330153
Ni 3.380668018040229 4.4736964780959445 0.6250655617373894 0.05660823541234767 -0.3929118713426524 -0.1630123113008999
Ni 6.057202774021184 5.600284376337987 4.766342737125878 -0.5710702942563713 -0.30146364543298404 0.41030281312559014
Ni 5.399199044214257 3.1140735050429464 9.23208930896755 -0.33302985027503934 -1.1853569759992166 -0.367180013794187
P 0.21631865834977904 5.616426547494707 12.39093133967512 0.7009097183497283 -0.21224405174351835 -0.8405548156795976
P 3.965774245497391 6.10864972736045 12.560639365769452 0.2553097725847409 1.341689818397412 0.9388871703036088
P 2.3339137819671145 8.46877079897024 1.4912119628112996 0.2474288271747674 -0.32623056796501876 -1.1998914221699657
P 6.5569137509276905 7.918887964597353 5.771076686085927 -1.4705509377378996 -0.5328750141335726 0.3615600965042483
P 4.82593040893869 0.9096949945878084 12.681084379328073 0.7768248816208041 0.16799588055842035 -1.2841418447796142
P 4.020133119908065 6.157239019027152 8.16711928837848 0.4114271565380205 0.7742177830152602 -0.9090986261872664
P 4.553584399663718 1.0279081382072275 3.8082637322636677 0.559018762408476 0.2522815272813784 -0.39612523607362743
P 0.20261002123130617 5.322259216650455 3.5635366613246875 -0.47386691103048073 0.8219500560942167 -0.14824055230836403
Ni 1.4105544621032247 1.0962749807533418 2.5348191537513385 0.42645011230941393 0.18893751580709398 -0.10544813973318612
Ni 1.6743455728267904 6.384025219737663 4.8253073301752725 0.6296253689824447 0.5137177244788314 -0.30884811082251323
Ni 5.972829408815464 5.664428029007245 9.104629459461439 0.1543096413205794 0.31962977481904953 0.1422550241488905
Ni 8.94652480581035 2.3549664287194103 10.230841159204815 -1.4076185598797373 -0.3045723662652948 0.04392806884151789
Ni 2.4065852034883553 5.353747754447488 6.954161279053179 -0.5428166987273167 -0.6813824469500782 0.34857602553975453
Ni 0.4521390489681686 9.22409780384083 9.450359497029163 -0.042471281790333305 0.0059207363598091575 -0.16943646965968884
Ni 1.8223832993452946 1.3598400106483821 11.548996386689662 -0.8476762572157273 -1.244655613759534 0.08114838664555701
Ni 3.9677818432546976 6.784477669688329 1.578143658672615 0.5073390746459971 0.888052861260561 -0.10211470448457897
Ni 5.721056754936314 8.112386024115768 7.928374316162285 -0.46365654615638213 -0.7266364336918713 0.26639585519557346
Ni 5.391421863712979 3.0546956362390065 4.664189471241597 -0.2314908157882723 -0.7703297608147637 0.6105354422305291
Ni 0.809176745255424 7.384143502502534 6.897102999549912 -0.9879877844850016 -0.5718598800372022 0.7835336610995474
Ni 5.077278030860211 4.591149990131517 6.917168125243207 -0.29972095171026447 -0.20501616653651142 0.1360003014884303
Ni 8.29595461364534 7.228256249617624 9.151047470850983 -0.7218744935268535 0.18410975540114743 0.29838629205924094
Ni 4.617275890675925 0.07168480478555479 10.531476210391526 0.6046239618421005 0.992747153546858 -0.48837538905930084
Ni 8.062566852741886 7.143078036662353 4.520330622757559 0.7987250241280051 -0.36492695609395215 0.06988232681343448
Ni 7.167458593210544 6.071653860580534 6.903906223841902 0.5376863194792869 0.681424098821291 0.6451126659847665
Ni 2.2723203210436247 5.2560084906593385 2.6843028932490918 -0.9543158461538533 -0.9366706222682644 -0.7541593217024883
Ni 2.3811465886626646 5.2838435622674 11.45270675317402 -1.1857673240637578 -0.9816515578543287 -0.4998396809451585
Ni 1.042395397699142 3.250960925098573 3.92146873336959 0.35720079109428804 0.0786094222737872 -0.4451803417290655
Ni 3.474826161504533 2.7251602205802223 2.8444015798077755 0.007445143424135565 0.07019034497215654 -0.22914416993296666
Ni 1.1640178402127257 3.224057306504037 8.193352803397266 -0.4570218144486839 0.7311122100750377 0.18246682048108576
Ni 3.595001686715554 2.6143082687375943 7.115240252084349 0.3382826140335464 -0.012158489739404867 -0.05956294716529743
Ni 4.1359226770456905 6.904806929862747 5.737378886432542 -0.36418622127318573 -1.3916746349559708 1.1412602427903182
Ni 0.8223907175210832 7.575199889072873 11.279133649235215 0.3020969081416088 -1.0761830506750112 0.19869330964227716
P 0.174781279886444 5.647010761977638 8.145797153278583 -0.0020262864014094135 -1.6114903283991602 -0.9481040609161865
P 8.44810701124301 1.6877295578755003 8.093251447112683 -0.33553050520970606 0.45249975820861427 0.005288502092448956
P 1.9010775141384542 3.2178446053361562 10.451890332810661 0.779531996139322 1.250204825712537 -0.19037270559172373
P 3.890679237494357 6.134992665500242 3.768318867156467 0.62912426097631 0.20070982585167368 -0.04461198228241994
P 6.966065791160019 3.880641248707825 10.447588466805477 0.4072102902431955 0.7703577858392217 -0.1693032865159342
P 6.396034633348938 7.518697768407776 10.222105395990589 -1.079715746418618 1.5738871733344055 -0.44507261250660773
P 2.282005623737658 8.428275200964752 5.86138331655547 1.3171054441898287 0.6018546266270796 -0.23133989203270477
P 6.997735193619872 3.9531770217319493 1.6385253263552082 -1.0717751514153024 -0.6048383918457518 -0.9353452185886213
Ni 5.351857718721014 3.2360395904158894 0.354959561311449 0.2889138337924315 -1.0509163056884225 -0.1307195127054652
Ni 1.2653020513921547 0.8817568301219398 7.189319705005646 0.5059617346824964 0.5610229373226983 -0.529449019171159
Ni 6.789767961075826 0.8630237726703162 9.36803351980657 0.4025424524538809 -0.29650938675150224 -0.009583787033693171
Ni 2.811495967377544 1.5917537245498508 9.283338215501029 0.6909160974721262 -0.2728863480159236 -0.348431015321458
Ni 6.278309824319133 2.035188661619787 2.4980104818974436 0.06857312108370772 0.0033545182945297065 0.3566153509044633
Ni 3.8941789687199324 6.843783192627141 10.313272942255157 1.4982872273109036 0.23379760954457798 0.5516600080505595
Ni 8.180364007636818 7.1599617529366375 0.2697940088825751 0.14720414062404968 0.23450054914887353 0.9353007385039311
Ni 7.509971048426692 3.8667237129037946 8.190096335143185 1.4707638250796542 -0.02952886269705237 0.12138126602367483
Ni 3.064453284798167 8.424956334401998 12.367200087266454 0.4052343974637472 -0.43408037516116205 0.7789699529882649
Ni 0.10845459073694383 4.692524633642356 10.328864380513592 -0.018898122456083584 0.8816117336209075 -0.48833656540156545
Ni 8.625155429677907 2.267075245821833 5.795033114999803 0.3218082705276071 0.44534849187581366 0.4047402314361482
Ni 3.877575592673019 2.6268602763373305 11.493843516409207 0.5134480157572126 0.7149502556031946 -0.5991745086917553
Ni 1.0741642757235468 3.450056745931278 12.673473594316592 0.19719924159525393 -0.27137273958487457 -0.669073547675738
Ni 3.1218597287773653 8.468653236939408 8.071451829302939 1.0614115487927915 -0.6650091477983774 -0.8581843558359027
Ni 5.65633433534603 7.731394611884577 3.5235646665180633 -0.7687295062071793 0.7719423567175221 -0.04258878120480407
Ni 2.791854064995248 8.234858530544608 3.6837293686786756 1.483609827804387 0.09646856194239514 -0.3396936354484601
Ni 3.516497379818355 4.44875524109301 9.419215506414801 -0.558149215319329 -0.7576004861735534 -0.3447584515658772
Ni 7.353486942154475 6.0543270258823405 11.462249172784425 -0.1616650532443861 -0.22583593149534012 -0.7415925407810712
Ni 0.5964455374926878 9.017387580703387 0.10013391192389094 0.5659699969153286 0.17816793599541575 0.8835639722512718
Ni 4.848095373367331 0.43210286162092376 1.5491971737115227 -1.4505809223738761 -1.5436407157450382 1.3123823276825461
Ni 6.085462877586873 5.620975293764641 0.4169002823875543 -0.41476804798579536 -0.6552456406537103 -0.059442362427033116
Ni 7.827641742204458 8.668834245749036 11.542933803191922 -0.49154221682305677 0.7566895443235098 -0.5584109536211479
Ni 0.058760215980408405 4.950500945456246 5.845342429609929 -0.12199344568637699 -1.0610778196024566 0.47466780966522126
Ni 7.904726261498515 8.824025169682088 2.417603478747374 0.20471920412138292 -0.233805579964378 0.7325949652681512
P 8.517486695900919 1.5110247822999614 3.5932635773058497 -0.2621519923175549 1.151271090059101 -0.2625980787160381
P 1.8091259195605587 3.1697346050259276 1.4563358298796405 -0.9871375206695644 0.22733334197647298 1.3606074812375213
P 4.849289080141945 1.1442855054990193 8.250544018427707 -1.005469743319849 -0.6749009529907926 0.4755604966828197
P 8.641270471135206 1.5891221437058136 12.275529737239243 -0.5820262790472427 0.05806579379448064 0.9347389524631902
P 6.3452026198632625 7.576040909754988 1.354858093510994 -0.47607831685950275 0.653369763787236 1.0223894018933233
P 1.8136023199653637 3.303836709274119 6.112583533776793 -0.7482707241321952 -0.4972688348941887 -0.8996593351512376
P 7.014754558391273 3.9463312942441973 5.985918584463777 -0.4668192601550799 0.2699568330739544 -0.4891618895163382
P 2.3813274533254845 8.499879520975352 10.093759309636656 0.28230635577824287 0.4922055614386685 1.1452536802204274
