# total energy = -340868.00865020143 ev
CRYSTAL
PRIMVEC
9.31418549058643 0.00000000000000 0.00000000000000

0.00000000000000 9.31418549058643 0.00000000000000

0.00000000000000 0.00000000000000 13.63225195776930

PRIMCOORD
 96 1
Ni 5.697105468446635 4.278275571382297 5.024575626429037 0.9865736777462946 -2.8925689608724183 0.8121598094766723
Ni 6.287643465779224 2.23985673200445 6.366166707735509 0.5432440160727225 0.4311675723897413 0.9055929270268532
Ni 4.462603305006031 4.422105225885465 7.506749280372935 -0.06472649364410789 0.6008755505432619 -0.3929509521107039
Ni 4.042775701905669 0.46430656515931873 11.394927197768242 1.1228259473445306 -0.5534965470386661 1.3239690040788812
Ni 0.30585363921657255 2.093372534596646 3.285195236642068 -0.009207634641197046 -0.5254866920893014 -0.6342862647932237
Ni 0.04565068661125014 1.4947405099513227 5.480410939757593 -1.3737848991597434 0.09824750821968886 0.8343581999505824
Ni 8.410243914883766 3.9260037566585373 2.178679297947482 0.9337233667144822 -0.1046485266500262 -0.29113166737935664
Ni 3.9703392802587887 5.584673933703225 5.296252724312331 -1.764686939161219 1.3402512861786724 0.17888373111551775
Ni 6.929372227335968 8.029824631185225 7.781098618113564 -0.15153387834765514 -1.9628922534234838 -0.9723557343746995
Ni 8.954378639406174 2.7862920603775447 0.12440492037116675 0.7240522179044627 -0.17896266398256921 -0.5115600547058803
Ni 8.526978603388377 2.8840630669388547 7.83816290779619 1.7531033480886775 0.49357698786489834 -2.0121592179794123
Ni 3.0006766710302717 6.146654637893299 9.378676120190521 0.2861689240574426 -1.083063065624296 -1.4008038509507488
Ni 1.7005001847103873 2.4453462953802356 1.402813223454466 0.7477040529954477 0.34539299982608257 -0.6596609961125864
Ni 5.156566019577524 2.42836653497619 10.924722890267812 0.07004147809911809 0.5458667984075503 1.7745658888378275
Ni 0.6742445835921379 7.4695111662229765 1.2178782049276369 0.400950939597045 0.35880078859155623 -0.7660547875884937
Ni 1.9986006958082938 8.51268132844586 11.193782701988994 -1.0398903868915637 2.422951054926279 -3.8383654567013505
Ni 1.8211095744372046 2.569541646574721 8.099165948947157 -1.3095813678986414 -2.006270620409119 -2.496687979599113
Ni 5.91905319783117 7.283143625946206 9.830816496079533 1.3825816715157673 -1.2074908317837785 1.324244883448087
Ni 3.253724466234394 8.361111585683908 8.983013240289422 0.764449904995219 1.5421132233569184 -0.0883896415890026
Ni 1.6837812215039898 9.042602605696423 3.3747045605492976 0.06912385138085515 -1.0628092004712664 1.0345129246297344
Ni 1.457446510687582 4.9584719195922 1.1070747898324045 0.17926888236907834 -0.30377095340992205 -0.5949959518340334
Ni 2.307505662237354 6.6369254269156555 2.6487057045023708 1.146308089626871 -0.42729214859473513 1.5195613061983313
Ni 6.026678612789342 0.7495972767598672 13.304559723854428 -2.176196628110717 -1.3324425887675309 -0.895542998990019
Ni 7.570579394497414 2.07578735212663 11.714276160544562 0.32948661300847126 -0.6634019512122574 -0.28380736580380156
P 8.17418519426932 6.387705762005589 8.959006858245873 -0.2888631830601541 -0.09029122948708966 -0.7868244160356772
P 4.666779568207944 4.825176609036907 11.830573082324548 -1.6846855216359116 0.22636275053308758 0.7140951066917508
P 7.676248830473223 2.2007464665428 9.530034430938661 -1.093986397405019 -1.0284803452824094 1.1960537935914304
P 1.1411460808680596 0.5010268105882325 7.01046711594478 -0.8665769507749721 0.2690037251320658 1.8703903894383207
P 6.206796334508177 0.1542112458067053 3.1986031156742496 0.16075205451181346 0.5829091958728284 -0.0830376332484699
P 0.23989150800131662 0.5057817023525032 11.741922526332432 0.05769066984324903 1.4416784776779237 -0.7693938792640556
P 8.67768212688671 6.373138375679791 12.166853371739638 0.2763128571989693 0.6266673147953853 -1.6545290526571892
P 4.966836058288214 6.780689882119411 8.080613022590152 -1.2209374442069876 -1.0676176776035033 -1.205836069789175
Ni 4.033182090706456 2.0668643622927982 6.946150801330399 -1.2416587359147389 0.17149952283630462 -0.1613413513563802
Ni 2.029914987897379 1.964482833844487 11.914179075379291 0.3214269759287884 -0.24543287979066117 -1.021501342861415
Ni 0.3829993131181355 1.0550271205302608 9.310882820080346 1.152622204770357 0.3236903180416683 0.92372177541708
Ni 7.521139697171756 0.39016844179778115 1.377062294442362 0.734989947862889 0.6015036710455641 0.7054191761843077
Ni 0.36793454927968045 8.100929124286973 5.577745111012842 -0.31479121577982555 1.2236471298286666 -0.40233984952477164
Ni 0.6932725334162877 6.71801472701309 10.10918769917533 -1.3607116109155533 0.6842057753314862 -0.1685332411191291
Ni 4.30586418921926 8.320557621449561 3.1759603304069786 0.5635714147761649 -1.1902112187677245 0.35067661682252504
Ni 5.0395612196896336 4.466710860868995 9.827708352334703 0.28395263313241415 1.8143488251627202 -0.5519808817250881
Ni 7.9503466852018345 5.719738939528276 0.3042823361007401 1.5919028931855357 0.3947525240958169 0.8478012128293656
Ni 6.690146683607217 4.56280531401685 11.982654173877604 1.5520603072673012 -1.8799052709072914 1.517421119926877
Ni 8.33732315558411 8.703715275723411 10.296058205476136 -0.7983658410163734 -0.9824056624115338 0.551670806683837
Ni 3.8811466386629894 4.423120472119169 2.5023500428562646 -0.22161418010450862 0.7199921889024761 0.26595491100341295
Ni 8.011484999679155 0.6231199500859577 7.742083357345344 0.36205991895880224 0.7865007141476713 -0.6812400078349429
Ni 6.181443121222488 7.648110675684071 0.952369892187293 -0.8668998813320296 0.3176996476758722 -0.05512573732955023
Ni 8.43485199331903 0.19004850643786628 3.5745813956642616 0.24755686811219946 -1.8614558059528523 -0.1755721502437815
Ni 1.4325403783121469 6.037101186509654 5.059106106816266 -0.03777927563130268 -0.8614483712991552 -0.8839367822096583
Ni 3.260561078487038 8.167395152944827 1.0135743373825892 0.16192447755335984 0.20463332927579594 -0.9672857760509598
Ni 0.45637553609511405 4.60466326423944 8.792897671715016 0.646411587301848 1.2600791474034556 -0.237558619248907
Ni 6.191688725415823 0.22982194191639405 9.337806405063306 -0.8332870783735907 1.147499795942127 1.2226523700155654
Ni 4.72781542664333 1.0457595058281075 4.720494476737911 1.1511294222749144 0.1532241215658845 -0.40515263638321836
Ni 3.3991189039234526 0.9813239696376586 2.4378828384346725 -0.3307179143124111 1.102973688505294 0.2238824073133951
Ni 8.713532427377753 8.476709943541621 13.163002730645054 -1.6316009831061062 -0.7031509489754213 -0.42184038145154445
Ni 7.114789720678447 2.170987643453976 4.108938088111977 0.0971308781167424 0.4155113539097231 -0.6046895249727134
Ni 5.09782145080719 2.53835775308446 1.8601891030862747 1.6876893414592418 -0.8359499699177344 -0.23056264754704808
P 0.515919261992527 0.43000055664577985 1.7772639770011076 -1.789112933414067 0.5274402162712465 0.6291733690466906
P 3.0795864516902145 2.4726834302051808 4.239834995867466 -0.30253785233376934 1.7152615946505558 -1.2811781341656001
P 0.2321979906706848 5.733207251949698 2.7125320929525976 0.5488906728355386 0.794456221549322 0.5275541161412914
P 6.885381328604038 2.5252899506451425 0.1625949442925427 -0.05438963049447407 2.2499885743912023 1.0138618240382862
P 2.29087052670163 4.747272760425037 7.512215775919361 0.016231888477830112 0.3539902545767904 -0.40273811340445476
P 5.335314556008704 0.34494527630696203 7.009540354474565 0.7456893365582642 -0.4394084722422949 0.054180342697145396
P 6.546270458175899 4.023802705776738 3.0700245087221436 -1.8358730723877414 0.0932305146210717 0.07546984820354098
P 2.8067832687642156 7.799978472386193 5.078286809284752 -0.023999191128074797 -0.10877283323104493 -1.4861724463252406
Ni 3.773958990429441 3.25513090826457 13.548182494619244 -0.6005050545777206 1.046380622601598 -0.7825615269942652
Ni 7.381501426202226 4.36726330089423 9.90734836514806 1.68423069348668 -0.057188533395849894 0.2347851702688279
Ni 6.929744794761179 4.626318745829899 7.781848410056805 -0.6559215836748122 0.19663668422356456 -1.6877633892302866
Ni 5.533138544610749 2.379262148333223 8.742990402270717 0.5436085985009929 0.8843453305019866 -1.1777601374885651
Ni 2.859892755228214 3.558158623560908 9.632631117075034 0.7490546534860713 1.0481981354263108 2.2653025790404535
Ni 2.255281023408235 7.152223432726641 7.046402175525059 0.4788787624227752 -0.8866166430346665 0.534391450778099
Ni 5.922452875586231 6.174271198287153 3.7841496409275575 -0.7969944145901435 0.3132968906224862 -2.237302494283102
Ni 6.218215526090931 6.6811771228452335 12.444896715501246 0.0704256009114142 1.1268697783966013 0.03534135561377139
Ni 4.12345517783537 7.368303225164084 11.349135866953974 -0.617811149956336 -1.1302638916798147 0.6721138771639585
Ni 2.060167462824609 5.516326439548049 11.353934535390707 0.6874687623534741 -1.0834759847919986 2.4930868925114162
Ni 2.4888528564593897 0.8535771194623384 5.453050519468573 -0.5242199095617359 -1.0023291408083383 -0.19236351076950742
Ni 1.1759718209397694 3.66607277827362 5.841311416049267 -0.3766388452142417 0.13475280223457436 0.24812739590368882
Ni 0.30784314926720563 8.135028357879518 8.026424953430164 -0.27846564187591394 -0.33411614136068263 1.2109844467593336
Ni 8.272645450567273 5.299939278984806 4.580300148886252 0.5100608444525344 -1.1407082269415902 -1.80483060125964
Ni 3.7061703474120824 5.739578154920825 -0.06803919461081391 -0.4337813558635045 0.6154300513186691 -0.11224202272656798
Ni 0.24455605216497328 3.3752373319673508 10.755847390604757 0.27295911023538794 -0.3749527157610704 0.829554607914352
Ni 1.5447856293429507 0.377423841599835 13.635933300279472 1.0055229651552875 -0.6870792402245394 -1.1215342251163007
Ni 7.889851049533004 7.083931823685247 2.328429980255834 0.2594669892862241 0.25651536285706794 1.6275496958548679
Ni 6.117771348253724 4.714784880946534 1.033217023458339 -1.6604058231529406 -0.6224494200592958 0.04328914970593834
Ni 5.03851803089904 7.874603727656195 5.368080929637554 -0.9383122716367454 1.5218390464889147 1.1077880791748018
Ni 6.375941945554513 6.281701015347089 6.165200112901799 -1.215813749827177 -1.2268142147027388 1.3732966466694156
Ni 1.4467631397696223 3.9640708333295933 3.359436747464102 1.3968024431008395 1.3025530002969503 0.7237166889419149
Ni 7.149717916792089 9.312695360604003 5.490158235019708 -0.8553707976465076 -0.11878110939666642 0.6705141367770064
Ni 8.669681241430277 6.224940368116011 6.6724012971443605 0.7389795286382563 -0.1679650273204849 1.4139889821824552
P 1.493231611879213 3.745178156831799 12.983384249276002 0.3578157989704676 0.32324294609160464 -0.9379955117272749
P 6.167360072549467 8.777940021011311 11.595934775018723 -0.1508463653623273 -0.514148641368663 -1.0499387722665015
P 3.125551957775769 1.324411997329938 9.726925138140551 -0.5514165245811858 0.5943241225779893 -0.5976580720472288
P 7.945726849129203 3.5416725149952684 5.8185177409747855 0.683603622971113 -0.1400212497223653 0.37034889844047186
P 7.535474228856795 7.303057354823798 4.736893963377188 1.268513137103422 1.823585256159324 -0.38244079660799946
P 2.1486429121268746 7.525154111178417 12.808700423453885 0.8351788960796648 -2.9868664833054237 3.7654528277020245
P 4.537042276563427 6.499885813736981 1.8217597045942 -0.12991784273977627 -0.3537902227508423 0.7159499005123025
P 3.8861297279752027 1.1894401333611904 0.30466421771158264 -0.8677558015744217 -1.143269045690231 -0.17189624405409107
