# total energy = -340857.9048724843 ev
CRYSTAL
PRIMVEC
9.39511375022216 0.00000000000000 0.00000000000000
0.00000000000000 9.39511375022216 0.00000000000000
0.00000000000000 0.00000000000000 13.75069864610185
PRIMCOORD
 96 1
Ni 8.234920556131229 0.7895794529881572 6.599840054037804 -1.2026368461255867 -0.09016036033618022 -1.142709316532019
Ni 6.077295100891351 2.3089055769894347 11.832544492347148 -0.6905070349591657 0.8235263994424011 0.46913068189707596
Ni 2.547813924770422 7.012090129697543 9.469707204334787 -1.6576668269552224 0.4559874596468985 0.1432076178701469
Ni 6.524098525934428 7.731727658305837 8.15435651613529 0.6189630041725921 -0.6677939096323661 -1.1599071684675444
Ni 0.2259806712484207 6.3233719204705565 4.90396658934316 -1.0520321644604205 1.1632328904066678 -0.18526649471340997
Ni 5.580659992469832 4.634712963631549 7.618574787213593 -1.3696150840527703 -0.25285154085223555 -0.8881441354227866
Ni 1.3457842801994564 1.2927488630291517 10.747765867490159 -1.1252764657675522 -1.4614016671384638 -1.2299368194921205
Ni 7.506207347631613 5.434641134425391 6.513885097766874 0.919884403948861 0.3489922871415667 -0.844120935764301
Ni 7.544999772343073 5.226266906361585 1.0502553398376793 1.3911879251275394 -0.09242138845621503 -0.11426111003912579
Ni 8.770132001647745 3.150172248323461 2.3675818204607224 0.5108846259054104 0.4590864102871964 0.1859061851799379
Ni 0.2366516414560437 2.103030449185558 7.823982977863641 1.0176112637783894 0.746602849511469 0.5356865154404387
Ni 1.9284504453133529 3.474040609828286 10.918357645571612 -4.016201720388961 3.2574097850104677 -1.1135830885900242
Ni 9.235659888412775 1.8759129691722825 4.249557456541773 0.3903371686369407 -0.7899326226473556 1.3454994219514893
Ni 8.400471855680909 2.275740825419696 14.008248964993726 -0.8770783645269281 -1.4383931220584325 -1.0206827036148616
Ni 5.486126357825438 4.448266931081559 5.192126002472272 0.9449714288244759 -0.18646977099289178 -0.5207597189272773
Ni 6.565521582498444 4.121006933509687 2.8208049267354154 -1.3928789396767174 -0.6299981789408311 0.18290287957723983
Ni 5.346026421449251 0.3561358797105666 2.006061601054797 -0.8047146660525367 0.07604706086324968 0.43541246370902437
Ni 1.808963388524702 8.41117289025256 7.175306743478077 -0.3003647559418504 -0.6816498416788519 0.11891480676105327
Ni 2.0572574549510634 2.9289548997509205 3.736463987837007 -0.2932823951737723 0.8428829495921419 -0.37710909998244085
Ni 3.9038106936260557 6.3856803149211245 12.992333705457051 2.5825939355343133 -0.44680887847142403 0.7629200986142539
Ni 0.37400444656906123 4.100873204723865 5.622715340189838 -4.00795799232293 -1.9879206571470216 0.7630980189530149
Ni 0.2764963189085258 6.0504532608815085 12.429448952363009 -0.5438741934575536 1.6776054748606786 -2.1486855671746414
Ni 3.2061953116691697 0.010573261024528026 9.590301005524264 0.01006715442801492 0.4674365820241047 0.5775394469204828
Ni 3.9073244661719713 4.568674709018604 2.7406514532107495 -0.995242409164886 -1.1929448156488036 0.6813639350073168
P 2.2866955280628445 0.8381888320665343 0.714311438618241 -0.3271957600917655 -0.7147566515351497 0.1284307166712885
P 9.078291732947301 6.6302633114126275 0.709520870112459 0.34716011902883437 0.8796188715605948 -0.1571802780001551
P 4.15976177776611 5.905862460128454 4.411471907555292 -0.48734617646383804 -0.4526473395300721 0.1515639602546422
P 6.071911700707367 5.788489303935609 9.251772508509688 -0.031144801033920554 1.39408015907367 -0.020418415755351933
P 4.241734145314544 0.5914759632858354 11.603761258664377 0.4913272725987731 -0.539073943855433 0.060274628520341364
P 2.3513245156119194 5.875553823141493 11.375210084291458 -0.3941354593371083 0.5449250033195713 0.4410411227497114
P 7.791330259993775 3.2386648248207326 5.6155102274479605 -1.3390490383404552 0.2241076359503237 1.0099938564424475
P 4.368511810380281 8.294372835999022 8.00133923785167 -0.9815697967737997 0.21652596694832388 -2.469195430605799
Ni 0.6424810963727913 0.28874191018217943 13.231870586348526 -0.3279367520228481 0.09928546256589997 0.27365870740557385
Ni 3.9230612817185184 5.111881396344144 9.950569795777472 2.1824984019590286 0.662619050299646 1.9219834310242643
Ni 2.861892577738231 7.516908382203265 4.983459586370557 -0.7069376697113631 -0.2583999814742905 0.5692892910965486
Ni 2.778689450287351 8.057052262443326 12.370500250592707 -3.304026970648374 1.3914447783333521 -3.239117928679815
Ni 4.977625220726137 1.0497536407629418 8.193078477493556 -1.6915549950622355 -0.09134898132764267 0.5367193275803274
Ni 3.966607633992099 2.2366665472954628 0.6954084697348658 0.4245935187166494 1.621751344005536 0.5788615081660159
Ni 3.486094540781253 4.1933680996825275 12.293771296033245 1.7665016237724545 -0.1078598344984723 1.2642811012999453
Ni 1.9731805819205839 5.428393383775568 0.07542585228106975 3.1840392425381165 -4.708110263681343 -1.8733926665997542
Ni 0.6822703426540945 5.855523440607022 7.116536548869198 -0.175571121802517 0.8970419521330486 1.6899022899501608
Ni 5.7255984124319745 2.1521762892595815 6.16212828057944 2.334148237059258 -1.2838968186483437 1.3786715378280838
Ni 3.728986416796113 2.8083967999937287 5.815363087332233 -2.2610672008028674 0.7602528361947358 -0.8043377423290922
Ni 0.9469523060105108 8.983805073871702 2.079476898991412 0.21424128467920525 1.3563096251931157 -0.2702869627198635
Ni 1.7619032637052061 6.2572021342649835 3.131446847090133 0.2299692369374233 -0.10799841695886563 -0.49572437322520435
Ni 0.29663098720572323 8.519047586434922 11.212374912129544 -0.5483875079468749 -0.34315614007576384 0.1292789236041967
Ni 9.295581923968523 6.691942233241335 9.733335975438804 -0.33547342671952546 -0.7122577963726959 -0.28930027059757274
Ni 3.0901374714026026 1.136883925765139 2.6903246473372033 -1.1882618083508374 -0.5397290609409285 -0.9446523549221602
Ni 4.0048175616504915 0.2850242636676906 4.561739236041613 -0.670873062778322 0.7133057780212361 1.2206533373076656
Ni 3.712798635789127 2.4321130988267017 10.577999919908134 2.26483926625079 -1.5967427377763401 -0.7243144704269139
Ni 5.050099128264087 6.967453944227904 6.144705981624504 1.359133467795156 0.7602924311834197 -0.2521403737178238
Ni 7.794778266743377 0.6846116050028703 12.212875608521609 0.9292355061464578 -0.8233759899074659 -0.09896947398737795
Ni 2.58661574459564 1.2988744772001064 7.458639886669124 0.02267147345558676 0.27101715601766874 0.055572852169297846
Ni 8.285325341448976 9.03953688869088 8.86075726896834 1.2677240655432231 0.5395323715490902 0.23845850535535704
Ni 8.028434745933009 2.043155389198605 10.314756348468238 0.4153529739549879 0.09306287869495584 -1.165378990215393
Ni 7.7011371679061 4.545139949051977 12.458187665840821 -0.21236875024684068 -1.3349555849973718 0.6978943285621723
P 3.982870575909158 7.4683074587272715 1.336513181941944 1.073175374196939 -1.0380335361884834 0.429523351918099
P 7.588874953598222 7.677038701113926 11.32473201708639 0.5890996409542565 0.2474763925832512 -0.5546805400444383
P 5.92161806590252 -0.15049562975066838 5.184508444236368 1.2032875923357083 -0.3293187199720393 0.9562092065218243
P 1.0743500485843511 8.865849420625791 9.167192057381719 0.0999547207187827 0.14951479103509735 0.4337895833936207
P 0.06617072571694806 4.4509163531616345 8.94911925338436 -0.18858913132873972 0.5692748929188454 -0.24657650647680113
P 6.517240092890261 3.4227714740446986 14.35559195773712 -0.7374219543431493 -1.208465794102538 -0.9977690322414817
P 9.343788252666634 2.722863684330584 11.7893673680443 0.3320646581482926 0.1468444432917858 1.8649854163726656
P 8.607192543723107 5.026357675794758 3.454505349788921 0.6631330138215868 0.342836551952816 -0.21269733723085302
Ni 5.9396003136375 5.912843029651491 11.513542799769553 -0.19933608543259862 0.5369039327873076 0.5730253611002132
Ni 7.474996779723775 4.679367939328707 10.204035872328236 2.6303676033741663 -0.3150236435056058 0.08914091793273034
Ni 2.1434106481223107 4.9164724252679415 5.088418978753461 4.4237387978439555 1.7494580380266063 -0.3876010006527002
Ni 6.117684694941862 8.24238967156974 12.768568402033036 -0.2408750852166497 -1.421992826323538 -0.7900408660904459
Ni 0.22990031270873088 4.234255634762274 0.09251650372030819 -1.4494663491534585 -1.8133741199542772 0.234665356861512
Ni 6.456895277215351 7.041515625991147 1.6569175650037768 -1.610865550330968 1.8246409511173478 -1.912427926125345
Ni 1.8055905426851735 7.125620684362904 0.932238618352333 -0.10010307337118889 5.186166530202824 1.6469178159688347
Ni 4.948988913988299 7.648543321082475 3.409568520678989 -0.8673307982218612 0.4716799306814909 0.11544098927983991
Ni 5.829132566057617 0.9110498182913609 -0.1719869524746846 1.9674335929372633 2.5947827642910215 0.2816507244721149
Ni 5.1109888605370255 5.118448580861778 0.888461146280278 0.06495172228103653 0.09346602767064549 -0.8741933296696494
Ni 9.146838482933934 8.773185413619464 4.796725123828163 0.9290928099210064 0.9495017125946615 -2.1541591886947034
Ni 6.3765858448022845 9.644835882850526 10.303233241442666 -1.2280396024694076 -0.7462961169043277 -0.007965020483347572
Ni 2.1937778529850216 4.662954675591502 8.680279952189528 -1.9467284991794283 -1.0390699478727976 -0.8191084728803634
Ni 5.930261570560922 3.0169213498776806 9.653691717079884 -1.0808606586563385 -0.0928193952255821 -0.5475452145512377
Ni 3.151581515387331 6.17414932863425 7.236937750226613 0.10450994418963293 0.4128366352910374 -0.524753927688335
Ni 6.757567102848878 2.0841462705297014 4.095892854920149 1.441525497039827 -1.0520499050722332 -0.5229400144080477
Ni 6.983538378983539 6.379188291313564 3.658015727459624 -0.8803855745232902 -0.7152302487374586 3.002217254729881
Ni 2.356501223293201 2.0591834532716855 12.667555896940343 0.11494348081813108 -0.32650567600327635 0.7969100824064533
Ni 7.64491680717145 9.044798152395993 0.7136472040754702 0.7773547859823451 -0.6714425621285468 0.03828706850565664
Ni 4.850584492475143 7.454468456160069 9.78364962815309 0.05555845399159464 0.21451947804125637 2.792518852226352
Ni 6.99447429139917 8.94938137705824 3.3274768351858146 0.910792726060238 -0.3301065059806573 0.926022655636115
Ni 7.633041383379905 3.5112922358832477 8.182779553790795 1.142655066255316 -0.3017842619971964 -2.045964596564631
Ni 8.776661605710343 7.426743475456869 2.792601734741875 0.7633988380228853 -0.6498118712326486 -1.3126813469802037
Ni 4.043797888637134 9.12999304396381 -0.006784211645469778 -0.7502764417083143 0.45765584848825697 1.191090278938568
P 1.8681056296384428 3.679756020698257 1.35336989504858 1.0631151617474595 -0.6473631525818399 1.4180670089065708
P 6.985849576968285 1.409370410121267 8.25619485172741 1.2215758491219348 -0.15009663168049633 0.7616278621653916
P 1.8313143641576792 9.107905131516087 3.9811437540002297 0.3956452111134154 0.13308775582732565 0.5504361629457875
P 1.4857526849830165 2.3165250142480915 5.849354608912775 0.865375217157387 -0.646879270966886 0.39370788488138647
P 4.076248611561178 3.5114613479309114 8.639165055356811 -1.0234684938901148 -2.6755069189149663 -1.8200057663381817
P 8.464086170943995 0.7297100300694596 2.3140775871138373 0.5645985704890986 2.144792402767822 0.38108196858725985
P 8.724640860826025 7.989661111449068 6.591053743650263 -0.177810552655997 -2.1042278510818986 2.645026490937922
P 4.855432371174856 2.2141558547285807 3.3365384224064982 -1.4234969216728903 0.8390332368287485 -0.7897680720450334
