# total energy = -340887.5380084243 ev
CRYSTAL
PRIMVEC
9.12123935405027 0.00000000000000 0.00000000000000
0.00000000000000 9.12123935405027 0.00000000000000
0.00000000000000 0.00000000000000 13.34985578365970
PRIMCOORD
 96 1
Ni 6.658714370412312 2.259759636513561 11.201129777962057 0.8239460034783229 -0.03432705541664411 1.1571008093670008
Ni 4.4059689668076425 0.6580955806630397 5.652128166038571 0.38127557265530465 -0.9397598027165492 1.9699761568534588
Ni 2.4877176454329297 1.7093931872423616 4.887328681264521 0.4937690492710464 1.676338692333113 0.17671089183391503
Ni 3.6358718663333547 4.444478838512891 4.554610504297711 0.5444280090784946 1.2713526634347458 0.8750176253431575
Ni 4.245927704623774 3.177310689140158 2.5571248026460798 -1.4423593057950321 -1.419211406923659 -1.2347213853649572
Ni 5.680005409262813 4.989618817749247 2.6808908967172593 -1.5386756584302792 -0.11340878934115951 0.04360822360825393
Ni 5.822214648901973 3.256446560034222 0.10848710636548027 -0.2237695358846146 -0.687082582658649 0.31618861034798446
Ni 5.986798288184187 7.919743925834871 12.185694574647979 -0.5904983210739959 1.6877484768319513 1.2182755811041084
Ni 1.878154354056789 6.928812504219945 0.31620326135583743 1.0992188494485522 -0.9124027508598351 -0.6901149417270696
Ni 0.9025694173172959 0.09089314816267254 13.307175555892396 -1.252343726432411 -0.05118603595551184 0.034303658377876405
Ni 7.9373570386399015 0.03515781631640956 6.791084529376803 -0.38227084668903843 -0.7462241260158116 -0.2695413428030906
Ni 9.003283288573291 2.6841800155559405 0.9684265882519801 -1.7358332481543202 -0.9044498145613457 1.2795747942342222
Ni 6.701201102388402 0.8427705734282361 4.810393765378149 1.4062612745208942 0.5729723963750906 -0.34981272616033304
Ni 0.7959868256870255 7.61030588755904 2.2850546569335033 0.10545199638792806 0.43579478674910754 0.5576259958260075
Ni 8.123804288172584 4.203878792127043 4.077205759137706 -0.7868179882777739 -0.5731747421938838 -1.187437255567013
Ni 7.928418224269664 4.437966273757432 12.454654377809279 0.5257610287966107 -1.4009920557021547 0.37294931217779637
Ni 8.641051518078138 7.180376280068064 9.374682816541432 -0.3163662735764293 0.8886462718701856 -0.31242862908492
Ni 7.229393819277918 0.9657385590735015 13.297524372744284 0.9807796967723366 -0.7490448832940584 0.7086394828938183
Ni 2.086054758078043 6.715457599185015 9.270059467081293 1.014695118572859 0.8132790106827801 -0.2827195320562615
Ni 0.2140317009801047 5.074929767550098 1.1177275913328337 -0.3290631523178075 0.097156074927723 0.6072454586253477
Ni 6.787405933626276 2.4374231327416123 7.09195042709636 -1.4446894965901056 -0.6604217855380109 -1.319558276605695
Ni 3.546246570412991 4.073736951887704 0.21221566226468194 0.33284550217837516 0.7912199740002115 -0.22335455983438307
Ni 6.246653270422659 6.151235987639948 4.6867736111334235 -0.37156862978018584 -1.3864007881515412 0.4181737312332347
Ni 5.737222942471488 3.120120519648943 9.287668019266743 -0.9906640457655842 0.6277199244296157 -0.9092996864544792
P 0.6650578225087564 5.721452319975425 12.311477374695954 -1.6281145672194026 -0.7703775833335635 0.4806327689994045
P 4.233805577789033 6.100339473164513 12.969077672072968 -0.7173511517352033 -0.10842264898047778 -1.398086966240218
P 2.6222650441833144 8.861219988760585 1.1423366945684474 -0.1310720109488775 0.2619925839215552 1.1824035497978473
P 6.4749487651907 7.947116764533937 5.727301770644439 -0.7639302850463231 1.049452319548386 -0.34028010407954945
P 5.204825334332297 1.1898109201135632 12.63208710668675 -1.104641048905388 0.38204253272831623 -1.8545099707626385
P 4.205484130218024 6.510822598780645 8.492430047314205 -0.23983995908391598 -1.0488586518284453 -0.1980029684434719
P 4.854670084476116 1.259424217331578 3.6660841467808427 0.16707234030288645 1.0719831536610507 -1.100972598914865
P 0.26059015411422876 5.8947011364532775 3.477730558265119 1.5515784825348762 -0.1852919486347067 -0.0865613301310122
Ni 0.7732621704604844 0.17875074793512555 4.460306924815619 -0.3890233349215235 0.4653784139434953 0.10936598673035358
Ni 2.1029472929899615 6.8593177831109235 4.472936192547284 -0.12161086553597766 -0.0590240439426919 -0.04398694710391134
Ni 6.092303661470452 5.9221469450655695 9.539125988740684 0.2797666200755246 0.2336780532475782 -1.4240093425329348
Ni 8.815814460255439 2.4793443478901964 9.85802731263807 0.9064311066574324 1.1761228589954584 1.2791328216007969
Ni 2.5772790926792197 5.875354988209121 7.022837885907862 -0.575886227587776 -0.6325479419458784 -0.578485612883836
Ni 0.9245288005788749 0.22483033601370112 9.159522818278063 -0.5262647079059065 -0.9277527509533442 -0.09335727000692308
Ni 1.7074229995852481 1.1765212746671994 11.24614491743144 0.4446900323562083 1.0088124345398366 0.09611606369898285
Ni 3.953783535782606 7.263580223624501 1.399732590731189 1.8493829339487182 -0.1057993524250178 1.3781071806841816
Ni 5.731896138805958 8.122946891692175 7.966152790646881 -0.24967468578615068 0.47773847817074505 -0.8816438724104235
Ni 5.6977918256117555 3.2529987316342734 4.346833237005027 0.5027550548197407 -0.1400204783914169 2.2927002543271158
Ni 0.7089601708014385 7.800511087622884 6.950988972973372 0.24564962378715757 0.18075343733440485 -0.16121588152210944
Ni 5.0537046440403595 5.149815140998721 6.995991342707942 0.9356020717944339 -0.18164252480757748 -0.05029386315854564
Ni 1.234386415855759 7.536569790243731 11.317900793726567 0.2360468105900709 0.5577496658880652 0.02042278663072612
Ni 5.056167378611751 0.3422015293144993 10.444860476044179 -0.16347896652467328 0.30434893740057906 -0.5911912333759625
Ni 8.390290411275508 7.69475944087948 4.4781425958559895 -0.7992901526028557 -0.5223656299618166 0.9254564987199997
Ni 7.4047861269567985 6.43673989437751 6.998461374270657 0.6337373342682892 -0.31780634845706557 0.2542407078902783
Ni 2.325031223894603 5.352580287376665 2.3374798910910317 0.4189144660540011 -0.16220318513604326 0.45339501632937396
Ni 2.5669264862402197 5.410773793174744 11.455885075389917 0.733410262080595 -1.357623973129165 0.26831132705073146
Ni 1.5004255982401713 3.636729262813765 4.062547927818346 -1.8961667270714764 0.16662393991155822 -1.739729497884933
Ni 1.319651759460843 1.1555606670929073 2.2300663545738955 1.8002761491197383 1.519364616806493 0.5212500283001346
Ni 1.3836828583170357 3.192707340830935 8.165919785715134 -0.05156373100990474 1.217391121616626 0.4057082517763723
Ni 4.123958494665795 3.0010701062200216 6.8292523546138035 -0.6601289368879405 -0.8637464233047125 0.12221867432330562
Ni 4.263066512992832 7.106512485404609 5.7128975097735415 0.08317493015728257 1.1968642053078677 -0.09536093070051319
Ni 8.534998870442674 7.18690708730183 0.1528546378549807 -0.2859802050854043 1.2197117993300026 0.8994130234683866
P 0.4492611617524875 5.919182542340746 7.896319671565272 -0.1811154486595139 -0.81758586558825 -0.45098563555693294
P 8.807240495451333 1.5706773821989173 7.826459188766203 1.471617431329201 1.6828798358857402 0.6774586864156398
P 1.9306562066232056 3.36518997321991 10.526200950441597 0.8881114824126383 -0.521942683491785 -1.1636846332321056
P 4.097698447143433 6.421179060381974 3.5542659638765755 0.06175609816187429 0.044857265524006616 -0.26037998801879675
P 7.382995486619555 4.330974138489178 10.283113542138642 -0.019157032544425072 -0.5716266809804736 0.06517926491081032
P 6.713605987636894 8.04527041906264 9.829511582673097 0.6561331854649861 -0.30226402984709233 2.4423415436377485
P 2.378016502136145 8.590145882363549 5.8263575157254035 0.8960556769603795 0.5213212478577022 -0.7977382347347035
P 7.1917687077705414 4.242507239941284 1.454747344684341 1.9138001238825235 -0.3022336908297891 -0.7250369504152352
Ni 3.004299024880291 1.6500595265501206 0.23925375148682046 0.5758075518310406 0.31456470159131633 0.0928168241224208
Ni 1.7380977268578088 1.235380630923469 7.076758091162618 0.22976200602262362 -1.2541424702040467 -0.7712597288282007
Ni 7.221002279256879 0.9776873823643296 9.10512192371993 -1.4870725895420067 -1.468735996016348 0.2725983844618596
Ni 3.089509641050456 1.5331343618439188 9.140152042688193 1.0455684111129477 0.5545810383520964 -0.3347517180621525
Ni 6.989669411850787 2.362227637161776 2.5865079624545326 -0.6601410210727986 -0.1385644626711807 -0.92377756835568
Ni 4.275060942479426 6.9528104844322876 10.825972299462755 -0.2676803783349519 0.07070250872188469 -0.7082306774911739
Ni 7.565383784729018 6.505377219006122 11.530150204576117 0.4515631053269578 -1.1151715161230666 -2.146063299060446
Ni 8.024948298229077 4.155517982136226 7.904930121325991 1.1901677671242985 1.1753479285026467 1.1950821737067805
Ni 3.428938313662351 8.723179155414485 12.315495280542983 0.6483378577902834 -0.194446104330149 0.8831734216810726
Ni 0.5934606557748983 5.105595373583505 9.926444815403086 -1.1912430024663483 -1.824655349295051 0.9593166418025544
Ni 8.929136735496085 2.618215213999248 5.941820545795331 0.6661867130462462 0.30835831567028826 -1.0549161708764347
Ni 3.947070303765774 2.6728331940492307 11.305858933796376 0.015955751998308006 -0.09247358185038912 0.28631830515111334
Ni 1.2931454384813421 3.284713280170311 12.756587460509772 0.6742239815284259 0.8980431397040534 -2.199628633881412
Ni 3.2362065303530407 8.361695326529901 7.831492288530996 0.03875629483259132 0.9026621265333036 0.07317411019082881
Ni 5.701941989426508 8.286490709710911 3.319254500719957 -0.2517382531833987 -0.6288373258635106 -0.41831385635552476
Ni 3.0404373744056814 9.07215776541989 3.513868907790508 1.111577113903589 -1.4930789436370868 -1.051713090558105
Ni 3.4931518373016095 4.384223932666166 9.07459131202599 0.20222600538588398 0.09514572936591356 0.4441341598527383
Ni 5.335979632117653 4.705966522559805 11.493024024850424 0.17209601876972297 -0.0067134074644335994 0.267948544394674
Ni 8.417307521647595 0.34922579558645855 2.1744915565367307 -2.4837640724485937 -1.1528001251091178 -0.0494669963818761
Ni 5.255648878894506 0.8586369689354081 1.364769056808745 -0.4147461936089244 -0.9024641515898845 1.5073020292150041
Ni 6.2711164338318195 5.931851943524684 0.3451887351372063 0.0008692899788307611 0.42577956860495053 0.06261124707331797
Ni 8.430204953810367 8.78456509491622 11.315564844379407 -1.0100977290101636 0.6548723164746915 -0.545988154476763
Ni 0.4179205840217356 5.441776885056824 5.625709408954941 -0.27489617935710076 -0.2752746457424421 1.2355896469025238
Ni 7.46779564702782 6.416837350545002 2.707777573369453 0.5580484280754067 0.5268789444511378 -2.1454603753691246
P 8.765145976758836 1.987919346027647 3.687229915509947 0.6334833092759541 -0.07858911055881303 0.7261368683476334
P 2.0819866854156692 3.218018779481353 1.608910880357821 -0.4308996634403353 0.42869854202395846 0.27396852533650884
P 5.1981121023154655 1.2493270055888706 8.029083868061186 -1.3218463013089234 0.182689220904537 0.01867083693662591
P 8.895917182499753 1.6163291841612029 12.0606195827583 -0.9917462230861693 1.3632801429736778 0.6220753245493286
P 6.670188889267168 8.005173451744716 1.200677052316894 0.17115756611585362 0.6517337708457098 0.24988191670095028
P 2.0535649042139745 3.8374786153388287 6.1196135636193585 0.7927322968796798 -0.6837620029258482 0.34136459539297986
P 7.049878711501747 4.414369628067835 5.933930673927723 -0.5201136007028462 -0.20971254357091626 0.631423598533448
P 2.873117363377476 8.709396963053843 10.206271662891634 -0.3477188197457818 -0.1579888899443795 -0.5887594840060182
