# total energy = -381169.63715478877 ev
CRYSTAL
PRIMVEC
9.22151794146936 0.00000000000000 0.00000000000000

0.00000000000000 9.22151794146936 0.00000000000000

0.00000000000000 0.00000000000000 13.49662363265576

PRIMCOORD
 96 1
Ni 6.994382856560058 3.538582210499414 7.176384262898725 0.4395323994146688 0.6786557920475345 -0.3313943715541454
Ni 1.938704217769128 2.6558800927309125 3.5210668597703285 -0.9552131611571418 0.007261309548103624 0.577030111384232
Ni 1.048136145398168 4.792561074111038 3.5846224819457144 -2.239732700991149 0.0996479881116413 -1.2182580976026116
Ni 3.5854828495476014 6.123714819396725 6.670665166129268 0.5150981497661258 1.132589711599514 -0.3493159890295726
Ni 6.217322445621293 6.266251818564605 5.955438720010345 1.0991856822177715 -1.9907712392219392 1.1157055342496658
Ni 4.3650607348198625 3.888631022585374 6.36637075844075 0.42876744758868096 -0.8513357083451853 -0.633212829223387
Ni 7.6325118817536435 8.34016192892605 5.345054475136123 -0.28310262642729306 -0.840015912456992 0.22929046570284384
Ni 1.8183265256466272 1.760756590613628 1.2872980513837267 -0.1480459197990547 -0.7239853692222693 1.2786656521563915
Ni 7.827703747017699 3.3575177103595863 11.460414599492017 1.2485174107077852 0.6911840064215321 0.8003687303790151
Ni 0.041870301140050165 6.9740309669848815 12.294195643683144 -0.37131640456006376 -1.490526609528878 -0.6013805152041385
Ni 7.109098536811622 2.226452456239368 2.746373612426464 -0.2723219908720213 0.4277423487582762 0.806990606570907
Ni 3.5167640996091247 6.469770714316373 2.1059991476716853 0.5890078525713985 0.6238861525058222 -0.3140268268099753
Ni 9.146011918140168 7.805747313361832 10.033618961176016 -1.057209852006618 0.431214880687909 -0.8119631200848338
Ni 2.7620843121406597 3.1349656020644714 13.220307133896677 -0.5139144138706697 -0.5202025608722266 -0.7322483805620099
Ni 4.9049437103832085 7.898792427006389 5.101291953967484 -0.886961170858279 1.420460963060044 1.2655591966814206
Ni 6.569916396593863 1.7112278190194843 10.34880582557781 -0.14992462487900632 -0.5266344325404994 -0.22302648707100303
Ni 0.24290953078091518 8.144914734555764 0.730492668679733 1.1253595123996618 1.881038098960154 -0.7570595260684189
Ni 3.2025869913960405 0.8143854260019676 3.311977245172903 -0.5929107871702305 -0.1857082102365189 -0.4434065376580944
Ni 6.826505126738539 1.3787275551263474 12.630423245032686 0.3752486497349344 -1.663337909198071 0.47842624826638896
Ni 2.142638081817627 8.744368714494119 10.033376435260374 0.31048204688151043 1.418685616327176 0.9358069887163883
Ni 3.2388459990125313 4.683230760199258 8.451288594486785 -0.6901900179393791 0.7139529246869317 0.5687316188208656
Ni 7.369726291711135 8.523845340094129 2.9126661633544764 0.34307129367144146 0.12109793045530112 -1.0129619379318362
Ni 1.0390990580471606 5.737388556658863 7.686623747647227 0.04681387502974518 -1.2829460246993 0.43258347890066146
Ni 8.791435340860998 6.707584434413445 3.878147079106435 0.038531066195662676 0.8601209107369832 0.09171407797654528
P 3.1939095432355322 7.160204187933339 11.236518916067268 1.0458905703390566 -0.046970969432899745 1.1081732304283625
Ni 0.1598301113202712 2.2324648857830995 13.115856847154442 1.9993286418736473 -0.13478365547250984 -2.4554019763661326
P 4.124960078331924 8.574102611586975 7.084013242198412 1.3801530074696164 0.48577086155691823 -1.1549621657574431
Ni 3.4301187192519147 1.1718889130007388 8.171071569526307 -0.221468912775896 -1.3617896744710805 0.37549393297652106
P 8.794081916442366 -0.20092672712486268 12.08503871200647 0.28895548566364426 0.4761312815846251 0.8094323832431802
P 5.857277508342993 2.4329591237275925 5.668582202302188 -0.5518998919755076 -0.8978536494010666 -0.688766398118975
P 5.4408429902979485 4.953965298503571 7.88464661884675 0.006132595260299117 0.7330086557668021 -0.4502785821875793
Ni 1.424134308306307 6.78162400006777 5.670242075489107 -1.1801497207666642 0.5436399659595605 0.11905210366986592
Ni 8.829151348274896 1.200438731815758 10.48348885811625 0.3997715745769631 -0.9330422814870576 1.351729204911285
Ni 0.8560915841268668 4.639253342263592 11.634129550020873 0.4592180507690543 -0.32779611267992576 -0.08771575545042958
Ni 2.160371060364553 4.291583681745549 5.357296039889656 0.9201091183651573 -0.3556139062231424 2.0010499954401277
Ni 5.072037611199796 5.473339618690755 9.899004167868599 -1.5395521474979614 2.7168723692356305 -0.6025326265307107
Ni 4.410744133530975 5.649378391681298 4.375943047863662 1.8975972888704156 -1.3953284296584745 0.16792208989769145
Ni 0.024815104144449946 0.9056443316670438 8.184258339844613 1.4002276667323046 -0.48470873884099114 0.5637861018901322
Ni 4.476032478883151 2.9408895404427344 3.573837916989589 -0.38925293443382636 0.19884140518436721 1.1686154948748197
Ni 4.276672487616387 7.623908205734776 9.09499663789196 -0.9460620907854932 0.16861911596471607 0.30659916688733646
Ni 3.5462176271592445 1.5837956658525747 5.5983050158715475 0.6260960156729476 0.07976513314478521 0.25472973171155483
Ni 5.494106476562662 6.826984645659204 12.008822868173738 -2.9245552839710283 0.9840239147412472 0.5249544737349152
Ni 8.387440650200146 6.940086560312373 7.081894137429779 0.44526775923654927 0.8304642642128149 -0.6596008322986123
Ni 2.442401957857625 0.5038683381660414 12.864063306216424 0.0700011117794859 0.3422572824105783 -1.5951725650757431
Ni 4.605428815321249 1.7555833191810615 1.5972710696750514 -1.051015807380764 0.9255701414797286 -1.3393416298802097
Ni 1.1605187816703386 6.503041950196409 2.0189729186332546 1.1621622830503082 0.36155983939393216 0.585807857576862
Ni 7.355220844360997 5.940667692950299 8.782833509145672 -1.3568788674330243 0.3705738699670844 -1.3407917320631748
Ni 0.8178536388108593 1.6252002803485168 6.13738664154632 -0.38453830256697646 0.027038492175030855 -1.4242710808347534
Ni 6.29109458726217 8.034570053696422 7.527039850849682 -0.7520517884411821 0.7356741184141072 -0.08753577822913956
Ni 5.115978143064643 9.37016857051597 11.125901278283855 -1.3742528399350977 -1.5159100825989893 -1.0741858177393242
Ni 2.464773359810221 4.36992969616816 1.6848376796510014 1.3682202605877727 -0.5280613947950131 0.8033293556692359
Ni 3.2697288618069433 4.126334084469985 11.13011182326801 -1.502714924064954 1.260431902757184 0.2677734522693905
Ni 8.146380955870876 6.627799863228837 1.6404333054455873 -0.3888276739709497 0.010175397871105055 -1.0010495027649664
Ni 8.765854850747024 0.6449649362683824 4.077788326663206 0.6210024032001241 1.543420372204116 1.0683980074129535
Ni 6.3516615155493295 7.784943569419106 9.907601388825071 1.2608083122599965 0.449116186448362 0.5212484856382379
Ni 0.5854843027668843 4.674820736052199 0.5571760877157389 -1.756889297493671 -0.2692132700397105 -0.3798812634109393
P 7.4223627147719 0.16042397706048028 8.909174756768067 -0.8675822521110349 0.11928967360196875 0.3770119122829443
Ni 7.548356311176813 2.9632609423953307 0.5591476482010914 -1.3932610056064842 2.936454863622091 0.5911153858327046
P 6.199875334123226 0.49302291119306196 1.378194551402992 1.8970087633567974 -1.1389683614323483 0.015114744154251387
Ni 5.609993289562774 4.353838147772744 11.620916959452991 0.9559382122486245 -0.8203225477931226 2.2595762180796375
P 8.780830595500122 5.0950545193917485 9.9842487996864 2.0706363882796985 -0.9312749051739898 0.37866101785059303
P 0.06821064431292523 3.048246449565621 2.1241258850246196 0.1837487725173029 0.055190786239530755 0.046271372262713856
P 2.5880281654567154 6.341416409378952 4.060135575320314 -1.7038456395041301 0.4863213347437496 -1.4452219720548078
Ni 8.564337024337263 0.9709243776532851 1.32729730658141 -0.45519324588037735 -0.9661231232014266 0.7492315453835677
Ni 6.563608878483569 3.8048627557521586 9.527495961931077 1.2195477629483127 0.4101236072352485 -0.7693080044184687
Ni 3.9271769665927327 5.151886733008339 13.295901447436085 0.6009395710119779 0.888837047724753 0.4504431327899016
Ni 8.57765289590344 5.147801600664976 5.5458299693706214 0.07869606845032252 -0.8194149483771889 0.38903619043733
Ni 5.301653402057025 4.818888507159126 2.280848344878269 -0.6253539953006004 -0.5013651164507494 -1.3349650980790686
Ni 8.674506496360209 3.0059657908876933 9.04832561463463 0.08924376205918179 1.6119544125197725 -1.276703386223698
Ni 4.988868743017412 8.828210753468975 13.310194799879005 -1.109622047059747 0.34063285943327787 1.11063531881561
Ni 1.5298405657599783 2.4573223735044922 9.984397266121453 0.9349538966874738 0.6506446515465891 0.1582647693135855
Ni 7.262286388928903 1.0432302979790495 6.646992608028481 0.9860306607586309 -0.18718119523761959 -0.646101512260597
Ni 6.094805361391207 0.7037502673349151 4.268267074228179 0.014114327914195047 1.6766819346051445 2.105432412912961
Ni 7.212434864215081 7.964255981194961 13.231698474717799 0.46575945143199793 0.30397792721440553 -0.26190722329660054
Ni 4.645321100913553 2.2330366198808163 11.921554113219663 -0.30238538591630504 0.20783023894653885 0.9592004279396643
Ni 5.70175661224632 1.5739378634258125 8.251943357648347 0.11774264082982303 -0.2496178644062862 -0.8794381230083563
Ni 1.910431044485262 9.115903662832984 4.9961933945305805 -0.02603113395643904 -0.6859947489111088 0.9796211576878614
Ni 2.206663079244203 2.877897352999131 7.428662855668032 0.2531474748260995 0.7919645654757199 0.5406104351046174
Ni 6.479490193977559 4.080374040227718 4.384270078351376 -2.3847385484122996 0.17211093116805842 2.416860625757825
Ni 4.444227464318228 3.092030215629481 9.517184460833223 -0.4468042504857338 -1.341885736458302 -0.19369225688325997
Ni 2.03522584358851 6.707058807904253 13.314661703055359 1.57680306142962 -0.1989375644425993 -0.721993278492905
Ni 2.693881967193669 8.57586392146865 1.2684492691944824 0.8091948133110775 -0.18187340987146097 0.49653298516942873
Ni 5.848028326084768 7.28220486717194 1.6016310032460273 -0.39750874668471536 -1.871646887553241 -0.9586589536138973
Ni 2.3134205897162565 7.932358751452987 7.817082402924953 -1.8342339941224217 -0.2443481313669147 -0.15958477367658966
Ni 1.0942898415122415 8.78905618929308 2.893028019249675 -0.27654682758664634 -0.1385086697325808 -0.573930646523302
Ni 1.9295749152410695 6.389764826706842 9.705475864398544 0.11389267095611352 -1.2252404424577155 0.9262712813118111
Ni 8.18582138709563 2.7747085698789546 5.096244095175708 0.8477683027089012 -0.35938545745043265 -0.09651535601993055
Ni 7.516689619377466 4.805332876132615 2.744551440527935 2.865489073936491 -0.2653288473836398 -1.8129352326446455
P 3.3351831944778114 1.444080451102459 10.373868988548528 -0.04318939090328046 -1.147361727702366 0.7504913859325977
Ni 7.359139989385669 6.121123572921589 11.160411886143459 0.9562904533817208 -1.2611734089088988 0.6876309989629512
P 0.5409554380724512 8.591208526929954 6.789665163506625 -0.39582441700375703 0.25890828856927667 -1.4970718668465635
Ni 6.73533198118812 5.423414321835292 0.16537962067520617 -0.029733779619006858 -0.4926817297441386 -0.4706527749685571
P 6.499473222844531 6.664934915027313 3.80291609336461 0.06658385856782081 -0.5044177872341442 -0.5082093930660926
P 5.3553134135830565 3.527571718359513 0.207307095225028 -0.09573091244542223 0.12348288574770992 0.6510480576325949
P 0.36655071801925426 3.7859033153504535 6.9308263122329015 -1.2632842846043149 -0.5713207197042804 -0.4795781024826451
Ni 4.836289511068667 8.65732680887559 3.004631437275764 -0.8822632511619772 -0.35398999746647425 -1.7618191306951207
