# total energy = -340853.9799148567 ev
CRYSTAL
PRIMVEC
9.41454832904614 0.00000000000000 0.00000000000000

0.00000000000000 9.41454832904614 0.00000000000000

0.00000000000000 0.00000000000000 13.77914311668410

PRIMCOORD
 96 1
Ni 3.7377639745172733 0.20748440608834273 5.08330534241806 -0.022984890930947514 -0.6977516323367209 -0.7929798941141116
Ni 6.792624857453368 7.471686813319462 10.403431764948426 -0.19375267780755018 0.010986323808174627 -0.619370781133972
Ni 7.885399724750087 5.852930545860771 6.749879042255397 1.4150971276449693 -1.4735951238808622 0.8370020653313327
Ni 2.76816905745627 8.989236686324318 9.477694521242135 0.865207067010639 -1.032080661039158 0.135727764553334
Ni 5.66686141283886 7.826116313970944 0.9731300799556463 0.4061805634271004 2.195722613958786 2.9383628792780816
Ni 3.1798013537078917 1.4241952118509773 6.981795142692312 2.514091519787541 -2.1629135378485653 0.7461143399108247
Ni 7.04864408450244 2.8247787365121675 5.171863291202244 0.43661831109166743 3.939582846182641 1.3534114777097142
Ni 0.22584842404384473 8.340819085244014 3.464435158924683 -0.5925791148624246 0.3834900638081202 0.2595469505945401
Ni 7.820034515755393 8.148941175907868 5.635242652301819 3.0975439897583494 -3.031843048016114 2.3844351582392678
Ni 0.7481054288899142 5.9999198888010215 6.365646847438049 0.8800109647926908 0.4329976836199446 -0.1750517589639372
Ni 2.859603150752607 2.1664570305978685 11.880914261752718 -1.6115546059781922 1.220234247492376 1.7595277635577824
Ni 6.923185813572973 8.794506168846823 3.866731047606084 -1.672145737297688 -0.06279945182472411 -4.608257615758064
Ni 5.372214294027549 3.708014001822007 3.7273411280707767 -0.965658267749866 -2.356074604818704 -0.9498099878636997
Ni 1.1716311240358173 7.7975337452675175 1.2628759849108966 0.4233858715617934 2.1060926722047792 -0.28459772291558083
Ni 0.4114581271076776 1.7483851832944872 12.416013651963855 0.446386960442657 -2.134050590870286 -0.3488547331224379
Ni 2.180814216787831 1.051171978264953 0.640567750690016 -2.7079424137358523 2.587989909738904 -0.6201233430292804
Ni 6.017920505191322 1.2727245439097945 4.505049662702145 -4.148231724375734 -1.7578508900759922 -1.5514668966576763
Ni 0.1824774828373408 0.9817302698471417 1.6240378290669315 0.6197901280595778 -2.764248030306117 -2.917727976636549
Ni 8.234434689213474 5.29445012489372 1.1675009616872687 -1.3944478268257339 -0.07788231429977555 -0.39696572969705185
Ni 6.730658300402659 0.9173244033263869 1.8180481335978487 -0.12236779830666021 -1.2541463268587885 0.07809108787647197
Ni 8.940996540726045 3.9205380156267347 12.660786259588319 -0.12511039404880392 -0.3804289083842932 1.0585604524972414
Ni 7.909510383000903 8.243519728343514 0.5763332289487085 0.20530695830405285 -0.44802629581829284 0.5228739370568027
Ni 4.661011070192582 2.8570235645125748 9.424121034019853 1.4935913644971308 1.124027938072432 -0.5611134401539756
Ni 5.635275603220943 2.8206457497991226 1.0382778128841186 1.127084979731201 1.6140462620517946 -0.9098707284666007
P 8.777051596259156 4.480119938747378 5.260008882769956 0.21180259333072554 4.711133623888699 1.2998561701910776
P 5.004905691272545 6.184962836055914 11.53541634309364 1.3551032635898406 -1.1247774146439469 -1.6862700925142122
P 4.636288466300883 8.701207994982871 8.233865109040035 -0.9497521380425707 0.007555186639438602 -1.1076438402874536
P 7.850961306990821 6.942137299343724 3.5981481058222546 0.5918802890231871 -1.0465233188270493 0.036815369056136596
P 3.8675246940295684 5.962073404549449 5.834929929470472 0.021866718166104276 -1.3017932393127902 -0.3366800454331169
P 6.057376877205836 5.173171913418902 1.447553647690922 -0.5683930045345243 -0.13034670274707874 -0.012361092668514194
P 7.920525404536808 7.704951077075984 8.341672984776753 -0.5212034913329152 0.2659348563987549 -0.3357616473839056
P 6.40347450259298 9.60010906869933 10.867251726909435 -2.634535104488295 -0.148274490870093 1.598955429156943
Ni 0.3954628095098114 3.3965901579021622 1.8840497660590616 1.5774599782873284 0.651762052980484 0.12379527478180614
Ni 6.070943241336809 6.942758659532928 6.816900270299806 -2.6621464384476603 1.7240676229779597 1.6669194559017422
Ni 7.83771503750277 5.2078174512412385 10.601562817279568 1.1490121188215952 0.547769928967534 0.12007565983837386
Ni 2.7453952650670774 5.73928753307452 8.259245789859392 0.6000152594254957 0.47831620505108585 0.5082011655359764
Ni 0.7819996857562108 8.701706966043899 8.483845844795834 -1.6398835348298726 -0.5887538275790635 -0.6696111653467629
Ni 5.9373319715611075 0.48009865746334734 13.328193004632658 -0.11454187450433823 -0.21394560781565733 -1.170873951891693
Ni 3.904100214257768 3.922176147034638 6.729609519719667 -1.2172036881961683 -0.7088842519147727 1.114004749508475
Ni 6.798697241120598 2.945548562377634 10.771169671106879 -0.7019633564252233 0.005290301864661857 2.3954921873843777
Ni 3.313318478000381 4.432049255018888 12.07222447382509 1.0939737989995288 0.03547890963290019 0.028492451012738028
Ni -0.24230128869012546 2.6170561423512964 5.42012210607008 4.408322206178569 -4.06674909431921 1.381667130121298
Ni 1.5060358804079232 1.6777854854331578 3.680904809930862 -0.5495432188178729 0.24164847304756448 -0.34837522238285806
Ni 5.845436565397027 5.755075730609317 3.586711312521556 1.2557303835164566 2.566084882135697 -0.8717296986205052
Ni 0.22795634141298082 1.829001960569666 8.432780393246343 2.6635546316490966 2.179524406932369 0.40882005793247655
Ni 1.0018115014164466 5.668866711631294 1.0357227044697215 1.7794489279617416 -1.5070570030837334 -1.1606407041994593
Ni 2.2244600628053166 9.015616250720564 12.278153596530757 -1.1659400049251856 0.6281009619181184 -0.16818639930267162
Ni 7.9111014416672 4.338101477320767 3.4348508822798713 -2.647573168619176 -1.5109825633903848 -1.9283301991778983
Ni 4.598404323856024 8.302049975256955 12.09953419559548 1.2895573593682306 0.6721185051496489 -0.060819445280217835
Ni 0.1988060754457806 5.690284809062222 3.4789166171524863 2.198402217673478 1.6369635329696 0.08914091793273034
Ni 2.169592075188857 4.494910194160119 5.057331545054462 -0.672056541563462 0.5379552568699575 -0.33901640687577744
Ni 2.9598492612776686 7.630783265400886 6.708072798979892 2.093111943674395 1.7126701797742956 2.514089977125644
Ni 2.492878249993524 9.124919156730703 2.885201307638186 0.12641214357936295 -0.14686398367581158 -0.4407793844478925
Ni 8.539842636756015 1.757762073422489 3.1751835177563 -2.205929379288459 1.2507534991271556 3.3492668163227806
Ni 8.165680242823116 0.7199879388735592 10.032786646268358 2.1011798082841944 -0.3528188599765085 0.34949982290560455
Ni 7.5336627849184925 2.1119185521726545 13.223209493392325 0.17555646651449766 -0.19052671467108478 -1.186421155597673
P 8.12071636004065 0.738629686004539 5.053390615127172 0.551187182179199 0.25022078809760784 0.5458135765721117
P 8.626475310408496 6.00297961700544 12.78890508187338 0.003163228219330036 0.6770748207136598 0.336330375403182
P 8.652864289353063 4.330513351373809 8.770590391746259 -1.1422259491376974 -0.4307536247807742 -0.4774404873143519
P 1.5400318143960898 7.310952229830132 10.278358549045299 -0.005247621552184511 -0.655615108177987 -1.5497072336540925
P 4.665049911422414 8.948782372187749 2.98927443205585 0.7254943496676279 0.18919591167480318 -0.2744832601893982
P 2.8280549993279753 3.627312493611937 3.057936615872659 -0.6618037534872022 0.2112248664503846 0.7297155868378272
P 1.0372478612977698 8.22849410922274 6.315270540825676 -1.7158832873949548 0.07306432408584192 -0.9781569144375091
P 1.0117156062504402 0.8349263935088208 10.256229653216115 -0.012683509004939444 0.7235665365172957 0.7624020213272548
Ni 1.1486219679385923 5.11257046587478 11.532509130572025 -0.13496388980411594 1.0070478864402463 -0.9341841084009848
Ni 3.429362200608561 3.4258599886330425 1.1386190103472251 -1.1955375160766442 0.3438716780855497 -1.9096076830677307
Ni 5.821147030728108 4.85335029239647 5.860752152606096 0.786656008778613 -0.056699252464257194 -0.18358884990067093
Ni 6.353210229105629 0.4941969435744743 8.498451575061479 -0.4998476513649585 0.022674815889696432 2.432598862428688
Ni 2.18439174514992 7.095603851529019 4.610253474373196 -0.5884833475264962 0.06675920780342053 -0.695864185506021
Ni 3.914239682799794 0.05870065023805514 0.5875478389090254 2.598801141421795 -2.7503800140747727 0.5569827058150536
Ni 7.355840796226028 2.523852113970557 8.711601656329572 -0.459163543382035 1.6170295130498342 -2.461090027889845
Ni 4.412523481800538 7.140953730792657 9.66725362732675 -0.11193631856069108 -0.6312878442865321 -0.14212672610114233
Ni 9.332142779830546 3.154805727914875 10.485018240700695 0.4718524517036132 -0.5404859937116111 -0.5491889208022477
Ni 6.305610272793203 5.130665227748294 8.73495726780502 0.09755870968278037 -0.5133251170261031 -0.2884806029097548
Ni 4.900507764937796 7.5769885362930545 4.739060500140545 0.04230287453326908 0.09202723834158989 0.5162903703020141
Ni 9.551718290327917 6.264280405662754 8.788654085610311 0.47362548444363595 0.5282876518732063 0.425620417319267
Ni 1.3112865338337851 4.022215137496632 7.878376471702407 -1.3643713191553275 1.368034884049844 1.757107327041748
Ni 2.6922124816001287 1.891448659584761 9.22418521277552 -2.203416125948302 -0.45515185111948064 -0.41336191166688807
Ni 2.8997279556979314 6.798151197317964 11.710962835456847 0.20844524682271842 -0.7243178128610235 1.1939159213128212
Ni 6.047105604987311 -0.13682539657258913 6.44793658994992 -1.9412165682222633 0.5917489056516454 -1.3461869349368172
Ni 4.425007172874564 1.7639756753145381 2.6219093420109196 -1.3156075194880632 -1.5955422897103362 0.4019477562926755
Ni 6.682041572871533 4.851344993604036 12.577725465568934 -1.2748650474633787 -0.27955707516787986 0.6692944054372926
Ni 9.136339003844425 7.5584324615517975 11.327351059373873 -0.5620845458179932 0.3634778823522514 0.895578994434277
Ni 8.39383240684118 0.6141872448389384 7.294443819348756 -1.5458361807344603 -2.3246266707220675 -2.053805946985921
Ni 3.6981193115363347 6.671487864203372 2.8490861588228977 -0.15016399458332202 0.3997852014237179 -1.2172340272134714
Ni 4.061699753156108 0.8813928382033638 10.797942763622954 3.851640062323069 -1.5880349255896973 -0.29151913262576246
Ni 4.94254372319234 6.287261318115015 13.592890562324293 0.4840991302814502 -3.747802204499797 -1.250430311459782
Ni 3.39386935343731 2.482870585127996 4.68556986094349 1.1788366583821956 -0.11227081908197438 1.9965603350998906
P 5.743533494367419 2.7655423984746315 6.8843489188380005 0.0005412172154506808 0.1296206232143316 1.4591267550613582
P 0.0752749625576805 -0.32894620125542395 13.335138116929272 1.684866784408782 0.5688676301780977 -0.18908458290791952
P 1.4203258324909285 3.2404404594452996 13.642151244960592 1.2865296282855003 0.3835132037365718 -0.18250204459439537
P 7.854049278840202 2.83665048194531 1.3093283077829576 0.25445076701855535 0.31803337686620714 1.4917010894529534
P 3.353528013880596 7.072227528047264 0.6740195237852122 -3.5708164617379405 1.9751492164139663 1.1540805344834382
P 1.7299138394881226 2.6417410880497103 6.525595316142551 -0.9653150254778343 -0.4352137174346569 -2.71539938423453
P 2.630236510001098 3.8919742760199503 9.703314171761773 0.721959597041492 1.9712272556517407 1.3151814876942383
P 5.412885142775507 2.6352827079013075 12.652367770479422 -0.8157868647062984 0.17324967275819195 -1.0358604397965643
