# total energy = -340875.62387638655 ev
CRYSTAL
PRIMVEC
9.22586742301335 0.00000000000000 0.00000000000000

0.00000000000000 9.22586742301335 0.00000000000000

0.00000000000000 0.00000000000000 13.50298953854913

PRIMCOORD
 96 1
Ni 6.845483005577104 6.598995502463842 6.288585653500726 0.39263033554649157 -0.6540287375274736 0.33653066433944623
Ni 6.498119866762213 0.9599053883826555 5.151309271280674 1.0637111434602455 -0.09051388702085703 -0.8378716124204797
Ni 0.4676472320641253 1.3257110364135296 7.150751278559198 -0.7716973305862516 -0.7227800360602584 -1.0833659415766954
Ni 5.88631568659779 6.816089391589049 9.002294325862485 -0.5083235500464536 0.0012829804774816614 0.3909061537665332
Ni 7.883780590462114 3.793925831596274 5.502022322599978 -0.7119292093886836 0.1329496875875646 0.4743798461111572
Ni 0.5177944350873741 2.844215026847265 3.9592386165565867 -1.0633632732025236 1.3956757856955642 0.26262070442385743
Ni 2.1723227713833446 1.6207727321341705 5.580718050144456 0.14329863492205644 -0.27820133247093376 -0.45593449492177607
Ni 2.4866665302662687 5.482591722970272 5.704391727128534 1.225895045322579 -0.2202522667599755 0.7620834616455714
Ni 9.243857983468708 8.006051012993089 12.694714395004027 0.2323382513902321 -0.4371047638097827 0.3944015685143014
Ni 8.73783760053813 0.4707046845674653 3.4460441990255353 -0.18629005088191788 0.2547377021313548 1.1422439468598264
Ni 7.695203857908493 4.67174867645987 3.3723581175562343 1.3390071293589263 0.06670598596798188 -0.9456964799159584
Ni 8.61967268906324 0.48719869055862786 1.036169177243125 0.44867832757999504 -0.8155117566680407 -0.004628757021262996
Ni 6.17315713433872 1.4625214261903223 0.09910519172036449 2.2511836231405677 -0.1376928586995048 1.0808794277094158
Ni 3.3629302035153072 3.226276653486724 4.255615920988683 -0.7300462307043686 -2.3207700159801385 -0.9462965753938025
Ni 8.553301797967801 8.402643381010824 10.306211095382109 0.26765466730333903 -1.8802564835991231 -0.12149182345961011
Ni 8.576763179126504 1.3012440356927761 9.314280875588487 -0.6719205302062299 0.4346293056860966 0.6358440961986468
Ni 8.828417168063153 7.0604918486378745 4.182807219522603 0.037928656724973385 0.5514422356127986 -0.2119848845448607
Ni 4.049869848939842 1.0780333963873796 1.0799782092651833 -0.39755682631383144 0.22835021327676155 1.9398037470351368
Ni 8.849046207886534 5.61685577330554 11.620172989481205 0.44109460169546616 0.40172972674459845 -0.7911063312404827
Ni 4.820857147669832 1.3316248175077992 11.035885881846841 -1.999660571291769 0.20373087206618462 0.6010010203775326
Ni 4.6225378989921095 3.671166438085585 10.299918131131871 -0.7622701237350809 0.7439895802583382 2.045486628486948
Ni 1.233221714307363 0.41933782185519547 10.473107961799343 1.8952637556412328 -0.4131184281975143 1.5268876646564156
Ni 4.861921484098216 3.2250034837659616 8.107140688821687 0.8159120774302528 0.2810406016919418 -1.860757751444563
Ni 0.10402442429363214 3.955323158371863 8.796522421384527 -0.11588861834021978 -1.3164438993464296 0.32295241143437925
P 1.7481450594157406 8.290309217822326 3.7130112829080018 -1.2316082936572723 1.7510379809192167 -0.6707198250299095
P 2.428515887150541 6.991537714630743 7.54914361333433 -0.7034551104794015 0.02281185568819297 -1.1088136922258387
P 6.049493605808939 1.947792833019476 9.31027131355484 0.24370072759090286 -1.4545707602595594 0.03200277815884166
P 6.609974284838539 5.653168787949915 10.965872618245916 0.023770620057036482 0.18254755312035012 0.02388220593423629
P 7.305254114520828 8.857543231892496 12.183140039813308 0.13885859687283184 0.46771426116552356 0.27387982227744445
P 6.070067290427069 1.6110855712153203 2.316464958095576 -0.42269090237729784 0.46203726538540424 0.6500203876990289
P 4.915468419310605 2.7448985627601945 12.57540178560694 -1.3783349804242715 1.861783107385284 0.6017543536037895
P 8.01123595055156 7.96380576551936 2.321812270922781 -0.1135298883000561 0.34515954365903784 -0.727763605317779
Ni 4.575855009230793 6.615463676025888 11.267664584338272 -0.033928277316328664 0.9507253005891175 -0.3471866013913956
Ni 5.73705960150716 3.3364611895379914 3.7876430158003336 0.4343135742178907 -0.9024055304378072 -0.21743485191583845
Ni 4.830258306694888 4.9500285191220454 12.933811978216339 0.10960612776561769 0.2870788374662217 -0.8247810977851086
Ni 7.189220378448083 3.9968211105747096 12.492237047825233 -1.0053003076215203 0.473963584509345 1.0277480951020752
Ni 5.53780854020772 0.31875095580762397 7.685091384495967 1.4031288995394997 -0.4748148767660468 1.6633348238742771
Ni 2.4728461806887085 4.820405080160286 11.241967775474201 -0.6811009111539174 1.535014407528608 0.8333891511690937
Ni 1.4237912342500043 2.4626885005252284 1.359778474898241 -1.4256124253539963 0.4051549503760635 -0.8789768671012216
Ni 0.5503912702859285 4.747151691878694 2.1711723057008867 0.16525045660279927 -0.17957972874127784 0.30361308767581907
Ni 3.4480019281178973 7.978742445069473 2.174535134419859 -1.134195622634053 1.3898805191700256 -0.26875381390478875
Ni 0.19116735615934768 1.256064962340766 12.430190320846618 -0.02251669304527735 1.2425120850539697 -0.1058821419468112
Ni 0.364061959065481 4.105677121699963 13.435987942142264 -1.0226722232410643 0.09903246601482944 -1.238499621460467
Ni 3.509639949164411 1.1903122043706265 9.13181535769453 -0.244902718318804 0.17415367262970008 -0.7318269767538751
Ni 5.713183056309078 8.633640652521468 1.957042687816847 1.5172380573817934 0.550219161838975 -0.7898981698649945
Ni 4.748637056552917 1.751078885294021 6.188068904046471 -1.8237207532959234 1.565611820699491 -0.9407226808504509
Ni 3.847970963655917 8.005608171351085 8.893987253855965 -0.697315830350883 -0.187757893676696 1.573953764906283
Ni 1.601315377488594 7.254087453134214 10.95894583689556 0.3968911677053745 0.2508908175814389 0.9523337827268178
Ni 2.6526398873425716 3.6779659024638636 13.225544058341157 1.712411012575638 -0.15556253989107402 0.5189319216899193
Ni 8.300872836157644 8.576089690795955 6.133179605106756 -0.4741949837938608 0.8820133399347003 0.7884259561948421
Ni 2.854594127831748 1.220176337603311 12.670382091949381 -0.33288946804243313 0.15831670559744349 -1.5223213854419717
Ni 6.961830421146269 3.8479894153910004 9.606958607136338 0.6463372824204869 0.24956052880578958 0.9409579367897086
Ni 5.059281242551594 3.627970926255054 1.3200721861720046 -0.07662684462611964 -0.7554813829480216 0.7420003177424511
Ni 1.3245024477655587 8.786919215860307 8.334680105177679 0.034883442140746374 -1.6586063080503566 -0.14321970205500495
Ni 4.317567621531617 0.7622079631772486 3.6404332281304663 0.4805340386380111 0.5524753048630033 0.22418528326579457
Ni 0.8733344603045292 3.7387459178289935 6.352765401054994 0.8310029103251043 -0.7740020674600284 0.7755907521033869
P 7.597151337674644 4.834991176743812 1.1692938329369835 0.5330326227573595 -0.313226442395867 -0.687398828347487
P 5.283903439590881 8.304267955413012 5.983619988974002 0.21117318727684276 0.20392087658980368 -1.2423369929286863
P 8.752506729929532 3.185166187720632 11.227357691635067 1.8479600854592624 0.3563199311512315 -0.34736426461984043
P 0.39674090448515714 5.213519296114776 4.819702991640358 0.20756490110029416 -1.5670493244769657 -0.8246011205638185
P 6.251807655132244 5.867448787474887 4.164875823368434 -0.33916038865280945 -1.7311427846571863 3.3504083861263916
P 3.4004056774699456 8.642783487255354 11.109760171013994 0.08313507805828264 1.0460582062651727 -0.7435337236678421
P 8.547757051575202 1.646014705728432 5.435318377686283 -0.10919063749475388 0.3405750096121489 -0.7835979386785796
P 7.536251386031471 8.150832552325966 8.292145165463136 0.38306763155872087 -0.04952793152679857 0.08239768567162584
Ni 3.61507316343167 7.722364811951441 4.464304122196591 1.9653173179252086 -0.8498861203828524 1.3748225963956386
Ni 8.086122317388044 2.6993412288389727 1.9070403309140036 -0.5953386798854328 0.2010417552697957 0.07835154062671022
Ni 1.4678908810996278 8.315892548515635 5.84100191557967 -1.9070538062976252 -0.34830785948003234 -0.6935260242911476
Ni 8.0361642446494 6.054466348413949 9.069728959485486 0.8806079749467415 -0.09365217553952258 -0.13681842651435144
Ni 1.9174766322772452 6.195677477008163 3.483204148310245 0.03776436323296722 -0.5732235931539482 -0.006370165192401933
Ni 2.1551257542854994 2.6117139389273145 10.947859111870624 -0.6313449227767127 -0.12168362775544204 -0.8384349411231173
Ni 1.8691515380934944 1.2975075593383625 3.1605635667470144 1.6812847234844785 -2.9780946506500645 0.48613904352961435
Ni 5.048717624216277 8.863761466615644 12.721773864504016 0.8966511444525331 -1.6676787026652697 -0.3581911800320154
Ni 4.5089859212881 6.485305136746706 7.055986857517231 -0.7302377778898843 0.22222044622993986 -0.39617742946780155
Ni 5.450762479951194 4.470689345122246 6.033122303856082 -0.0742989678238914 0.0635378726526454 -0.5225111544007452
Ni 2.885260911540566 8.0367823777747 13.167345440714213 -1.1585205725326628 -1.018472326227104 0.502683835262173
Ni 7.114906015399187 1.8051885984264566 11.441109971536648 0.4677284022329106 -0.43175095569703703 -0.7616818553317786
Ni 3.3052593055117514 9.043693561282634 6.65466530979759 2.067842884694961 0.24251442059228556 1.3306245617221857
Ni 6.880735045454179 6.64463586919294 13.21732012001443 -0.046521797710623106 -0.14208198890613594 -0.21577366216333163
Ni 5.194855366077791 6.2691522861107565 2.48795261620159 1.1743305429817261 1.1326732724522557 -2.6978909430371214
Ni 1.0304279198718864 7.214665321128264 1.506285251461426 -1.0938976943459549 1.2844002406473234 -0.45132810649801625
Ni 1.3586566094051629 5.879276349663425 9.15814598365872 0.11496173565057621 0.4635367327490662 -0.7437692367174158
Ni 4.0723717398742005 5.214340398325993 3.9010944315481386 -0.34505644242227024 0.5492567979257057 1.1649755841293872
Ni 6.3067753739460635 9.104058412608385 10.142568192446854 -0.16269478006048108 -1.0910473693813534 -0.8974515288666416
Ni 6.526037341943585 7.927335911126773 4.126162237989691 -0.4380419309120714 0.9954231577171243 0.09434457362085688
Ni 2.613909695402254 3.7550387999077457 8.433454088253294 -0.843672792483289 -0.051549589942517675 0.6092529759736798
Ni 7.534350857317868 2.4121491981314547 7.493591897105117 -1.2578479440800918 0.19863520271083213 -0.5744952607775202
Ni 3.0469442402099496 5.855307545789926 1.2536625464328912 0.1502825224390573 -0.9506281128896209 -0.9555198937642834
Ni 0.5049437241884533 6.227617430437743 6.7490099538664055 -1.5180998911614563 0.45796412375729517 1.0954946065194295
P 2.818345694260164 3.90117654176926 2.0898711931626153 0.2826182305917068 -0.16584463854337245 1.0880615472801518
P 3.499196267107136 5.565772144726801 9.605149414511397 1.3659636033431122 0.29252417685150905 -1.007343306193478
P 1.807467387709272 0.43755706507666764 0.8788838196308992 -0.7925772593590543 -1.2459452791052348 0.17836411116662185
P 4.802829802493228 7.041920177276306 0.5310667681329533 0.047946960192923875 0.2942864109582544 -1.4816586176152868
P 1.4373717112714783 1.8184646218190526 8.857380856623761 1.0086820796095597 1.6906391681161854 1.3255551176190783
P 1.5871721225470723 6.116390371354258 13.054838753802684 -1.2248177530980002 -0.48183398839635727 -0.8070772527474422
P 3.2919463786489884 3.4051846768565786 6.381918219900209 -0.029232671612872237 0.6699479798608914 0.529834684645352
P 7.133892850800135 4.613653388549394 7.597875568276672 -0.05929015311988499 0.44064748685571853 -1.1825498455677248
