# total energy = -340872.3414447033 ev
CRYSTAL
PRIMVEC
9.19192410589448 0.00000000000000 0.00000000000000
0.00000000000000 9.19192410589448 0.00000000000000
0.00000000000000 0.00000000000000 13.45331006290484
PRIMCOORD
 96 1
Ni 4.2445455530525065 5.326600462356152 5.199099284567276 1.31192184310636 0.051375526258498616 0.9133324617629561
Ni 3.779333087543691 3.8936806220901263 0.31481420503865637 -0.4168195311981853 -0.2942869251788867 1.0906979564617345
Ni 4.12539983417864 0.41544279301671966 3.113513315105471 0.24596509814504738 -0.08445688219349971 0.8884925199011408
Ni 7.305373517373427 0.044804195147885265 10.28634664195382 -0.127430043320916 -0.505561156809968 -0.40708019242323445
Ni 5.30638742148255 8.498834545543858 8.373205762673559 -0.4603033134134331 0.5330765886214174 0.2200805170688016
Ni 7.50606998596562 4.3795565327484915 12.00492666191116 -0.05470998994837029 -0.9130894925142147 -0.43841936885614813
Ni 2.219390049536733 6.761836667469902 6.273359442319847 -0.038804117351391235 -0.35312842079712736 -0.38003424404903585
Ni 6.672417630808509 5.465168716639715 6.2334839568201765 -0.7646591927925476 1.1645243555245814 -0.4312341639616186
Ni 5.48822206202898 1.4318995367021463 9.704988701564382 -1.79355374279424 0.6952643471384929 -0.9269765349089519
Ni 6.061182260653014 1.6442329810769591 7.27137902484826 -1.3607722889501597 -0.28972244573665584 -0.38782700062057723
Ni 1.839542982205791 0.43733336002012296 12.184111270768705 -0.46359715367335647 -0.7410230414308464 0.7206105392127654
Ni 2.4737122027385654 8.166086896783328 8.112224979726918 -0.2484644675281334 -1.6705074303633165 0.27774444743917326
Ni 8.973459541227557 1.812481957953001 3.9282450139032266 0.37073559235592923 0.6140845930343682 0.24323021571238757
Ni 4.442006464397084 3.35336094558622 4.0581507990102175 -2.40345489387488 -1.5924358828708705 0.26306293416759857
Ni 9.24100887306382 8.489357671900981 4.1923207176603015 -0.38777866388114507 0.4787257817846787 0.4382087955072389
Ni 7.612218324305029 5.025482224075871 4.180602852946492 0.4332241978084539 0.4944853586117806 -1.8409620568748744
Ni 2.378088617377908 4.628786360054927 9.497929583180143 -0.912098589355855 -0.1963183816521974 -0.8755655274268276
Ni 9.348738222331042 3.7730458115284367 5.388763605975979 -1.8070420070886621 0.6852815248941682 -0.8199870188305748
Ni 7.464752287590522 2.4707432112869174 9.896954680742411 0.010291868844311308 0.10677740006757093 0.33457945415034634
Ni 5.107354691134159 1.6603004642270531 0.8937206592975856 -0.34436378723061983 -0.4183789052655053 -0.4595746627775246
Ni 8.248814212773516 6.5306505869733265 10.553717650464504 1.2203080381531048 1.8523988379569063 -1.4538073997309737
Ni 6.718974725862986 7.732853134866718 11.949256693404164 0.4939559684708718 0.4114703510711301 -0.8203595716786451
Ni 9.207274511987821 1.3917675965229066 11.067204262430796 -1.047094875059803 0.3588568386404723 -0.23689887417772107
Ni 8.13919132716252 0.8658011093432976 8.151279626413485 -0.9766862434292535 0.5689046540636202 -1.1357341707657667
P 9.236320991824375 3.6831396028951016 10.494361720433945 1.6545660765427117 -0.3329195499494202 1.854963256249973
P 3.3411081108956733 9.360687723529622 1.0050578387343787 -1.0862946851877162 -0.8730551023001479 0.1594053106759319
P 1.2609389422464257 0.786183421241942 8.186662099462488 1.3434865052865184 2.508092621891629 -0.433606263738221
P 2.1122397914814433 2.2882191764405686 -0.1998452964298941 -0.6774082927936785 1.239243184494711 0.6305987886393075
P 1.8713562311660172 5.762757256104414 13.192033313021145 0.9189912027106303 0.844320967590249 1.5646214317617635
P 5.097666403239308 3.70135799626094 6.409923857171647 0.10064583324853633 -0.2962311933894511 -0.22582256175890142
P 8.81806087410199 0.6380849801563094 2.1788711293571397 -0.9723199960407577 -1.3320687503678799 -2.352877695147961
P 2.1024687762706025 6.833074078461451 9.861087793298664 0.5087351836625755 2.08124038904779 -2.9243295411134667
Ni 8.606095106687134 1.8148902420407154 13.388545617809033 1.0971982194740975 -0.10515709085532858 -0.34214183987863656
Ni 9.016523705162449 6.474929143691936 5.628810701207503 -0.24105840487204938 -0.40743423332854345 -0.6151217760496309
Ni 5.872784586371362 4.129278826106179 2.5430119561511444 -0.5738794815703924 -0.5884234408228383 -0.8059994463022312
Ni 2.394349130931979 9.015356330814587 5.117787524872921 -1.4054516341354053 0.4170956676777075 -0.8241164676179162
Ni 0.39506797428073653 4.137808931577167 13.188360220191178 1.189028254203217 -0.8610475363163106 -0.0904102715634572
Ni 3.8657463650574404 6.507165221156113 0.6725795133470178 -0.4239589704564441 -0.9043364289119328 -0.5163433350271366
Ni 1.1399088789527825 5.790617977745109 11.20633782004029 -1.6073847908712189 -2.858173514111684 1.4905898586666457
Ni 4.180588145868094 6.205817184775858 9.825477360534489 0.9155104432508814 0.9536028792472286 1.3766141410784227
Ni 0.41049845709770616 8.689383130041254 6.670608660165524 -0.71906813442631 -0.7610478212922055 -0.5561769220843067
Ni 3.773275609628409 5.463734776495885 7.768533426253286 0.44791522416172536 -0.36906874617646757 -2.2854582280527223
Ni 4.406185536573332 1.1137486632518856 5.408768909367205 0.0825177561892579 0.7675735382258652 0.3888117331313497
Ni 5.63464941133161 8.551899522789562 1.7610117795211064 0.5511979808124765 -0.2313874574411886 0.48760045856648937
Ni 2.1215604024163377 4.815115851436825 4.890183537158721 -0.7488751904854135 0.013360223356989893 1.1391678790376638
Ni 2.700541311259658 3.246219879454929 7.106792110493383 0.20869798626347286 1.9444132207826896 -0.10664138871033893
Ni 6.4693312619766 0.29794242853865766 4.2054238053207476 0.519375436985241 -0.40151966761632135 -0.7110735462566077
Ni 3.5068201167480164 4.821256056668097 11.696616662294133 -1.7964639744624995 0.15452227155201775 -0.3998996155143952
Ni 6.034553256828174 6.424345985925935 2.7692969027715026 -1.0748838722476133 0.27155785901248713 -0.15419497011958605
Ni 8.142105167070174 7.500407760782291 2.3799977799924816 -0.23996491469755446 1.152718106918273 0.20183082682999431
Ni 6.0450136663389324 6.206276780975804 8.371886721579717 1.0731656040049258 1.6194049552605467 -0.32172188146138786
Ni 7.955490726044309 4.567007438858256 9.131259138901639 0.4310372174594641 1.7513233733701195 -1.3644373965065728
Ni 8.614229959426169 6.367852421028637 12.869517194863802 0.7919609659312942 1.034698044057347 1.0431541452445001
Ni 2.1316531349671406 4.304320634817416 2.7341157328580756 0.010476988271923891 0.0413281693248256 -1.2970251285001857
Ni 1.6586367259832504 0.44351860567898926 2.7275775173176515 0.06763441131952223 -0.72836190102341 0.2310421582866279
Ni 3.0983126303884743 7.435218635782025 2.6434006349128367 -1.2520403362593793 0.6036338300146895 0.12911463011219054
P 4.7989012975027485 9.04990877312649 10.907204118151373 1.322413229555987 -0.851231064446521 1.4722560933544644
P 6.468320150336719 5.580334332422054 10.369488513716359 -2.8564524176555195 -0.897594225092093 0.8027215468819078
P 5.894679749336765 3.479722324799231 13.499454453587479 1.1813558252596235 0.7211550988623258 -0.9462166140854866
P 9.124804569869603 3.9799468288198936 2.888493177227363 -0.31914666453504387 0.1847792706643463 0.08574526198762007
P 3.8718222268207194 8.44596259870213 6.610902517830606 1.8134317126650896 0.12415420078312167 -0.2074671991801653
P 6.991524464354656 7.212011145316502 4.518589898386399 0.9578997068503696 -0.6163368794036547 0.3140653933573946
P 7.519857871963985 7.96534446857114 8.365483627322075 -0.0535247113910175 -0.6506315389204667 -0.25638603636805524
P 1.4877037072995265 6.861743689414051 4.09487805054026 0.16513192874706398 -0.03008242120767722 -0.014012769339324254
Ni 5.731063502156173 3.9739169266766092 8.57173569477921 -1.529154092093089 -1.5192059797414417 0.8094478098621478
Ni 2.9339058777439764 7.409518016281074 11.743299686707394 0.8993569734194703 -0.24178705550795782 1.4092054447508828
Ni 2.9220942554053777 0.00631117501765136 10.04753677969255 -0.48374868892056694 1.0107495036615495 0.32689082725683705
Ni 1.0306628622257414 8.121156772276658 0.7334916361105923 0.44235855600955426 0.27167510131664174 -0.2349443215545115
Ni 4.876370832965559 8.45793048374871 13.060083244016797 -1.1895458172695836 0.8600324647882349 -0.6501697687926996
Ni 7.614360042596775 8.840130683623373 0.3064890794728439 1.3886744146770664 2.0455838161864444 0.4904512977517231
Ni 0.2388264077244701 2.8183082415336886 8.315302156634829 1.3558267720194261 0.47726436674780387 0.6215988991335424
Ni 0.05383893724641355 6.492733900477823 7.99341844284861 0.05942899269059442 0.24284403601756238 0.8511570166754762
Ni 5.4243473821605575 5.942165228715133 12.318294058112388 -0.01852711226991003 -0.9460736607497191 0.563311733356875
Ni 6.675303894944167 2.918399101957816 4.765902290346662 -0.06693147171522666 -0.7452147109146908 0.07797693089611087
Ni 5.334955921271161 3.494355867805495 11.09312824568492 0.9239590882388669 0.5988006702921043 -0.012486048282152691
Ni 6.373891515095921 1.4031839661295527 12.233821195754809 0.3093589890206607 0.14922837014293008 -0.2531112222715254
Ni 3.0135447072705293 2.2202724742406286 2.1889611043307426 0.1039738691805048 1.0859866670289942 -1.408869915788335
Ni 7.578860832112986 2.6512266390055084 1.8297848356885487 0.7535890510213151 -1.734541268815774 0.6592604182400582
Ni 4.17067005987327 7.486647450555925 4.732887656919779 1.6343806027337722 1.1061400020484176 -0.35960580099135486
Ni 0.3662696763921526 8.587481460589341 9.36196999692747 -0.1354570273904506 -2.105715234260703 1.8717481890177958
Ni 3.4788582839433335 1.220751850523193 7.69634281274305 0.4790692811670265 -0.9060791226346524 1.407886468829143
Ni 1.0123065899999188 1.8412986396895827 6.201841677646329 0.2673631042048492 -1.4197418255058323 -0.4752864170858266
Ni 6.780349202403706 8.47631433174653 6.214810563216391 0.2461535600067696 -0.3802173065941194 2.103328736306397
Ni 7.372548097957459 3.501488800828649 7.050112868731307 2.2553989467734965 -0.7694211329575652 -0.39268432871287856
Ni 7.587170331408 4.7746070423736295 1.1656067408765343 -0.015429190070876654 1.7759689398329415 -0.9111020297705406
Ni 0.4761177641411223 5.918376529405954 1.7359748169328764 1.4762017082657737 -0.6922031917146659 0.018830759553257893
Ni 1.9289344430951874 2.471579676370818 10.429530161277235 0.7577876624836949 -0.11421662995443554 0.2907827686803702
Ni 3.833510287593264 1.8284023703191126 11.930098885405636 0.14343541761023684 -0.13876423738681265 -0.1479631302772613
P 8.996512886616822 8.487261913229231 11.634651145040284 -0.2993789949898134 -0.3338636590302444 1.433589530022202
P 7.9237602044000734 1.3679605133657309 5.811910150496184 -0.24206653442158957 -0.47074919133710535 0.9719081053143197
P 2.3553110297086097 2.052685315892508 4.365639040621742 0.4935667034522532 -0.33011010552508313 -0.05184552391638167
P 4.022450285390852 5.455866489552818 2.7725922075251117 0.31771096052978187 -0.8714026542983896 0.23124656098795013
P 5.897805003496395 1.8111123612771636 2.867855469465011 -1.0029932567548985 0.5998090569519605 0.9002247207364045
P 6.888106127442923 6.950841008735482 0.6789201025214656 -1.5213325391661412 -1.6947385349965394 -0.17057521124982236
P 3.8593395940302004 3.0437769453029433 9.398872814205895 -0.374763996789032 -0.48839930031870077 -0.04166781205243147
P 0.8355973662752804 4.643456670757187 7.22105048337703 0.7887671415843447 0.3899353052128317 -0.32493601752331136
