# total energy = -340872.6254795771 ev
CRYSTAL
PRIMVEC
9.22525554696184 0.00000000000000 0.00000000000000
0.00000000000000 9.22525554696184 0.00000000000000
0.00000000000000 0.00000000000000 13.50209399609945
PRIMCOORD
 96 1
Ni 8.116776284604796 3.634842834343327 0.5134131323055485 0.5861289883617067 0.5378213023952544 0.036659560204562666
Ni 2.589095571145295 6.220008446737752 7.9385286695891075 -2.0339534310363683 -0.2600298037682296 -0.7794332657779286
Ni 8.223604740790414 8.38673492997265 6.542709721613761 0.28100074959294186 -0.01751435473467951 0.4966517701354802
Ni 4.824531755733433 4.958860697919857 11.935540265963306 1.5995447260015097 -0.42299994897728443 1.145918567497936
Ni 3.6854987111063 5.133780763354703 9.836031760302264 -0.19356730126962146 0.9683815802182998 -1.64402121114733
Ni 5.908619179890655 6.4472633853972106 10.088197655804386 -0.3153442600698182 -1.4127954760949861 0.786478088439852
Ni 5.822344592477191 8.802840069545393 11.049032901794362 -0.21161927367532588 0.23893750187430463 0.7516437543694862
Ni 3.279273819942436 8.83491628216693 10.425115049072627 0.5764912081616266 -0.6783801697886446 0.27646532361643356
Ni 3.8663044894121676 3.1909327753454164 13.569738887944764 0.36424021443957266 0.17162782088405282 -0.6497779326709197
Ni 8.053195825189313 0.9633472830037357 10.36850057992189 -1.2287530835966645 0.44138796456616886 -0.14338708087080468
Ni 3.5697586583165957 6.598409967965879 0.06445132351426669 0.2134745817165098 0.6737151602128074 -1.528209725901949
Ni 1.3960302063213434 -0.08074312434533777 0.5961682848282682 -0.413849392826268 0.7404347730275442 -0.9254678115739094
Ni 3.153773447062543 8.574967038781923 2.3440580304009138 0.45106456842398446 -0.04540619604894115 -0.5114173584804289
Ni 1.9917787420342021 2.4777375146153635 4.290250173450553 -0.001968693690596609 0.13409177161180777 0.010109063409543881
Ni 7.028888055270675 4.613753123010718 4.562884142850691 1.481762747293319 0.06044509265993461 0.33134474926313257
Ni 4.694446430977524 8.319095358232326 4.228720488284644 0.7180942005488148 -0.4919139983401786 0.23159494546630435
Ni 2.5769735857024707 6.861191364722991 4.120663228095232 -0.6059167125115952 2.6112645639961283 0.7320830586287392
Ni 1.5807567181227973 6.799363703811418 9.957875241987686 0.8644771308231499 1.0314630820598172 0.6429159154437637
Ni 4.563955194989132 5.201521812903148 7.52383868417689 2.313848863380273 0.14374986352686211 0.2128238355063883
Ni 6.811559491296512 3.6534317237400473 2.519882170853566 -0.1075045080415826 -0.47259421496564413 -0.7118718737881868
Ni 0.2764965837874366 3.7595775110346694 5.2720544247004515 -0.3323557070261502 0.7209964617972744 -0.8140523985136948
Ni 7.153299848027087 1.5371120353754602 12.55318033246446 0.6619587910078277 0.4695561994702688 0.6961418646474399
Ni 9.484669462310755 6.082506016733723 4.3894364281591285 -0.5745173722647073 -0.5894950766204622 -0.4742091248612478
Ni 7.01743028820828 6.3099823615199915 7.725101466074434 -0.7127236802655209 0.1515099670882552 -0.5881514181083741
P 0.21550565353009785 1.184126092454015 12.62981821820854 -0.11179285100429134 0.4910524216708317 -0.30236713108385993
P 4.4654017927930205 2.038698390407264 6.893116283157875 0.17143241704379505 -0.6553014335923102 0.7822082574199044
P 3.2218835068223384 1.540875939531223 1.5604777619580972 0.1709634478271765 -1.1029340935166103 -0.39035722324159866
P 2.2613868277012754 4.85579614589 4.329635555833391 -0.5321705318673803 -2.392094217446422 -0.220385192793414
P 7.253338516323879 8.85263799756698 4.747376333167938 -2.1051634755222906 0.6454008866491465 -0.9783394627619602
P 2.054814911387944 8.780671781098583 8.649090119935654 -0.6782600992710125 -0.40561312095940466 -0.7722665728261603
P 6.162821089233896 3.7473079215073057 13.27650031086841 -0.823588363028588 -1.194277675527614 -0.8666659109443525
P 9.017253452849896 2.5709494940021935 7.056693897221373 -1.4253463161768032 -0.6596995626600057 0.3870050189399142
Ni 0.07799584332184231 8.371125798032576 4.355167372356648 -0.11787402420136472 -1.7386198097605219 -1.0226344280245936
Ni 7.145089370824566 6.878654772975096 3.3065409069845635 -0.3842580523223963 0.3964558799401688 -0.13920415313770865
Ni 2.724642247029172 5.865297381078248 1.9828634553280033 -1.4927429004539066 0.5365622331771727 0.6006444083690623
Ni 2.911038530036982 4.0985410659248425 6.475455765544296 -1.399838915934318 -0.9841028476082986 -0.5392166400808843
Ni 4.536325555414354 7.24439001869866 8.526436660836321 -0.312186688277443 2.1953896560993993 -0.05755080183127508
Ni 7.952142378811311 7.394715553547075 10.219424144638891 -0.41638192944013447 -0.3468449017812607 0.15914228682253237
Ni 2.193092262835806 5.429874556941372 11.855972439141116 -0.34447691576971645 -0.42265182160924636 0.8512256651298823
Ni 0.4281874564178453 4.43146207860417 2.6124391571152508 -0.05147374239925974 -0.22227623916853978 0.08288722371353467
Ni 5.8453062528784 0.21079523818222418 2.428513397472425 1.0269896196694959 -2.036626864103473 0.3403022155667365
Ni 1.10237188012958 2.369894280348534 1.3659125153965432 0.7251418514242157 1.5555546935738047 -1.4889566939385972
Ni 3.10999038548595 3.61164131730474 2.3042132303049456 0.6302051527453146 -0.40078690321535493 1.5679664369745965
Ni 3.0556905328859023 1.7778081709833171 9.001886022598255 -1.2415741466207326 0.27152957687771306 -1.1471403557201794
Ni 5.1922135303218635 3.759549835268819 5.775763510973042 0.040296385626201574 0.10696997569435127 2.242461412776222
Ni 3.9683727138713807 7.05890703596394 6.082801224902802 0.17550658711316872 -0.19950474979997898 0.5134598428317544
Ni 0.5947568207698573 4.5562705573377835 7.481321327625225 -0.44027647666954495 0.9219171181081735 0.8767886012006512
Ni 0.5441443027067172 3.5829230976064816 12.381311981477474 0.516384215567401 -0.6373101392212122 0.029153995856136882
Ni 8.223530938748144 1.3956519708547106 1.519835899805615 -0.9147519678183021 0.07570227592932124 0.26730653993530096
Ni 0.06797260345606727 0.5679915876151649 8.254504733363275 -0.320418589268932 0.4245680647953527 0.7374911170181879
Ni 1.6112277363249647 8.0309168336791 6.469622636628393 -1.8054358389438065 -1.634775781289662 0.30040589359243103
Ni 5.917337046133782 8.746446083995938 7.018928469666358 -0.9754186895707394 -1.1242086866246703 -1.6445925102697676
Ni 0.5364449046469143 4.71838596843881 10.113297730380364 -0.5983656396372146 0.027120767476192003 0.16174167211859242
Ni 3.935918265783211 8.906744119806069 -0.3121688009185723 0.09194264904758359 0.5433517452951804 0.24070847773179838
Ni 6.783726896105492 1.7093383262674569 7.538178420989924 0.033648284182064635 -1.4883062048387916 -0.2425938676799693
Ni 8.032116116865986 8.278531910749756 1.07886039451346 -0.028806382708731034 -1.0950243517512304 0.6714978408465144
P 5.814604603294139 6.021397925734281 5.486441054764632 -0.4090416870249794 1.0095089463862292 1.4382347421036972
P 0.9772774184821713 7.703291117532634 2.1222856609565763 -0.2396227008667873 -1.0938434440692515 0.9136993581840716
P 2.042757502732106 3.7548357298188315 8.814571826689715 1.1516896656537585 0.21264668649857568 0.8457055066426015
P 4.345335095275246 1.4812992409088803 10.78967130717093 -0.11875231304126 0.2866173244487709 1.47676580829936
P 5.0603016050197756 3.2330645162262215 3.90219995772117 0.2635473300031848 0.42641283131357527 -3.5743116193753925
P 2.002397010865778 -0.011526033951495018 4.7274746899443425 2.0174364072179514 1.618337947448613 0.3095705908108346
P 2.0720384630026722 4.295878501699158 0.35169163960513783 -0.8033442680675713 1.0580688575728034 0.5316231440043425
P 4.881516157621046 7.230681289347034 1.7645210357981576 -0.40958470401264296 1.0119082998563411 1.438198232438807
Ni 0.46271112926615626 6.065909782478289 0.5240369362902945 -0.17093105192734434 -0.03583397897947377 -0.42813418488005617
Ni 6.644407090810568 1.766414980707908 4.4379492781196905 0.36824445050295934 0.058479484293131545 -0.3864380906928506
Ni 1.230695181126295 2.2159247696630433 10.474626994180419 -1.2860670868267852 0.4643849396819744 -0.37442126873763254
Ni 1.579834192594424 1.5090395835470631 6.662189692895491 1.14028322358903 0.5840456234701168 -0.1916834539833473
Ni 8.997612884350831 1.326425655205584 5.220098709468 -0.8060341561949086 -0.22308099445802226 -0.17928225210551704
Ni 7.110503888765854 3.831774358885158 7.214411629128643 0.41686863926856593 2.4769033407730183 -0.6928763065222906
Ni 5.065080287256749 3.1969660923009773 8.720313703353709 -0.22458431847642613 0.47321899303383663 -0.8155521229876729
Ni 3.3661664994599096 9.34850469432287 6.830723114097409 2.621772405505988 0.3883540767686408 0.3505339205970737
Ni 8.063389732277837 8.43441104927898 12.183182096274285 0.5496450345030598 1.7999488476873065 1.3309001839810757
Ni 5.581224095126283 1.803795715117591 0.9297894943836313 0.1972321517157184 0.7279322696851592 -0.7594614506416921
Ni 4.617470900890063 5.727084606417373 3.6202355651270652 0.5510866520455928 -0.8447894225862352 0.007526133173716071
Ni 8.31586651888302 3.0398415443084503 9.101356415169569 1.8089983594840846 -2.9181936034190583 0.7321905307408809
Ni -0.10661166268645125 7.252812676772707 8.396196351791648 2.049907126152147 -0.1278383345029282 -0.7998725074688869
Ni 1.9456893666366761 7.899918208650103 12.16814031753416 1.033631807576362 -0.9825339604592821 1.5091665932275686
Ni 0.7975260868552343 9.059329842199 10.715464276194115 -0.2129516193335042 0.6016522808082864 -1.3362365085923247
Ni 6.859364764176813 6.5056223503221 12.767417513393045 -0.4351026457780894 0.2848229515525095 1.2066156282676768
Ni 5.071648669018767 0.643136827054334 8.954601976641486 0.7098502153724677 -0.3139820896149689 -0.7461282238678957
Ni 6.06247798751274 2.8399763885863925 10.725145259088865 0.5103696339422048 -0.11417446386259046 0.7975497728729812
Ni 5.131760432447566 5.2073337237318995 1.156477079843141 1.0206569925832487 -1.1078649551593243 -0.023236344820121272
Ni 1.1050195283960111 0.65283626045965 2.8377752426756935 -0.39536521797915136 0.2794686292191316 0.9000845956141144
Ni 7.411662347503292 4.801154958844455 11.364333676881762 0.7029861412627828 -0.7829384507177096 0.6578170009253121
Ni 2.4919997592840133 1.4109474441151386 12.404143565779181 -0.2016930157005494 -0.0038232304008321252 -0.30646341264042054
Ni 3.317623206156911 3.399432770013048 11.11304694820818 -0.6064923825094071 -2.3604069136454706 0.03542903023157125
Ni 4.096539185528272 1.4037517449938275 3.7295889736838412 -0.8028498449296559 -0.7090248912576951 -0.7476508311600091
P 0.17387668906225626 6.726880873047134 11.836407517735378 -0.14318242105916631 -0.9362183652221939 -0.4700007432068551
P 7.522429987695064 5.681281213933643 1.3254422429923383 0.09549797049900972 0.3671766713600773 0.6082240204885332
P 7.314575760897294 4.70746326618287 9.27789643543224 -1.90339152695469 2.683383750559882 -0.5323075716658768
P -0.11845227784312154 6.340665560593686 6.4476683741041665 -0.14472713983846688 0.1938146413937372 -0.09260702210445985
P 6.028879607769388 9.003341767882027 -0.030146289216180105 2.01097522497364 0.1738554246629909 0.20764871906335208
P 8.832453139006173 2.579178421715283 3.491533106138189 -0.7204328759843206 -0.33425832336550176 -1.5574696512083306
P 7.082763546127672 8.951495833187453 8.76943449763747 1.142251403058994 -0.41584534021037417 0.44478670583507274
P 4.045126837832033 6.801660792377067 11.321046011513904 -0.7707015423318856 1.9688384437045898 -0.3090931369537838
