# total energy = -381170.7303428833 ev
CRYSTAL
PRIMVEC
9.26376988508113 0.00000000000000 0.00000000000000
0.00000000000000 9.26376988508113 0.00000000000000
0.00000000000000 0.00000000000000 13.55846362302195
PRIMCOORD
 96 1
Ni 7.458140684722788 1.6560378188996585 10.770165371787877 -1.129360663139255 -1.3287304300232663 0.5458631988631244
Ni 7.783224896625716 2.022299487827221 6.47975226291663 -0.5733184668605996 0.17102052631735706 -0.6861875816482053
Ni 3.7840369208216136 5.518307276183149 12.318460915338827 1.3711849996430514 -1.7477891349646157 -0.8803763185519096
Ni 6.501471171351784 2.9993770861982876 8.412700837696828 -0.6811327928331173 -1.860995835597298 0.29396862260751955
Ni 2.751404494604262 0.059185299254149455 1.797351069841526 -0.007773216187515645 -1.1370333491931646 0.1429523073262312
Ni 9.283872239905298 0.8961391147332837 12.30221782126751 -0.748790086970775 0.11352191788025609 -0.3181223370355876
Ni 3.781720978356786 6.795206786050803 3.5312203039681545 0.9234194136853128 0.01907938522895424 -0.9460752034116158
Ni 1.8535784473795973 4.450166820095061 8.713305537746528 0.44614990473118643 -0.39138077941010657 -0.0977289167120575
Ni 1.598880358867712 1.4050174470219192 0.2209446166525014 1.4331033344144029 0.7974014202205751 1.286930463268345
Ni 2.1289625339873233 3.686693227139978 1.6481265594398073 -0.7421535554908638 0.3127307337063711 1.5992043119429555
Ni 0.7245231462046253 5.3455935509261625 6.772696751669665 -0.2104208824918505 0.10027919393773697 -0.5616428302948844
Ni 5.1939734296388265 7.295487413533014 6.508740451560384 -0.26788375259500957 -1.1063680588988236 -1.2941272381271003
Ni 6.437606741941695 0.48370681682691674 8.474039963443268 0.6894343707202771 -0.29256994248777995 -0.2165899874170399
Ni 4.718853201094505 4.376927455587351 3.382945329977015 -1.4868064803648136 -0.3648539367641716 0.38538676661020077
Ni 3.767315816225558 3.631129135523833 10.13100601208283 -0.3070717356483808 1.376388655331178 -0.2797069704821828
Ni 8.368861899591613 4.304494039057401 8.163659207061038 0.47991157456266376 -0.7375821340700974 0.6062188171330464
Ni 8.129226700870966 6.033187604963633 4.823734824310662 0.030129986616161012 0.3510193448739245 1.0109225389043042
Ni 1.132431018911705 0.18578953641340362 9.998837954746072 -1.273824007793374 0.9166880084987504 1.063584388074394
Ni 6.759179985067944 5.297032869323657 2.6957070047021428 1.0264062363622 -2.546870771101091 0.3573560857252297
Ni 1.2772422693524481 7.492286940424207 3.7129986280324765 0.1325737923053846 0.07006127559345997 -1.7857190772411697
Ni 4.792185203300807 1.268173038660183 12.061093934730472 -0.2995988243101034 -3.3036253643345814 0.18147051800608746
Ni 1.5948320914391934 4.785135474437872 11.058310301376805 0.6843847241115116 -0.28029626732674956 -0.9767410079265888
Ni 0.8276817082269503 2.7857730807823042 7.183992385014294 -0.3517490239510974 0.11938326175703956 -0.7110753460288205
Ni 2.6336712434622833 1.6923332692084374 11.257524893070322 -0.8781821391140683 0.5467965093106711 0.9967318492262188
P 2.9402464431863082 3.6208556147498574 13.338002708367986 0.8071160764051778 -0.358082422368293 -1.3990264473353518
Ni 8.215611354809038 6.912300837072489 2.5159898694315173 2.3123331980666952 1.0413050078509034 1.3277068738547586
P 6.138850163978929 8.949533521912919 10.534044847351856 -1.3098011972189312 0.1542034547600183 0.1571291130472455
Ni 3.6906488568699034 8.925475511588289 10.38922711227221 0.5632775376848299 -0.362899127030646 0.34838910633992903
P 2.545192977536008 4.9164494121936 3.679251640811994 -0.6216536636308777 -0.09161791871831318 -0.6672357231360508
P 5.802769857253001 5.749262322545622 4.798895878186893 -0.5264426282446676 -0.2329370613164956 0.4977540020607234
P 7.262953053787114 3.7029974620923647 1.1841311921195314 0.38457044135649254 0.8280309721809741 -0.18715651264727123
Ni 8.195073577030946 1.5872635914641364 1.159871231611969 1.620307669580474 0.11830468398088012 -0.6492305448078819
Ni 8.347295843359138 8.75011234815154 4.034795128012334 0.7956669540279717 0.638515729493539 0.7548784592566999
Ni 4.94023877319231 1.7047745121294913 9.890505577257322 0.22988773296721055 -0.5650986500539686 -1.4923050415855397
Ni 2.949454630426463 4.243797818939198 6.362674886680691 0.44080638103108594 -1.9894530346311479 0.4959958817190361
Ni 9.017186833195465 5.706352540557296 12.127110337878877 -1.1511096247805723 0.9952182407951697 -1.8742704412190172
Ni 6.785072221824718 9.137625105136362 12.852569124839293 0.4905191748751811 -0.5393570223134905 -0.9828666612083524
Ni 5.624775783176207 7.405476153072607 8.783457287760129 -0.3053817495404676 0.7879083931284753 0.6331395527832903
Ni 1.530578583695015 3.182308749610094 4.835612830024269 0.9456669122296038 -0.055010551907924615 -1.1957059233337084
Ni 1.4430730136039671 6.007267576897282 1.857157041676249 0.44530221201891057 0.8020404616544833 1.550136864992343
Ni 0.02661851631374306 4.506657288697137 3.341754903674576 0.1682013117010071 -0.042817609386158514 -0.6776795441771941
Ni 0.7635421448520415 1.8821293860859927 2.6571604583175517 2.4962357225530427 -0.3743978716988649 -0.4675898197725173
Ni 5.148729177645953 7.355674126308954 11.865146674666335 1.0224038000710263 0.44998573353750887 -0.4022269780959912
Ni 5.975956034772812 1.5986487646212293 0.38445293380029116 0.021680827407543304 1.4261862955795954 -0.4386762220619606
Ni 8.817487746338307 5.299302492939189 0.6876283299859489 -0.5351686952637557 -1.7874039211427604 1.8086885415531497
Ni 2.2158103764183603 7.760917738804496 9.04255937246313 -0.1272822048891421 -0.9959756877864846 -0.6140894781303747
Ni 5.420407756309955 0.4507361335206444 6.271318367459127 -0.8613997774494067 1.8176537211662374 -1.7946585458226447
Ni 1.61650931290998 7.471109962525823 11.325736809675382 0.19627647267066842 -0.6586515810114656 1.1334098935079642
Ni 0.5832626987509558 7.943710445668413 5.712574088394809 -0.822332636244616 -0.924958990258291 1.330024980464974
Ni 5.392931414907241 3.262236555956226 11.991769439365306 0.38137713123017547 1.9534578474834616 0.7635798436854399
Ni 0.6862609975547147 3.3171799749917965 12.762079694476562 0.40871644247507677 0.5615088758201814 -0.27856720045078476
Ni 8.585272827274967 1.6778539969183348 8.797164888020951 1.0843437321089324 0.5388857391040267 -0.3090627979364806
Ni 2.9690567674487642 1.500452804112537 6.64120680228661 -0.4298061732658404 0.7013822871107728 -1.0464844951693137
Ni 4.874401160802189 2.8163435213180286 5.668522083582829 -0.45339501632937396 0.6694916090497631 0.7267009683812194
Ni 0.43976968276119255 6.196155844328625 9.279005981598202 -0.19989504325986218 -0.3016549355081837 1.2069275030811408
Ni 5.831580181515456 6.8151516825579 1.6109491982404218 -3.1543399157014704 2.2988652454872476 -0.20187402136310395
P 2.465561611825374 1.184743527307232 3.806213459487817 0.19723806525298934 -0.6496987426935521 0.6971379100121219
Ni 7.333885739599856 6.325728193350802 9.97058253029819 0.2656216960337103 -0.029683385997045654 1.2028019109485415
P 8.803165958135812 8.166355890467083 8.9348643423407 -0.21617963935249868 -0.0017252102212228354 0.259420709429321
Ni 6.862322798681509 3.7522436626644593 4.471120541139835 -0.4973891625221369 0.8279978049501934 1.3752625121465347
P 8.833041615932089 3.835765811716004 5.539025697473498 -0.353827503746681 0.375435826045076 0.13675749136942897
P 5.665805019883093 5.104754062123806 11.04784316781277 0.00023345616704475923 1.3390819484609198 -1.2507154468003685
P 0.6816837688672294 2.7284674004326086 10.422119979911663 -0.33569916957708634 -0.015648248060218212 0.2957619670625164
Ni 2.4465523560740685 6.283948591285312 5.392011522560211 0.197929177782743 0.414691429111589 0.3423992073050813
Ni 1.8386359865965296 5.714736252279971 13.226539176666789 -1.763648727704692 -0.21674116828292353 0.2629505769594504
Ni 4.005579977007026 2.07552910943882 1.3945290067872078 -1.9813363190612847 0.032081711025893134 -0.46696658436622157
Ni 7.175225153219443 8.537110487776411 6.2807146092274255 3.0412352878642914 -0.975701768028797 0.15882218447895227
Ni 0.7450961263081822 0.0417323568392083 7.565066821946894 0.49209783221621056 1.1428808091128768 0.02731257177202393
Ni 4.959553733348972 4.296425295509942 0.8838590614077816 -1.0989784513029717 -0.47377100888256474 0.7668027214981117
Ni 6.420033370518584 5.357293692258472 13.132198797173542 1.243727959738942 0.48825968941704295 -1.2229192505237068
Ni 6.052252443334094 2.429210578897439 2.3916997219831186 -0.6677525148714692 0.7183132585381565 2.0385209958023927
Ni 3.7001164296661186 6.190764330270506 9.92441560682733 -0.014382751084233295 -0.2025507357151544 1.6771658162200986
Ni 3.3781541082057793 8.650202590218875 5.096545435651471 -0.9592557066576317 0.23592494030022595 0.5291659407131016
Ni 5.594501783275979 5.044974955221675 8.77835943520655 -0.5641126319916155 0.4423575275682898 0.6446722360132381
Ni 4.536690430581022 0.2751487868532996 3.266409884277845 1.268048024541545 0.6884594084015176 0.1945363500511101
Ni 3.3678991149715225 8.842092319084635 12.864703736978004 0.36631355202883364 -0.28777534931261406 0.38774986752573865
Ni 7.723334624485272 3.9223172135115427 10.569567699254367 0.1210205402501464 0.6434959563169498 -0.10646603947473922
Ni 8.139175989699867 8.50461318310995 11.111120274213777 1.1492540596290726 -1.469032187100528 -1.2950394655287245
Ni 2.212040022085621 2.0459221009684634 8.89572120917717 0.7746512710082529 -0.3728243565641579 0.14530383827754328
Ni 8.109948795793741 2.2763676399886736 3.46040434165564 0.06646070272639523 -1.71628206549527 1.2617434224797561
Ni 0.5453627635025443 1.0753013501893365 5.3117854228246095 0.295947086490129 -0.5031962561222173 -0.527029353986073
Ni 4.001281587792306 9.069842101075785 7.8673390005712704 -0.525819907059004 -0.42918987983808016 1.2633043392089727
Ni 0.40341679707928585 8.901102533088444 1.9116622843974749 -0.5123157019249822 -0.6409276813691414 -1.1092620926171672
Ni 3.6044309507893 6.751889398188667 0.7276107606987334 0.39323017391401954 0.8819840293586618 0.7289961921732994
Ni 7.626574548304774 2.8155005182608313 12.820421990673514 0.2628320491037151 0.9871773727685644 -0.9363492343731036
Ni 6.91686787561313 9.31972302926083 2.3157581158074483 -0.6360924647640271 -0.7596910501539949 -0.496345551748971
Ni 6.367924665059962 4.614515361169089 6.62881465734581 0.13297822683265487 1.0153137259934644 -0.21494113895970723
Ni 3.4861881923050597 5.946830742335139 7.686537077850119 0.2293182336169857 1.4022626948844625 -0.24455150562697242
P 4.296925539082344 2.777750656084141 7.969108923491684 -0.284486137038381 0.2719556086715381 -0.1230475979825042
Ni 8.007778678015406 6.486667667116605 7.6931671579384275 -1.2491576153949455 1.56554214380382 -1.3248820028114539
P 1.2994753170147937 8.54305782802609 13.285545685162653 -0.8194756264117953 -0.08096480987984121 0.5488379652207322
Ni 6.284300614539966 7.66060963876788 4.086154394489338 -0.6897105071997993 0.3501397704824486 -0.055824048948155465
P 6.134551774764209 1.6276258367411527 4.452382713845408 0.44452008243724733 -1.3505593529728999 -0.032507228599085954
P 2.4232261835683246 7.839687573918214 6.982852781944013 0.300941711491243 0.11519570603825321 -1.1393645684295024
P 5.243441960687545 8.955332641844848 0.8284978463515555 -1.9767697827365247 -1.5984885168228535 0.7144445196113696
Ni 7.574567744314604 7.225944293199168 0.49150227916352657 1.3274775314527718 1.53699801361754 -2.885912374787849
