# total energy = -340860.91474610305 ev
CRYSTAL
PRIMVEC
9.25854140643694 0.00000000000000 0.00000000000000
0.00000000000000 9.25854140643694 0.00000000000000
0.00000000000000 0.00000000000000 13.55081121603088
PRIMCOORD
 96 1
Ni 7.029936559809314 1.9631441242575027 8.164458803125797 0.6405921524065935 1.372196214516385 -0.37969408710079766
Ni 0.69579421404172 7.777211968499685 9.832794297830851 -0.5175463541963022 -0.11908475668001428 -0.8743331976816232
Ni 5.688383142178402 7.285787098065704 -0.029932864955594836 0.6778448661104649 0.1053463240479992 1.6515224046203816
Ni 3.1635232997470872 1.0897303449655156 4.271093928499468 -1.2956650149278655 -2.0347761840479794 -0.05874790746316979
Ni 6.543696472664888 5.009380219161572 6.123937343396629 -0.7414213053105295 -1.2595708403084696 1.3417463826669602
Ni 0.933640592325128 1.138356205388276 13.352563131549141 0.07130748929573526 -0.7885190301292807 0.8330029714742687
Ni 8.867303396587152 7.609910121995634 3.5146470085115364 1.266063904231981 -1.1233689643321945 1.6087263925007778
Ni 6.713368505815594 1.807109922866646 2.746424149477202 -0.7184266441875692 0.04377174576931172 -0.8930598275568491
Ni 1.8165999279948504 5.120473459681889 6.2022609018186365 -0.6837800006479772 2.275523742547829 -0.7711214034781235
Ni 2.896488443251799 1.180028901078079 1.3105650789342285 0.7154837595091613 -0.4396730387575912 1.8717193926623894
Ni 1.796610736705296 3.1225264775932438 11.45292889917206 -0.2696213041114066 1.121672807576694 0.729611457159795
Ni 6.255005887394117 7.3982876369074715 7.065623608362157 0.7102315099712865 1.0202106490744496 -0.6209905761255821
Ni 5.818910061492964 7.410925546175762 2.505138222993669 0.8804776200164642 -0.19804744852816214 -0.29986956147298677
Ni 3.8326936515969394 4.080026331591916 5.773675604854069 1.5159072543855119 -0.6288195852516977 -1.1046125096602977
Ni 8.554864652141898 0.3201103720054776 11.897937923060454 -2.315074251146942 0.6507678073880148 2.228816568299277
Ni 0.43942149403973946 5.423755506496123 2.977234962007515 -1.3692139919596098 -0.8234749773791754 1.6590020008268784
Ni 7.611215576359611 9.038484572016783 2.623545711368894 -0.32927809654209095 1.0027932249289504 -1.7749806077777432
Ni 2.3664369373106284 6.106424811981997 1.97770040334293 1.9675233244375923 -0.10909062158177986 -0.6227646373068694
Ni 5.475436685643086 0.39038918364124436 13.389394535842323 0.6905885389293784 1.025272636978389 0.11197951309380069
Ni 0.5225631975043981 5.470455590268477 0.6115831490235906 -0.8762658959279618 0.945699565239752 -2.078902742053548
Ni 8.399256343664113 1.8753083402074786 5.934808485097708 0.15023341436867677 -0.10367253589000211 0.4640360409829879
Ni 1.3072968137534906 0.9641382283176209 11.0836149337487 1.3956567595321705 1.479605334630684 -3.1472886652816445
Ni 0.21105586234294735 8.005083194075652 0.9286983828251909 0.5475531849710377 -0.0728493798615584 -1.7737030266169
Ni 3.5783152214531198 4.824968587801987 8.127898674101157 0.14858482302166023 -0.3140898188374268 1.4587531737720232
P 0.9273633011281304 0.7727854683291434 5.174445202017845 0.05689851295925685 0.25980894600667515 0.018682406900851697
P 6.842441834100761 2.160360318633972 12.56593892110768 0.22698829993222844 1.4020852887663338 0.9643737446104875
P 9.137875015969245 3.8638764196669806 1.578019347363475 -0.8050653645237361 -2.952970087668295 0.8394052754561865
P 8.789189081205045 0.5956075355126474 9.920372694424715 0.2726582911655175 0.4300586555962787 -3.0184118622118725
P 5.385619573693124 3.223935283611998 7.1813201957602715 -0.2993023761156071 0.31681878773281563 0.2151411707856553
P 2.2696111093781783 2.6717558632743312 0.057945508385736415 0.7600258077855943 1.7112612152419107 -1.629961133509838
P 8.626923881325133 5.51532248280631 11.315523809311408 1.5347318432911827 -3.938088521025301 -1.6967478521170845
P 7.674905083946848 8.290283309167561 -0.05669653112544884 -2.253112464732165 -0.3211971193061694 0.3790497686485794
Ni 8.942334617620292 2.029509350363814 3.5911003415326688 0.2655121670390395 0.19094734714827113 -0.37241940781625543
Ni 9.316592644251907 -0.06559121202951317 7.783409636239022 0.4322695472046684 0.3725042542205778 0.4651087052218764
Ni 7.7658609965121945 2.7429355310066583 10.226810978066467 -0.6921186024206597 -1.4033227607178604 1.2656383866587881
Ni 1.621022495479544 8.353324718843604 2.4986340975277535 2.5256974794575857 0.9791393329554362 2.069221510210043
Ni 1.5112532264063823 3.056476041900942 4.785035572076662 0.7417933439379676 -0.668971217769919 -0.7291013502925959
Ni 7.3999912085597535 6.7045636327649385 9.48505273430868 -0.5621017722091739 -0.9479965888040447 -0.5521765426756619
Ni 2.9691309605551077 4.808830949813246 0.06254700355521697 1.3959460086378153 -0.5965342428554308 -1.2937904236129718
Ni 4.905166075041506 3.024811829668299 2.023312608478636 -1.0815970226017309 -1.2926203145642705 -1.7174388048075324
Ni 8.732323118768527 4.4117043254580555 5.302487128770054 0.030009658988212833 -0.5852751250018435 0.06147996168235218
Ni 2.087088220502646 3.1135734678771723 7.062195170411939 -2.1107998478724617 -0.06504351066389444 1.2724255847839505
Ni 7.101893945035075 4.3312198234292945 8.767876844322496 -0.8775948991520305 1.090734723236941 -1.1322739801313082
Ni 2.0576367997096527 6.985986262888742 7.9247310891916065 -0.5608306188062342 -0.1401091814504813 0.5487626318981065
Ni 8.309235543799206 8.283996759428975 5.78844575625019 0.8188043113763834 1.3574527376586234 -0.4927120687614417
Ni 6.954007260242091 3.904604744114757 1.240756601211157 0.1840159101357605 0.6244525665322536 0.13202486178045003
Ni 5.018620243666888 7.555627292662305 9.054855525253554 0.1309740519184325 0.366214307446808 -1.7874877391058184
Ni 3.970053374603807 4.080878117418058 11.11941678821724 -1.0257130669499175 0.40822304777842594 -0.3557964545475937
Ni 6.95413687982433 5.643710679013929 3.832400155828584 2.0347245048744376 -0.08065344928700949 -1.2149408603039207
Ni 7.044972431349025 8.96857332448208 8.96941770347495 0.12950183824828018 -0.2643651979187899 -0.07829857590158774
Ni 8.427254173427713 6.5519550917618234 7.338509863141372 1.6187786345304576 -1.5419599856085058 0.30898155107658404
Ni 8.547587438453345 3.493229224254878 12.169685377224285 1.2446571564214306 0.2563148168104876 1.7459495106527154
Ni 3.7352660184612376 1.6637043722024925 6.782180764463743 0.9872727606958481 -0.30750419520010913 -2.037468643278478
Ni 2.1909412815007614 7.980251785535316 5.535519991281605 -1.8564560387454154 -0.12296403712976244 -0.5283514152316062
Ni 1.4221027294507922 8.27285873389802 11.943211265574021 1.2063551755174386 0.29147336698949156 2.405863760426689
Ni 6.2334982952840505 1.1595767827090997 10.941304668554464 -1.2782049104698892 0.3965643804935751 -2.147830675373514
P 5.042294334508662 0.20323239470067153 2.4959509721754083 -0.29914502460213643 0.6213183917786461 -0.10452408525701998
P 3.986977988627571 1.8708179475370599 11.36532272695343 -0.1847910977388882 -0.32384047046628744 -0.7060670941809517
P 6.801741285277751 0.4388817210651303 6.762017512592325 0.056711593759431356 -1.6426636686781708 -1.1154188562471823
P 5.341465588857605 5.663635060512364 9.758792626622352 0.13742777796357625 -1.8172001785685865 -0.5523521490215778
P 2.32326435788349 5.908597553860687 4.0346724397665295 0.9807475579828207 0.28546315623966967 2.0405285131507243
P 0.3026043215699568 6.442982057265271 5.249922684755549 -0.8782572153263777 0.9262471129420952 0.32614057935437374
P 2.2884152073444057 3.4124021561873423 9.299447676938337 3.8849618164036515 1.204588056314687 0.352989838336734
P 8.859794719358886 4.123569252682595 7.553913536614275 -0.01369446676795706 0.6752375103946049 -1.5523521274761072
Ni 2.2752217855808046 1.381587351459551 8.56521014651288 -0.3736041721529759 -1.3672039035081163 0.6582895696863567
Ni 0.37445338185913174 2.994962291587001 9.148288097693822 -1.5205339545242458 -2.884106174817046 -1.0249404504499509
Ni 8.054542323241376 1.8176924359022926 0.6780335537125157 0.4098073615464104 -0.03732753280586475 0.8534301289803689
Ni 5.326133443987063 2.088893636112402 4.5864213379203305 -0.11542119178549798 0.571899475025886 1.4530982894790911
Ni 7.733169086163229 6.747328836362183 1.7462655651095529 0.6357775046267695 -2.032137717983868 -1.7961898948655066
Ni 4.920405634496163 0.9796277683951681 8.571131909712879 0.1542170816067731 -2.012968601254585 0.31954158598061744
Ni 7.979983287829251 7.294332731951882 11.581526338419579 -0.7389831281826822 4.284857575263304 0.5850825493750632
Ni 2.394823625820945 3.380108363126682 2.042188923069254 -2.0399577282489187 2.11351621836236 0.044435604605555734
Ni 6.463637863549198 4.559072531922084 11.256930203014477 0.8599602167894028 -1.586926780127183 -0.5679772571533445
Ni 4.900777526328561 6.068983269798135 11.88885899717878 -0.4274582418589542 0.3095865316504346 1.067846762895174
Ni 3.9170852581760442 7.394574961730486 3.2928067969263135 -2.8504270373970457 0.6504780440617378 2.3525336815449807
Ni 7.468384055273945 5.598343825230318 13.11480100599419 -0.647679141160362 -0.0006962547360762203 1.5571894009637504
Ni 6.179891339486681 8.92355829527883 4.693242687351717 2.6007520945005793 0.0882950249926673 -1.5997601844464255
Ni 3.601415282716408 8.436883056679745 0.7046463056544773 -0.27233021840213745 -2.260077840306405 -0.28600514478606875
Ni 4.116838292947761 6.473988913045131 6.644681237478889 -0.7102495076934155 0.2664786447173669 -0.27040189103117307
Ni 4.885667586456141 2.9943697449253373 13.019239894842729 0.038597914877856104 0.32286267993405043 1.008131092202096
Ni 3.2583122485300686 8.848749279243814 9.708126183633489 -1.3112088761997354 0.556669545450009 1.1632094933679
Ni 5.012518864760072 3.076178218401253 9.370548647067162 0.29844208499784086 0.477782444034803 0.23146047677096912
Ni 0.9722394522075515 5.144156809065251 9.683911393962946 -0.4624237021905455 1.1957784284428568 -1.0629153870318275
Ni 4.35476429468883 8.683576897305116 5.618803350432568 -1.230981201596235 0.07030553039378214 1.1219512580490614
Ni 4.767436010371098 4.870983539496793 3.2728601949280662 -0.8130794930774642 1.8342075117598604 1.0378378752379094
Ni 1.4598035107991318 6.139996283781868 11.637097956742027 -0.274556793739811 -2.554634731317226 0.5542267403364713
Ni 5.692299505270335 8.318253363306397 11.091840222095916 0.3044299271501596 -1.0997310131982803 0.7961094408820288
Ni 3.3357969830841587 6.453897877798104 10.293670610293605 -1.825043071651773 -0.2706834268273338 -1.2303353404821198
P 5.57720657478379 6.6001643178131015 5.071119877890273 -1.253903614720363 1.4095492012435467 -0.5197963265727436
P 6.986652877883114 3.4555377014481263 4.020417063282728 0.8832793511313175 0.3671255064071678 1.093699976512852
P 3.5460584625588134 3.0206269688703005 3.692392489927407 0.09916102117289373 0.816460236624239 2.047575392695177
P 5.125602691721913 5.218225141773188 1.133401033930115 0.24013974971252192 0.482211426340434 -0.8612090015948395
P 0.3419327545295534 0.7443460061317724 1.9606943141531876 0.35631941693059926 -0.1856480464225448 0.08237146041938073
P 3.706277524747669 8.070142965817986 11.875118395607297 0.16355250007508607 -0.2239294585012466 0.5135634582891542
P 3.3245478550541407 8.645857598873599 7.4927988294427985 0.12724106723856152 0.41024727729730637 0.43666227695572535
P 2.0429712698334814 6.811036861032597 13.556774154095718 0.5557282645826623 2.106309416201276 0.08659244047926377
