# total energy = -381169.76014452946 ev
CRYSTAL
PRIMVEC
9.22230819773283 0.00000000000000 0.00000000000000

0.00000000000000 9.22230819773283 0.00000000000000

0.00000000000000 0.00000000000000 13.49778025257718

PRIMCOORD
 96 1
Ni 4.210998190972126 3.5005668937089327 7.701725803960207 -0.8039145387487444 -0.11915829023042702 2.2381098206757453
Ni 1.4991046581084537 8.693833141272988 7.31637718520272 0.8761057162010139 -0.3433389455105313 0.3457092455149207
Ni 9.06380448317796 0.1283081308586255 10.973034413511552 -0.6672796890001088 -0.3213292740086595 1.4519145535836349
Ni 7.932586925299613 2.500361447481557 11.362323724603861 0.6250940567709944 -0.454824549687049 -2.259347132787967
Ni 6.5941809892465 4.394559015292901 6.682022553533725 0.24824078155310153 0.2705895815619469 -0.35993413086505105
Ni 6.379900655992219 8.696157162963544 8.182030075624343 0.30341691250461295 -0.32793418091968685 0.9983773552494419
Ni 2.750387447690587 4.052005595951519 2.3065684721065263 -0.08955743664485867 0.5045561125842214 -2.2188373455993786
Ni 9.102916292660696 2.4878191081991887 13.299646650468299 -0.13231231111388178 -0.33023120448397963 0.6629674347780001
Ni 7.045317866463325 4.786562451716679 11.04936377035306 -0.8552147316846174 0.5113944756622936 0.10040389244105935
Ni 4.631332558480782 7.26609070475789 2.445797660449108 -1.5839594699687432 0.19864343024094822 -1.4512632931528813
Ni 9.032789860378987 6.8474993535171516 0.8493441604312271 -0.6358883191730209 0.5029327180481855 -0.1932366574030801
Ni 5.767465606680822 7.3907025344515365 12.498216070557378 -1.3539413820712554 0.7946649951260184 -0.3611224947461974
Ni 1.332033321020674 6.171587156205358 5.0230906815038905 0.47841210719900185 -0.5659612551645801 0.563199633259043
Ni 8.370268454712779 0.5796764880136765 1.6744133609660943 -0.9036355461901664 -0.19114300809884502 -0.6149502834687732
Ni 6.525299568584729 0.3587957487120491 10.844049365224011 -0.33143088121903563 -0.4753836047853232 -0.43961210361266867
Ni 6.733649957604774 8.123986711671867 1.2292377838317126 0.13536086813221848 -0.18092107326052065 -0.16586109360360468
Ni 1.9626916515246882 1.9601924059765101 12.262382280584845 -0.002597585523847139 2.154879097579863 -0.23506902005783387
Ni 3.4480827371971996 2.33573402209218 10.129031814045288 0.7561017901408397 0.4196888823261804 0.8485710011158546
Ni 7.573322683326134 2.0419297244027077 5.984888902602332 -1.4409590830133958 1.708132439804942 -0.9586887784105682
Ni 9.021593978107813 5.028528154475128 12.829194570756627 -0.06281667821590471 -1.7841941559562111 0.9833541423677321
Ni 3.293756630174297 6.867622430218716 8.820974650132188 -0.3068984432953102 0.7762178441644245 -0.5900892585610353
Ni 2.6127260517583015 1.5936056512161196 1.101696026792473 0.13006079607554374 -0.06661188359227882 0.24723110934166453
Ni 7.828171950773898 1.580177970337349 8.755659496088427 0.3372677996157869 -1.782260429268608 -0.04951687578320504
Ni 3.594376213694409 0.4313116810732171 3.0382018561418995 -1.042433979249024 -0.41311354310150794 -1.288294433495407
P 5.313036365402375 1.4685234837993855 9.258667246315309 0.39372511127256704 0.11709163750938544 1.2323145756956777
Ni 4.256796173969361 1.3140221529188616 5.084492810137718 -0.5828675440016154 -0.4681369505252389 0.7687855562560953
P 3.495430067988139 6.952523000390393 4.527074363196098 1.2980646255082933 -0.4979758882635423 1.4249863617342233
Ni 0.5373654597831056 2.4375667502950535 2.044131089392929 -1.112790674595716 1.120895305980721 -0.927688216263996
P 8.688677870935603 8.72032883300699 7.8955270794127035 -0.7536880384930246 0.4493604412486842 0.2699894860841028
P 2.1915801211196095 0.3926019642321791 10.974572694535302 0.060587274664753714 -1.56004718212752 0.4329519179836737
P 1.5827048828104142 3.724041868334185 0.45457956490366913 -0.31865686938281895 0.49106064920094783 -0.027913952801448698
Ni 1.1836740474651921 6.201163098910178 7.874443038186711 -1.2492026097002678 0.22602567890864297 -0.015454129771541125
Ni 6.754289483570906 9.115809079658307 5.8326608707167376 0.3417446044402179 -0.8617463621555481 -0.6350254569520934
Ni 1.131475782510631 0.1074011579519134 2.7504427815403623 1.1987971606645225 0.14155054188269817 -1.1353924711556318
Ni 6.961477861745672 5.664775203806433 8.705730841205476 0.8920918072166248 -1.3215819919039433 0.6363709152363944
Ni 7.724485538603556 6.812260913518675 7.002311476187246 0.7907905997722768 0.05544686811439484 -0.06983836094937651
Ni 8.179108448356216 5.845181998690024 4.59924722568866 1.4977148997472012 0.5142419724134176 3.2356466823017627
Ni 9.061074679922385 7.995464623260778 5.618572361475009 -0.05546872249126576 -0.1155759721958074 0.04924331040684422
Ni 7.303800723379657 4.010938657110059 2.0502722244871414 1.2417543809523388 0.7817313177834859 -0.9507468978556723
Ni 1.1923061280301162 6.868784441063994 12.434951957878614 -0.0655153080939904 0.3915638419551902 -1.8619908525207158
Ni 4.646438699469399 5.038285356652147 9.453494042450306 1.3508066930970155 -1.3870924149019273 -0.2258583000928433
Ni 3.0724304533819797 4.2628460082114445 12.380218480373522 -0.7618065538351009 0.7510403164575323 -0.6202231018319383
Ni 4.6752030790441825 3.4704376125063616 5.657271011546093 0.8630046600426814 -0.3570256989690045 -1.2316625439339755
Ni 6.333927449137362 1.2684547276290228 13.069806438657245 1.3774440931788858 -1.1071429893916351 0.3958933225684795
Ni 2.031711406810896 2.315039162276273 3.5485800751588332 1.0496124992753344 -1.5330061188493276 1.148823399849557
Ni 5.636167603472679 1.4958399609717197 7.206856740804418 0.1100964371384749 0.8416609042595826 -1.0008232456867732
Ni 2.019169067528528 2.675963419743006 8.539506112019255 -0.49797717381512296 2.8459520323448277 -2.2091553424249244
Ni 4.093837986381534 8.18419916253553 6.840391720513533 -0.19375113514565342 1.554831185144219 -1.3116994426829087
Ni 6.743425604398384 5.793186624517973 0.47566729505298005 0.8587865081962758 -0.09885660255859749 -0.17511577943265325
Ni 8.37719440824297 7.331615205199968 9.69460575946056 0.37208979239097856 1.2358166753116653 -1.6513617106728011
Ni 6.940220441123716 3.463686882833793 13.148619363122824 -0.8853010095470366 1.5301246835364744 1.196738735473597
Ni 5.903881990993167 6.586793920301517 5.564608024481791 -0.6834035911451649 -0.29064367199934465 -0.3086599060711071
Ni 9.113429724117976 0.8183618157112892 4.5811466011963775 1.2123972679464603 0.05602382366378739 0.7532314105715802
Ni 6.669149133383536 6.484140406660312 3.137883019819349 -0.00048336739432174817 0.26405178044342914 -1.422657970711363
Ni 3.667453784630795 6.294022521141181 11.104421873110166 0.014208173179581982 0.18789776168866995 1.1033341571685062
Ni 3.690371220746004 5.77094241690836 6.5757004056524275 0.7009433998011412 0.4601662736149365 -0.7253007455995831
P 8.829013736273689 4.630133658402321 6.8141385754877115 0.22309616396667387 1.078570319960265 -1.4786658535355501
Ni 3.9435696950088097 8.91263240559224 9.984942469230788 0.8993253488505867 -0.38718473905088807 -0.5848550067452895
P 5.514322466267791 3.0563190807891143 2.179230528080625 -1.5124385791106212 -0.2362584123802447 -0.0810969645823313
Ni -0.004633287687839504 7.25281980312015 3.0999138543344684 -1.3296136039591682 0.046341820489333094 0.12358135899878715
P 5.304865400252244 6.767090047485558 7.779810166070414 0.8312751901498845 -0.8873185541976976 0.44564622562189055
P 0.8178038660593896 3.076626603656595 10.466557230903767 0.6715919432222176 0.07758740876717607 1.2550084177487677
P 2.0972082403280856 1.829761299748178 5.55305431664874 0.027924751434726103 -0.35895634033281404 1.5699119907367414
Ni 0.14281574403884112 4.884826146609055 2.8967049021893656 1.3016963087236098 -0.4507776333111849 -0.813494983348328
Ni 3.4104464970417996 1.1194037809513515 7.909578188332273 0.2961414618891222 -1.1699794651018818 -0.8570628406369498
Ni 5.132565014360712 8.459595732866468 4.208594857430225 1.0649162195119402 0.2196190040513508 1.5898688934746426
Ni 0.2620288344560906 3.4250177441492564 4.910047315336571 -0.0164979976550232 0.6334200601381865 0.2877421820818335
Ni 2.845349556213046 4.252922804485101 4.491440286171728 -1.0055553610551198 0.6239661138141382 1.370740455906465
Ni 5.398803832553863 2.930499128708711 11.342711563781886 1.2508118631689167 1.215074043447675 -1.5483733453340172
Ni -0.07881845785055797 3.575027810889697 8.61483669287232 -1.6723424266895264 0.8612323986336072 0.0286999390378538
Ni 0.9354832866070378 9.38480536803192 13.459258062375559 -0.4710708363425823 -0.9158703976934613 -0.024979295653156982
Ni 4.6146217358486865 0.005730742375046712 0.5751483346404098 0.022817769225463927 0.03269157669575015 0.7636351224034074
Ni 3.2111155255351056 8.117245204307595 12.45271504588727 0.21607962343952467 0.5520305040161009 -1.1827809877419242
Ni 7.966515797520077 6.950826095663954 11.88177208382977 0.26684399847658563 0.5442950830450561 0.8723760739552524
Ni 6.8906413117251795 4.177502767241566 4.354465029976654 0.7911086452333279 -2.539918508152974 0.6526696523964179
Ni 1.1077836724985695 0.8761893776496427 9.233872148231063 -0.9449506028888693 -1.1481569699101515 -0.8072322902680679
Ni 7.894323568180093 2.132105454919616 3.409255897040804 -1.9265962472059275 1.0039535637856387 -0.28957717840804326
Ni 4.613127721904757 5.224216314204958 1.4558169874293512 0.1438128555543136 -1.217069733721465 -0.26545534565917506
Ni 4.286768675930903 1.0568580860888366 11.893177312499258 -0.4311441753509736 -1.48032884306027 0.4418237665520068
Ni 2.0525630458678332 8.616052193105714 5.084478976675275 1.0543191607223843 0.7450864128669427 -0.9140978791740709
Ni 4.417467229099814 2.7686107288832043 -0.08065369720143388 0.6458189480231716 0.17093156614797658 2.7023003849587264
Ni 2.302727380701301 6.23400373875173 0.9035076992836358 0.2572149600272538 -1.0758603772282698 -0.7286241535458613
Ni 0.2997877313118256 1.7837143144269547 6.915061061861784 1.864048763491009 -0.4461825577413348 0.45148982888686107
Ni 6.524414226988327 3.4603115179975084 8.74104121520866 -0.853478208609485 -1.4302026158278403 1.411293437628163
Ni 2.002762581070195 4.335361018341783 6.6845190323894155 -1.499540125881398 -1.8683926422820016 0.5170485886242773
Ni 2.138690183042859 7.146090029212174 2.974168602951262 1.5008105079533893 0.14326469636032746 -1.0358514409355
Ni 5.826156376675668 0.8847356907474151 2.4329343848380436 0.8715844312918924 0.6015967449800027 0.29396142351866794
Ni 0.11644547569766223 5.316328729463996 10.46639491827776 -1.0934068707524651 -1.7960153169608553 0.3395162293303314
P 1.504315262295614 6.765752812782658 10.119366834951228 0.7687184504635858 0.9183065179387798 0.18051586740230202
Ni 4.934949392197048 4.813786705806054 3.8518206386966285 -1.4153894620744074 1.4772090664843656 -1.7036669478344209
P 7.998056091891915 8.932192921487758 12.938432812521077 -0.3687360454273972 -0.08998783931405792 0.4432203897892173
Ni 5.7917663890404105 6.964336777317388 10.033520978179226 -0.17501653485062763 1.8535193247145947 1.2875521560127439
P 4.93721808003783 5.334681122972756 12.83478328958392 0.1251049947321652 0.013017238195274354 -0.8516900063608106
P 7.641936657047324 8.419257356380381 3.8120697232489875 -1.3811590801366278 1.1575790345549999 0.1899227625384987
P 2.6800673469346634 8.41881468558218 0.9312686917158303 -0.7066548483636217 -0.2755191576530803 2.500056381850714
Ni 2.3661123056187394 4.76455802412276 9.717619107582046 -0.4324384686823649 -1.0983084218191408 0.05316655672065037
