# total energy = -340895.4597772434 ev
CRYSTAL
PRIMVEC
9.03378486148373 0.00000000000000 0.00000000000000
0.00000000000000 9.03378486148373 0.00000000000000
0.00000000000000 0.00000000000000 13.22185729375513
PRIMCOORD
 96 1
Ni 6.555609766654512 1.8206328296645526 11.459489569086239 -0.3220874923309227 0.41590473269339984 -0.1316816195084184
Ni 4.620220770174954 0.4476529391023614 5.9650938464561465 -0.530454320507222 0.007434344790858165 0.5555613999874948
Ni 2.7263510480937088 1.6131358293044926 4.858093871528123 -0.17709707152874016 -0.7549255104445516 -0.8209175010646443
Ni 3.2643038921200587 4.2106651078333766 4.770564628366093 -0.28239583016825565 -0.6993225763682666 0.0252582603461565
Ni 5.175789494331137 4.619109614659072 2.5060576917316446 -0.989944136880424 -0.02140134849391153 1.1831134313806786
Ni 7.357005839576333 6.315112350851233 2.7353902530464835 0.10910784797296048 -0.07350192584389277 -0.6865483074217337
Ni 5.274266781149239 4.581276124411001 11.713693043008996 0.36226046500538256 -1.4091643071003022 -1.0999133044124154
Ni 5.819491821844571 7.828072541817412 12.288433265017245 -1.2282432338397813 0.5115708533391576 0.5356523197683937
Ni 2.145216713287565 6.134716704537068 0.47349046667125033 -1.1478301826983524 0.7145697323353241 -0.9253824509489547
Ni 2.595044987741344 1.4955791892380785 0.09862724764382404 -0.09055168223732792 -0.23042226531444185 0.844852671724003
Ni 0.36132789943843774 -0.038621236272337926 4.893991421718848 0.7420499400334639 0.6136889002578463 -0.2078232969680034
Ni 8.603171267530032 2.2726292124420033 1.3266284447374959 0.3602076962414119 -0.12479080592585602 0.1499243677686902
Ni 6.8000368787944465 0.8597868435921718 5.02576001184693 0.46702443418735057 0.0474615359160731 -0.6162036962599
Ni 0.9346443969808088 7.374269402103568 2.302070316720528 -0.15169457229523553 -0.5229700963150348 0.47890164524091067
Ni 7.608587709184384 3.9486311493482917 3.662811235795593 0.4182220679726668 -0.1151450553059759 0.6495277643333265
Ni 7.577963179112522 3.770259070802888 12.78741345854713 -0.09192413710482233 0.2849875021548318 -1.0707569945634332
Ni 7.8475222802376825 8.753394073006433 7.148714769542727 0.03069948596638584 0.40763709336796894 -0.19458417256991004
Ni 6.734858122314067 0.6286719165595817 0.49038545078346174 1.1258511073240995 -0.10041443396402061 -0.12036028095832821
Ni 1.9699161215340288 6.325817385699361 9.225114821258487 0.371794886858379 0.5876125148857686 -0.7789727812017423
Ni 0.013386262141736138 4.780181995538513 1.4379562902656946 -0.47468709293893085 0.20857431620141498 0.4344403296037421
Ni 6.151917030571529 2.2514088522240665 7.068814557544617 0.9414271631166432 0.3627746856376397 -0.0169062888370354
Ni 3.4022226828596223 4.008326398526719 0.5519452731202459 0.44253596212768304 1.4807134800931983 -0.8701908933784755
Ni 6.132449224581895 5.800258894256668 4.759432295502507 -1.1209295016527663 -0.5625247186792054 0.16290561051970653
Ni 5.3265814282425 2.9507683271630905 9.558635828067366 0.2849281096718061 -0.4630515655825315 0.041115539093387256
P 0.15072147039084496 5.718412805038062 12.607251787256226 1.005461772900049 -0.9560935068795665 -0.4124877365920509
P 4.1256571939760835 6.025805396411295 12.661224133838628 -1.2088938827788924 1.1020866579146504 0.3412224133881608
P 2.498627403830729 8.377823508638409 1.2095099432281569 -0.5441235904641983 0.2303453893299194 0.11802366240535156
P 6.259093852038365 7.907515644310614 5.905952368278725 0.6415360043771016 -0.6647080716181907 -0.14303149730359885
P 4.948300728469887 0.8173732245103449 12.508127681454894 -1.689321734856342 0.9755454449565909 0.558637210699341
P 3.9068679627635663 6.124309784583444 7.954414537487037 -0.26259473628192836 1.3151745457157027 1.4724435267749223
P 4.688994972958756 1.2449187656675882 3.8186178235839163 0.09262990492259532 -1.105727082880715 -0.21380651113463178
P 0.29516626718466044 5.548134997567699 3.53712418951541 -1.1658734133533082 0.4753846332265877 1.1639080620968214
Ni 1.392946361466271 0.9206600982931267 2.4945414230190757 0.2398430444077095 0.5591043801437467 0.09512927430568134
Ni 1.8891540864772594 6.5199714860841596 4.845863933825679 -0.5173632916512186 0.534071348434519 -0.3694276721777831
Ni 5.755650065497123 5.260616732494791 8.851226347598244 0.22051143395863315 0.6593552919467096 0.8582023535580318
Ni 8.502552973742302 2.43313246488648 10.128140971852417 0.08505980588482126 0.036516606868795175 -0.1575877978512189
Ni 2.2691692729088104 5.269786023946986 6.883537053988319 -0.6024086993583367 -0.614905803384083 0.17652782928883146
Ni 0.49071789405975813 9.07832124044736 9.035711588237934 0.30361308767581907 0.14878305507539538 -0.00823704319781162
Ni 1.232434075237112 1.0650561126496596 11.08059005506291 1.251354365935948 0.26416053810715157 0.9086630813117447
Ni 4.044091152082618 6.714776018966058 1.743606264573776 0.7333405851849242 0.8251608497220306 0.5182040423849592
Ni 5.520428379948112 7.732151816064304 8.01975680547016 -0.5872697868343691 0.29396219484961633 0.4138349946485647
Ni 5.368317513473181 3.0673764198378977 4.810600555319627 0.1735569195859656 0.013781370054808523 -0.31624286062468765
Ni 0.8649930137043884 7.509631631778136 7.092482170032898 0.007424317488529149 0.01058703148722693 -0.4233869000030579
Ni 4.703819413621861 4.688660722925523 6.672013695795506 0.9637325114820627 -0.46055630996450364 -0.5202925494828717
Ni 8.29122564867709 7.004751473472461 9.234951709398677 -0.5320648595274513 -0.00888444697382341 -0.2404408258927085
Ni 4.622397912283308 0.20812936528779788 10.428726606467787 -0.3497965282104169 0.29886066059249816 -0.6530260072945722
Ni 8.16583671729141 7.070418054325667 4.971047798299075 0.23248171894663192 0.43023451905251064 -0.25347837580295696
Ni 7.298539185114653 6.2001122718498145 7.142116493211021 -0.2747023181787398 -0.0050373053135913245 -0.7035867509612593
Ni 2.1825352778087637 5.154975654423888 2.734729883386232 1.2303507671010876 -0.2779403655000633 -1.0502624741545075
Ni 2.482375625187873 5.157261201948425 11.41649146413549 0.3504166782929191 0.1659438831253981 0.07564879698356648
Ni 1.0780195936682797 3.1665673756458763 3.736985835062273 -0.5470289370364514 0.2759109937748603 -0.13192947385316633
Ni 3.5552640291567963 2.747417833972052 2.638527303551047 -0.07362199636152482 -0.36222421245080844 0.33440924712106923
Ni 1.1378955185403454 3.194418533820375 8.274793194340594 -0.3438824767188271 0.9691860783974664 -0.23618565016078033
Ni 3.6027636690145695 2.5961471094725437 6.974873134015329 -0.051407922158330815 0.5657254850046902 -0.21998872868594369
Ni 4.153905838676589 7.092162374055157 5.754562397821415 -0.10255693422832014 -0.1432461844175662 0.8110179825627452
Ni 0.7362362873892738 7.2343541449492905 11.149344383520413 1.1951659916698385 -0.29927589375304586 0.7161563600961538
P 0.29004682140539073 5.575362824599143 7.861927553291545 0.33139514288509375 -0.33087038072987535 1.3843217941353256
P 8.390154624729291 1.738904179646813 7.90989694995278 0.02188651566044618 -0.3921677940877762 0.5842145449478132
P 1.9648572021121284 3.1919974795256087 10.538151033563496 -0.9294355379724059 0.1968832530167319 -0.16872067453958683
P 3.948098156052056 5.9733281411937575 3.893704835103475 0.5615484708088652 1.3105571015483495 -0.9293846301298124
P 7.015673319152957 4.177321408572243 10.424495181722756 0.47000331431001635 -0.24286409062222047 -0.13602112742403671
P 6.293982328480116 7.5974400188868385 10.121119914397593 0.6384424530534424 0.7171277228704875 -0.7563452736102135
P 2.365523620326652 8.554858587050882 5.779657348289446 0.3146696026002968 -0.06593568346086064 -0.47651051930091487
P 6.861132364598577 3.8681491616166634 1.6153274254683374 0.9295363252163281 -0.0423650952297722 -0.9088870243970928
Ni 5.214616700894224 2.673458238780802 0.612898025126402 0.7299819531253363 -0.35642277527768296 -0.6719974061907523
Ni 1.5116864273260227 1.0825635873633082 7.069079247435799 -1.2080428476325065 0.8985797289338137 -0.946755517308092
Ni 6.689074901545866 0.7651733064825449 9.131490483571534 0.4558208521620472 -0.33063203946682407 0.11028592744146168
Ni 2.8162643070333093 1.767234128409456 9.104769451860749 -0.3245027866406347 -1.0044251041054186 1.502751176619528
Ni 6.454160364676042 1.8840861332706769 2.6109598062155617 0.1468362157616697 -0.1988141514908576 0.7576624497597403
Ni 4.254298287847269 6.79270144563269 10.444989225652261 -0.1613035561399093 -0.6359592816202725 -0.4377984474426976
Ni 8.086890472955716 7.193792451727266 0.46050891808326627 -0.21667714781420747 0.6714857566616564 0.566920790864372
Ni 7.777898901693777 3.9667438876356327 8.137589879347843 -0.02268304341981255 -0.40428874572102635 0.01823734894363311
Ni 2.95913361177859 8.143324525863953 12.181455186813412 0.6094712626320729 0.027299716256217497 1.237674040235378
Ni 9.263875177814928 4.794075956379376 10.274083570146502 -0.3974760936745671 0.029012070961633902 0.16667716174699682
Ni 8.566367628735705 2.5440763745656954 5.7633676277509265 0.012283188242727233 0.04524035989503822 1.1139787813665458
Ni 3.8018502158357204 2.5839966690753 11.582293934674407 0.28139798503136054 0.1811013075921268 -0.43945449498888184
Ni 1.0853369592606716 3.645312794866626 12.732066169936132 -0.3562001177439156 -0.7009739959287605 -1.2507653262016976
Ni 3.0605739799723777 8.58817518495797 7.973771227925084 0.9356856326471756 -0.9923442616814845 0.4178541431102868
Ni 5.716994500842994 7.974437921234614 3.736258615395375 -0.8570379009362852 0.6960989272246464 -0.5669968955179461
Ni 3.0833481511556124 8.361129074546136 3.543232834717355 0.36548180015615767 0.17063203262968676 0.40173332628902425
Ni 3.4506347349702744 4.2847511760101735 9.22076415055565 -0.3472251679388149 0.13297925527391938 -0.377577297868111
Ni 7.362118961706325 6.3255915410823125 11.547137154827603 0.5165647070093232 -2.2029733819839286 -0.851404871020224
Ni 0.5931248772145165 -0.07277255588403943 0.10676217074993376 0.31125877714653494 -0.2079449101475322 0.2030842396211212
Ni 4.345132992824429 0.42831883312601937 1.5420390404789577 0.9500766112615252 -0.19774225858291752 0.5440693401874952
Ni 5.987818331823631 5.817856706817136 0.48527955568121495 0.6858304554191027 -0.35383367439426805 0.5513525041124698
Ni 8.093918757438287 8.735832395584692 11.060294754396407 -1.215606004691745 1.1180830333429066 0.5869669108819697
Ni 0.030585684797729818 4.963287777257267 5.764491430565363 -0.0834703499105143 -0.6503314911815444 -0.46286644615491895
Ni 8.181727144546988 8.812709903228216 2.4694329218740214 -1.2333062501849856 0.7172999867822937 0.5045136893820602
P 8.502986595407037 1.6492257991089438 3.7880095543244816 -0.4583227926482945 -0.6960014824148336 -1.5462218462086532
P 1.7256516175183698 3.1960717164171752 1.5210824667737346 -0.5203115756462651 -1.1266964860435307 0.7689621910432757
P 4.689130479728986 1.2156764046520665 8.311047579026258 0.7128884879781594 -0.9282320045826078 -0.6284979402462209
P 8.527124868077248 1.5565482020566621 12.362820158223952 -0.30922632009753837 0.44035386687469963 0.2532372063264284
P 6.15693078107002 7.863259133153666 1.5513465488367864 0.5421980913067114 -0.7293962558251953 0.14825777869954468
P 1.7247211376961276 3.235838436587186 5.961589641378013 -0.616639498245738 -0.05346994689368211 0.528259112628116
P 6.786332627431905 4.253340706670981 6.103116525719553 0.7873350371235085 -0.7565206228458132 -0.133114495300203
P 2.475600286676399 8.340812092796396 10.128286415785794 -0.9749641185318242 0.4318949374740691 -0.6913359586183642
