# total energy = -340896.8861820669 ev
CRYSTAL
PRIMVEC
9.01088389617605 0.00000000000000 0.00000000000000
0.00000000000000 9.01088389617605 0.00000000000000
0.00000000000000 0.00000000000000 13.18833941616320
PRIMCOORD
 96 1
Ni 6.235829093467122 2.0441460701155827 11.25355697461216 1.419379042849775 -1.025280607398189 0.7861145344528461
Ni 4.69745493189812 0.3015618486020292 5.937865290849924 -0.5303000543175448 -0.05260271379738038 0.7356707759799975
Ni 2.8047097349033776 1.514891797841296 4.822975645056434 -0.4230657692182133 0.1970146363882736 0.5936875174352549
Ni 3.2833228390465417 4.271636597164253 4.717653729492911 0.12402641695600576 0.5417157523536542 0.19315541054318347
Ni 5.082345831462671 4.548631171603882 2.8657071120261555 -0.6074915131978829 -0.7636382077272009 -1.2303206851941006
Ni 7.284029186709288 6.0338230957511945 2.673619394339041 -0.5813706477411148 0.17902822711318198 -0.4196713988246837
Ni 5.18768306552901 4.3614660998509365 11.266007313047528 -0.8850073895660177 1.5612502012966856 1.4618089298792114
Ni 5.609518589530857 7.896489961923573 12.336451674554551 -0.14600009301361952 -0.41803386322126074 0.3038773970807992
Ni 2.01704133101622 6.413667900270651 0.31731107167312816 0.25961559904894643 0.22192039849101777 0.06626864132024717
Ni 2.7337580342157515 1.6534521612491737 0.2191627208692466 0.3899152506081736 -0.43583181063463006 0.4229618966504974
Ni 0.4539917646767085 -0.0009344286717433135 4.848982858483489 0.3995116360473571 0.2902209826396292 -0.3414903223375667
Ni 8.544354500409597 2.3883888719150987 1.3418080345293664 0.5321489346008254 0.8206418788057543 0.46067278093770986
Ni 6.843378936896449 0.6816084969232894 4.800687223459933 -0.05809407592925478 -0.26623618968925766 0.14133842587189205
Ni 0.9381411559550613 7.4208414386194015 2.3048597793275754 0.014776386978226164 -0.7156789062391029 0.44863564726751765
Ni 7.719056644900452 3.799862753983993 3.7850794976786695 -0.3188797840269024 0.19021432563698853 -0.3643996228355724
Ni 7.41746235711599 3.7744250284263137 12.616782979342746 1.3083958322309726 -0.004580420281830822 0.12679549506071067
Ni 7.8746656008535405 8.756110274623365 6.9491468912184216 -0.04781969058644023 0.780621886769391 0.3150809791061025
Ni 6.924639088890481 0.6802532599683213 0.4733831870642843 0.08700150299222435 -0.9695087518442077 -0.4340464365994331
Ni 1.6616250330454243 6.462975457568428 9.220931319702206 1.0596436582590911 0.26161051799178814 -0.3414437853703474
Ni 0.24671710308066297 4.945894014912922 1.479850272106721 -0.20925463009789122 -1.2432211953058525 -0.5100808990571924
Ni 6.05132223249686 2.148708368157139 7.042112181540271 1.162469529878082 -0.5428202982717425 -0.032135961302596265
Ni 3.426704025399286 4.187646147315464 0.09089819353016249 0.46116411875183155 -0.8270758073565563 1.104248955673292
Ni 5.941650763222146 5.725641851756084 4.674606934404655 0.2217640754188116 0.24383776738939944 1.7967766206069122
Ni 5.319016699961592 2.937656317573589 9.2890752289326 -0.4530222063709876 -0.10000460012011164 -1.2480458703880053
P 0.2581311898549856 5.461235482277163 12.415753761453407 -0.19135949498502527 -0.7151482305466136 -0.4701784064352999
P 4.095978424290924 5.986524965587447 12.473663108626267 0.13835851730796173 1.6571922013116491 -0.13063929428683307
P 2.484985548492614 8.62680408909283 1.2692460888693147 0.680582576756602 -0.5183261697851202 0.5636182088537004
P 6.3175217678935915 7.68495945981003 5.908125769266302 -0.42534993726669973 0.5685277303401757 -1.3327495784849888
P 4.837222753763216 0.9835289787088807 12.544286813135962 -0.7283899260478681 0.22372094203486634 -0.04032492487129184
P 3.9544805126960814 6.168184387210833 8.310777068390998 0.3822803597707352 -0.3805302098488479 -0.45508783065076464
P 4.808009467805726 1.0089667042665602 3.7957754169974667 -0.6903825935661595 0.4204381017873791 -0.16497226324074815
P 0.20189516384261486 5.6373351884669365 3.509588839780159 1.1461106289040843 -0.4845601290782687 0.6411757928242054
Ni 1.2452681265211087 0.9683186065015257 2.493545888301256 0.4409002262964729 0.7464951202890111 0.447216655432804
Ni 1.8269567328443281 6.505678036887536 4.743621295030326 0.4102557619377386 -0.9925558634716583 -0.09979711209499587
Ni 5.953743369562353 5.681173139171192 9.199249330599518 0.07497182552119992 -0.5148523523039068 0.2884122115656646
Ni 8.6239025844419 2.5105494264264205 10.100158414917393 0.06407497610303804 -0.862521806868992 0.4809878383459781
Ni 2.4684685981039394 5.194909794504305 6.935853134039801 -0.8337092535126738 0.17663812961445063 0.3656478934203767
Ni 0.550645209823481 9.106309270752895 9.119960760026677 -0.8569671955993499 -0.5039290205231838 -0.2470842993511551
Ni 1.1827866568020329 1.0896051052639655 11.316848522803653 1.6428744991373962 0.6421121885955458 0.09992669569432468
Ni 4.132184156239474 7.043249355102219 1.5764289269162182 0.15090807183819818 -0.37389856346494316 -0.3606553253017918
Ni 5.74561898160425 7.832458620154933 8.109919057297832 -1.1823374724466025 0.6003615870213209 -0.3801818253704936
Ni 5.194711555056105 2.8858797780573195 4.915979682179523 -0.11963754385969075 -0.19910134371397323 -0.5327053213249278
Ni 0.8067750823400461 7.494649589537911 6.990703286091573 0.47474545698069204 -0.5003109641546223 -0.08937334565851059
Ni 4.988344289479776 4.498782961265559 7.091990127795823 0.061862798943067655 0.17693714891210818 -0.14545116248868498
Ni 8.129556476818856 7.081113089708443 9.120805079858329 0.3426519467458357 0.4233539898825935 0.018180784674084818
Ni 4.498999222481777 0.30375419668144243 10.455609855335824 0.5104547374568436 0.7631558687741438 -0.7092071824718302
Ni 8.170763249392452 6.967386722629635 4.84357632807803 -0.11519339204540807 1.0365926899768985 0.1856490748638093
Ni 7.245561722874455 6.092808342474741 7.006582265892403 -0.15682418021231703 -1.2980024048117904 -0.030928314147740277
Ni 2.46188164189329 5.174950686424157 2.5028433184218413 0.3073278175232449 0.37978613259397176 0.23258199196992205
Ni 2.2967752141946134 5.212237724453797 11.337250966377049 -0.4731282330922432 -0.05746981208169458 -0.3488444487097928
Ni 1.1830029180182515 3.208370305858877 3.6624674978784917 -0.5502325315754136 0.38515331044315604 0.278755662312507
Ni 3.559569510113415 2.5900524560386797 2.784401004523676 0.6007909612492556 -0.08369557854744296 -0.5806476535321613
Ni 1.1150608525896633 3.3182310036977816 8.13741667093999 -0.08620266124001282 0.2941185179218225 -0.23117868386449217
Ni 3.4704969216834956 2.5163073813082333 7.128561701635142 0.3872778129853266 0.7556384773511761 -0.44538474443038784
Ni 4.1974680108853795 6.9191514605289415 6.1487073614251715 0.15117700922886865 -0.9990820946259503 -0.45920905190798983
Ni 0.6808669011693408 7.321478420651093 11.445724889166955 0.7116037077284648 -0.5706990269598816 -0.3070992464522066
P 0.21328942667211745 5.555246035144068 7.810121539784783 0.3821561754880451 -0.4965442980233384 0.47556692444072296
P 8.394584597294402 1.6789799956469442 7.953320706280543 0.8587268586029339 -0.12420073775034093 -0.5659987932707349
P 1.7953285299723991 3.150096918972049 10.347716233476104 -0.21246156707096314 0.21166478220128065 0.1647496057069808
P 4.041174227747599 6.304113572488055 3.7259825159934103 -1.0742778632324983 -0.3166169561346547 0.042345554845746425
P 6.981768093508153 3.926519739615854 10.318438069153748 0.7393230280206041 1.2338844912859588 -0.3592149933108394
P 6.470012957979533 7.877026452463923 10.208790028177459 -0.8309234632374206 -1.0090937132256814 1.0505969746757906
P 2.49928582141505 8.227739068981972 5.808672642457904 -0.6474803948859946 2.413973276907701 0.9718571974717264
P 6.824555200201446 4.0408228032712445 1.6834520973806588 0.7586764928465515 -0.8171567484706314 -0.23326384852829507
Ni 5.437861249157566 2.7441385725942307 0.47586027907838496 -0.8555320058147202 0.6123123316252937 -0.047787808907240284
Ni 1.4155197689889791 0.9780053068113045 6.973941239657852 -0.2512458869280125 0.33395647585436683 -0.6592712168733356
Ni 6.891262774520787 0.7371272565685362 9.124286885439442 -0.7876512828123468 0.4206185932293014 0.5945586071862986
Ni 2.5538917785101747 1.426233710075795 9.097751634209457 0.6636199807603346 0.16056770641514928 1.0144477784487433
Ni 6.425391060366485 1.9224540815727336 2.56707109746188 -0.05011105772377821 0.4081757394802583 0.6488243105083987
Ni 4.054546379617098 7.049475875952505 10.40607432267262 0.2160657394824537 -1.698518313753946 -0.006258836425518253
Ni 8.251843183706304 6.948454855326522 0.40260809970323624 0.4268589177120584 1.078338663565433 -0.037854866064244486
Ni 7.620819987433282 3.754574050954274 8.14226993306729 -0.17918326463380752 0.5945799473425373 -0.6896284890089542
Ni 2.9753668671516578 8.409110142317067 12.320797065765547 0.7640120461268519 -0.16520391963558 0.12858575419191404
Ni 0.01032376980922193 4.9265296251773725 9.973009435018636 0.013105169923390333 -0.3958557844623247 0.8872668750241558
Ni 8.341501479596815 2.3591485533055803 5.7714288566715055 0.9125868418461832 0.2057481596065295 0.5083412906582664
Ni 3.7339211048054244 2.607632690740427 11.275502982616315 -1.1429980514170315 -0.7601821308578004 0.13550896367430856
Ni 1.1321004342508647 3.421333538529865 12.63406044834179 -0.9906972129963648 -0.32348488689908156 -0.5257615430172429
Ni 3.1596214233696642 8.189082376582947 8.124135528998982 0.05939171169475579 0.6545709831841888 -0.2729393127410461
Ni 5.581593859986666 8.010802036462971 3.536466504602492 -0.07182608080336662 -0.7837761161276566 -0.1587334814198879
Ni 2.781768024216218 8.424014144468112 3.647011128537688 1.5375675129677648 -0.29858041034791805 -0.9432287351017561
Ni 3.4203603630568824 4.371071702204634 9.36349702105213 -0.07127946427127724 -0.29093806331131183 -0.6728438133514476
Ni 7.146910564742866 5.98828208796922 11.469437030436891 0.7472931907102743 0.38151879901436225 -0.757483758090031
Ni 0.6017675591606894 9.040800144006763 0.2931925395343803 -0.6028105627824457 -0.3116426428485149 -0.15939219804980936
Ni 4.700158197100849 0.4543810348659014 1.4957157355815374 -0.6399203231505495 -0.49145248532272784 0.5433604870459287
Ni 6.079463223257268 5.670801611676722 0.46924899348091076 -1.3157561292507858 -0.495242034272147 -0.6504042534010088
Ni 8.107299593316387 8.879117852231543 11.330880271382618 -1.7755719615048386 0.350346487176616 -0.3303003671590182
Ni 0.14295226827391153 4.837700330615699 5.675008793420569 -0.07888093076761898 -0.5137035834114443 0.31049850194174267
Ni 8.012171690832353 8.628317917606358 2.701934295160825 -0.8054746841470127 0.21544764628248053 -0.2298792483267783
P 8.421680325509756 1.6306456138221506 3.57880143985403 0.4324119863198037 -0.16335529646261543 0.16653729373502288
P 1.9452696398837659 3.2398633454706687 1.5265635958982786 -0.8408219532980552 0.08861975532193771 -0.1153422589184465
P 4.661519526469843 1.0758905398021206 8.317291937529575 -0.10774799151095636 -0.9301500475409271 -0.35527709170901395
P 8.442135032210405 1.6734653346333772 12.450175338368156 -0.28152833996163773 0.8788879069318412 -0.21778400772514106
P 6.449558251278884 7.597788167906031 1.3429154721740844 -1.0514590655657698 1.7876859711595534 0.7388165206978309
P 1.7279000849323296 3.2632285677062565 5.951976335208169 0.2991180280189429 -0.9913741844587314 -0.4762374681451863
P 6.807704847104435 4.008870208574988 5.879374741658478 0.25681875303009966 0.6029203488874326 0.5179698148869659
P 2.2443498910296897 8.361550696517055 10.267095854246719 0.1489072393580855 0.6241522616830155 -0.5108573722119008
