# total energy = -340888.9388071996 ev
CRYSTAL
PRIMVEC
9.10098203734038 0.00000000000000 0.00000000000000

0.00000000000000 9.10098203734038 0.00000000000000

0.00000000000000 0.00000000000000 13.32020715301432

PRIMCOORD
 96 1
Ni 6.906908348011715 2.0153852162643844 11.262035967725767 -0.6994141076408082 0.72729000811547 0.7037767554848783
Ni 5.128722032123035 1.146004785873042 5.89460518227179 -2.2356829564018077 -2.535707041174788 0.2310899808054278
Ni 3.093078029370667 1.6666901823467712 4.858705899852892 0.05332570800633397 0.28876188159559946 -0.9979610936476299
Ni 3.9005899824280865 4.44189820467979 4.936602117026882 -2.287775049111357 0.5896737682901715 -0.4385962607536446
Ni 3.5471897406873434 3.0161292244488784 2.5832810480605604 0.817446254686592 0.21898779822525513 0.3575514895654875
Ni 5.1282942859572955 4.733329858281863 2.6362287425932607 0.7934501488823109 0.4027571395678483 -0.33267838047289156
Ni 5.561464637117256 3.1505962371892013 0.35018668490834987 -0.08382850458088144 -1.1168985261165023 -0.607135929630677
Ni 5.640406557151744 7.908189314148945 12.18801631682664 1.0141047932870277 0.2543288967287104 0.40560077966423047
Ni 1.9100504477055689 6.8830364715705725 0.32832703564263194 1.1362442776329658 0.46777802452392336 0.0033398630065103775
Ni 0.5962535823882283 0.24797719365410484 0.6800135624257436 0.7063393740057319 0.9728288173563762 -0.3206862411080219
Ni 8.270617730281458 0.2419723655657079 6.705073134363935 -0.32533222452046556 -0.5448697246016034 -0.444631411204131
Ni 8.987083456912197 2.704384178465324 1.2345154786449362 0.12284319528118198 -0.6727078019942156 -0.06230914245186688
Ni 6.914334749527526 0.8861144064539908 4.41327743570072 1.0394723255175389 -0.238932359667982 -0.32019027530820987
Ni 1.2636076785045445 8.007162496115173 2.8043166039606766 0.6653989270376282 -1.0685525307129466 -0.718208357529176
Ni 7.814458297958584 4.048298924341822 3.7324420545778216 0.9345034394136165 0.11026355884395848 -0.30884502549871967
Ni 7.8152500834143135 4.139545372377996 12.656021587645812 0.6170801853275825 -1.333364072140536 -0.3538611851980938
Ni 8.119605131811056 7.54742637776814 8.729438289814164 0.41818684385935717 -0.5690537780469748 -0.4186606981719822
Ni 7.118105742099831 0.8742776689399424 13.490572558967292 -0.08638109579940606 -0.4443817570871701 0.2572666392007957
Ni 2.247114426307978 6.524867315130952 9.010654090840871 -0.2805083833375556 0.7297384696559626 0.3831509353011466
Ni 0.14802474599780233 5.131497831709214 1.233032928636449 0.6099823979405365 0.377221457190589 -0.0858992710669811
Ni 6.678191563092794 2.2251628571215374 6.82097232311828 1.9153718392450176 1.4170627360117725 1.297927585709797
Ni 3.892326290545297 4.719714788836209 0.6778839325792979 -1.4885494311978493 -0.5495763860486536 -1.4994545081461272
Ni 6.025651135784425 5.432594728460541 4.596656767444196 0.8052473986275552 1.950111556719048 0.7072539154002013
Ni 5.780015624863186 3.0518687817437176 9.118853848611913 -0.906316178346123 0.21209569909111214 0.22099480135295488
P 0.5745786830621809 5.777840490105491 12.258946642186658 -1.167566484785015 -0.6239532582983318 1.4550330446079587
P 4.054687813881158 6.417557633423937 12.668915859297284 0.6921831371100079 0.37801901339121996 -0.1365050090389907
P 2.742235163642109 8.81551173953957 1.1770564272110255 -0.9798520427517446 0.3118758419052435 -1.5328708788230438
P 6.754002745233362 8.094067775618207 5.595299358827218 -1.336503646210782 -0.10713529762762194 0.6421373854065264
P 4.926925952698928 1.5141395178761592 12.265620392470414 0.19860434947289665 -0.2536552677004535 1.3359747702905056
P 4.617692777816309 6.493596340120749 8.299780917802615 -1.4713212402450209 0.007432030798013007 -1.6342690168565723
P 4.8546004467600214 1.332520316099788 3.3597695728249697 1.3432322231838671 0.6016057438410672 0.551122904600167
P 0.2550923415769735 5.837697650362215 3.5046399183750023 1.795141398996334 0.10256361909653948 -0.12593288995009924
Ni 1.0788122339230044 0.33076791908201975 4.7336283704996545 -0.7418517079797288 -0.2500395253247371 0.007868347004483222
Ni 1.966813273997372 6.773014697153127 4.955157199637708 0.5639329118806417 0.33820008162206916 -0.9133373468589625
Ni 6.415828446796481 5.983067639837761 9.269359522371005 -0.2420716766279121 0.22064101755796195 -0.08461731903076394
Ni 8.936873337840227 2.5064378145328687 10.216305804280669 0.7588132755347319 1.1861882136512603 -0.8590575024694754
Ni 2.5700536804587473 5.413127727428287 6.939601806547556 0.18594089507261524 -0.6255216312267162 -0.7570422996772381
Ni 0.41570374602620497 0.1932802903329989 9.007896493219192 1.8468884496616387 0.5498527796384918 1.2874932777503503
Ni 1.6789492054372088 1.3197698399678632 11.343235841456421 0.11482006786638935 -0.7012344486789988 -0.046091395041423844
Ni 4.488040184686114 7.042076136385269 1.5820009920215548 0.09619396812476982 0.041416615273573834 -0.6935172825403991
Ni 5.867121125975716 8.384434614297056 7.705873568638376 0.21364890251084495 -0.6430634967652216 -0.46081059206715475
Ni 5.6314693925824715 3.0665668680770928 4.525619960591857 0.38527029563699455 -0.7637191974767814 0.13359966246673763
Ni 1.0711583078509495 7.921476748233607 7.106690380063948 0.31815987514174243 -0.7725486228429533 -0.6403440409515294
Ni 5.25326897421111 4.574053567928671 6.873053604140803 0.5838327361283622 0.26702217592566274 1.1199195723310134
Ni 1.0703210174839708 7.419330052602655 10.998295872815063 -1.0558088578940332 0.5383452932195245 0.038006818261076485
Ni 4.989349589950087 0.7361629825139124 10.267641714856936 -0.6466396441522541 -1.2836813602034278 0.19911419922977966
Ni 8.537704256365402 7.560977740338045 4.626454293428162 0.6164952593583898 -0.602901065613723 1.0932898855586266
Ni 7.179500968356767 6.185701009628846 6.821238071799973 0.5331766045343914 0.8447981643369837 -0.288752882734535
Ni 2.643908151415615 5.630504688463996 2.4235852024256554 -1.375622723699431 0.08221950822254873 1.473580982813475
Ni 2.5800465589689927 5.5459838663104 11.461186391609864 0.0021635833102220804 -0.4302661436213944 -0.5969775010404363
Ni 1.2027312082358461 3.64581708532808 3.335952302277327 -0.3428776896033966 0.06865359661265595 0.6515087993190973
Ni 1.8929861059872537 1.4001679171623143 2.463999024203975 -1.1346689627260458 -0.497535201181698 0.41223114049655457
Ni 1.0762275549640703 3.627942756189535 7.939842530413638 1.2647410716554992 0.00668589666060784 -0.11656044759626377
Ni 3.570897799447989 2.92975180191633 7.166431047747876 0.19680586281157716 0.06912822225622933 -0.309351532821493
Ni 4.440960803508064 6.874372336468794 6.019694542901952 0.32033657107808705 1.141219876470686 0.9793743317843779
Ni 8.568975231375605 7.4652172051059855 0.2735891779014021 -0.9225269837780304 -1.149843356473639 -0.28413183902275585
P 0.5379299376405898 5.920279963296611 7.743236741166574 -0.8223285224795581 0.02005589020961062 -0.7703153626370605
P 8.842869292182373 1.9455169755329147 7.960236011438918 -1.0262347437813424 -0.04623152016371393 0.044954967444135484
P 2.077472117172302 3.8842901232187517 10.14742684031975 -1.383154513300102 -1.4216776090759644 -1.30423990108107
P 4.0406085943407675 6.588228353553837 3.9752562610016335 -0.24150243438800345 -1.1312581372722839 -1.9480431042257933
P 7.195637009885606 4.27907253124919 10.26648315981654 0.8856841039180682 -1.1200147031479808 1.65304269791965
P 6.699915607722991 7.994202697391502 10.289008090884716 0.31301381216442864 0.6221583711814381 -0.1949274148419417
P 2.8751459084177213 8.720633999585738 5.789401467857371 -0.3122108566471591 0.00032935831496072306 0.385239185288743
P 7.0930052330549715 4.3418511068080905 1.5352738188565707 0.9146156993507539 -1.236236022237271 0.5222684422623198
Ni 2.9619783800627584 1.910123255563567 0.2771067075409374 0.23797925172609338 -0.5632330576001396 -0.3739016487887367
Ni 1.6831083543253529 1.2023307650168564 7.041940531749748 -0.14001482196446208 0.7527768395326648 -0.7737033052726869
Ni 7.058612621133099 0.8886681420732757 9.048243877827089 0.8868159035296662 -0.12415368656248942 0.0961515449226086
Ni 2.7561050605907553 1.7277759752072146 9.089829906119178 0.18739074014526438 -0.12725597963689697 1.0730661023125843
Ni 6.78152411555666 2.335912710118965 2.36180591471778 -0.3167876773845641 -1.0054419754057071 0.019324925580857043
Ni 4.1037057042784095 7.153208230637187 10.3867116858271 1.287482479117073 -0.002503226037827947 -0.10763589141312431
Ni 7.670535364660752 6.221267648260939 11.599330201179095 -0.5905469149237441 0.9825043927729272 -1.3066248563734788
Ni 7.776589110817299 4.101093722372726 8.065532555872284 0.4587570519722357 -0.07487695181454847 0.24733138236495472
Ni 3.3867940295174312 8.73354829339816 12.167223302680595 -0.30389848012672177 0.43982833338853283 1.017226112524829
Ni 0.24947157493951674 5.241301182552665 9.759462888190836 -0.5792975672621701 -0.3498561778037587 1.2898669201888495
Ni 8.867032400055507 2.3579279861811537 5.476123816462956 0.41173928846180063 0.7644545329809093 -0.011668437476863774
Ni 3.5298432685192855 3.055117832406885 11.454632774291808 1.165771083447489 -0.4224936987648273 -0.08754554842115246
Ni 1.3921317498357688 3.557482951611831 12.35125517485138 -1.8944880538174729 0.04561368407405693 0.3704388870511168
Ni 3.396022425518696 8.509636827107116 7.9843991193120525 0.32640308898714104 0.08850277012809918 0.15257543223829206
Ni 5.847763336730458 7.857960993112476 3.533864082477233 0.09737718979959359 0.21853734095139785 0.4133475134891849
Ni 3.6147918368386205 8.737407109872061 3.0528580585142673 -0.6887108622906912 -0.4787795178407496 2.6738516426997307
Ni 3.783651461500817 4.646087842435586 9.09858050055233 0.7903224018866066 -0.5427218250206652 0.15016142348016076
Ni 5.280344396404171 4.713225788492125 11.372193346778735 0.1173549184731011 0.31502955704287683 -0.09491278741950104
Ni 8.151758902099488 8.458088863644429 2.569321051387641 -0.9086008606152416 3.2260402695602504 -1.3174777399275825
Ni 4.886863428835449 0.6109098042032548 1.268936303611784 0.36633232108191105 0.04207841722728882 -1.12446039762416
Ni 6.068134520926343 5.583052167013705 0.24925042107084738 0.1141945184672485 2.302356032249325 -0.732214442000281
Ni 8.552402342698777 -0.036556825500868285 11.382223539316204 -1.1007931359142074 -0.6071873516939027 -0.4109450746952793
Ni 0.3072245881000948 4.93702804299617 5.567633282886149 -0.2623006020802773 -0.029867219873077597 0.7324193589222354
Ni 7.532719190452515 6.344767977390291 2.517119637399422 -1.5217449441132116 -1.6204310825322157 -0.42055765808437895
P 8.863601329747345 1.61063723267045 3.3538148001389465 -0.40993925913858426 0.09135052398953944 -0.6185068904717799
P 1.9454168647281675 3.703753938330103 1.1457572391558482 0.47930248022375516 0.027978744601113107 1.2231269956591388
P 4.864748041968513 1.298664662130651 8.157614474078988 -0.2318389431563104 0.1326061882052168 -0.8462359252247749
P 8.91361122720982 1.7492997982279157 12.467514762502818 -0.2853826807107214 1.0779748524681112 0.16812237883395562
P 6.483803683219998 7.8668344508059995 0.9077237787078399 0.90599427623033 0.48943956865775706 1.5320139301393874
P 2.0115719047017313 3.430988399322305 5.629532703559721 -0.3383191236984367 0.1475250142985782 0.4341261407974329
P 7.2527638754674 4.151494962071942 5.907685113961157 -0.2670933954832303 -0.23528807804717541 -0.5565057661786352
P 2.5274883864765822 8.64088209213102 10.101432296225871 -0.1896201436964154 1.6567420011481082 -0.7571536284441219
