# total energy = -381172.6338283013 ev
CRYSTAL
PRIMVEC
9.18842098430090 0.00000000000000 0.00000000000000
0.00000000000000 9.18842098430090 0.00000000000000
0.00000000000000 0.00000000000000 13.44818289034936
PRIMCOORD
 96 1
Ni 0.19464566951305343 8.314050718104932 5.318755997953291 2.213881287145684 -0.32512962159135617 -0.1754453948579301
Ni 2.3781838369908392 4.6919384670109965 4.642474441071854 1.4802617372677604 -1.4932663770575445 -1.1114889250651565
Ni 7.740647315223387 4.495811624057602 1.3045141046339843 -1.1572849003533487 -0.7347354086499217 0.5466311873774006
Ni 5.713553038750195 8.476676578654576 4.631580649317085 -1.019530078067657 -1.2074568932220495 -0.05264770810270288
Ni 7.7894286414936875 2.8706096869584354 10.48519830007217 0.4384088273331869 -1.0073152811690198 0.3894370254201745
Ni 7.873897794329038 2.4313480400045826 2.445511990738368 -0.36952126033285393 -0.6843682690512795 1.570339050971831
Ni 6.11782517912328 6.27873280497476 5.745615114449497 0.31352237636973096 1.378924020158522 -1.1979746647632272
Ni 3.319675378954747 7.080514407978425 4.952952100293194 0.7668518295684923 -1.5159108539299375 -0.39668445101120714
Ni 0.6070927479126366 8.755388948169935 7.98863728079876 -0.534959150356111 0.7762715802204954 -0.6283706706397372
Ni 9.00302607838483 8.698825029443249 10.472664375196429 0.11255544020192874 1.044445353252098 0.21023781994676696
Ni 6.3472232939592805 8.997687605873425 2.4068884637130887 0.5006346660426281 -0.9706958301737734 -1.3784501658458972
Ni 6.031775617902452 6.341388646722205 1.7140916392034269 0.2160551979594924 -0.449238056738207 0.013281547600254547
Ni 6.359489835788411 7.0402875015155555 8.091260915541223 -0.46825316438812903 -0.299560000652368 0.15601248294429904
Ni 2.6640539863450687 3.5714197332877107 8.798124293523705 -2.118899079940828 1.0444381541632466 -3.174135096050527
Ni 3.4575751990083683 0.07703020731859875 4.3290509741273535 -0.17475222544564742 0.44455607788150536 -0.0019280702606482923
Ni 1.2370922289938284 6.119616921188208 5.7576914559671195 -2.1492836057699565 1.4829745082132328 1.0066527078843568
Ni 2.001559654942739 6.375247977538941 0.7122073635463935 -1.4808140102268044 1.9538936494692996 -1.0310913005426952
Ni 7.0122352526733565 0.5176168245584147 11.646879321500428 -0.16198669824986295 0.661713507766241 -0.3804990995005963
Ni 6.568884758443128 3.1384245893506866 8.167161865937874 -0.5916925984924133 -1.0913139927791786 1.5681528419537898
Ni 4.966846830296198 1.6116765816141634 1.6834436614722934 2.8346011261083826 0.4012167916639219 -3.0606779699699356
Ni 6.4244795364306855 1.3121891925664728 6.404656437297978 -0.09882497798971368 2.974260107395323 -0.6960171661441175
Ni 6.550820323060304 5.1037175472150915 9.706199386555642 -0.2272677788458602 1.3715223283778122 -0.2325987041404704
Ni 4.171102019788218 5.995591616611731 13.283832330019276 1.580936623982019 -0.376903411729538 1.2991524592558334
Ni 8.72645461092654 1.2097474885567563 6.343306270152721 1.421618730813571 1.1086370574386584 1.8229345099492025
P 5.014856329215453 6.56752487215795 3.6460444120288815 0.559898593910268 -0.20231342289336773 -0.18538219435566783
Ni 1.7003999733011148 5.794521403243301 8.032545987494538 -1.0458052097141022 0.382717961528786 1.7365837531670993
P 5.273997362329278 5.841005624302154 11.399553678752204 0.8432007379428768 -0.5284218634582254 0.3803332633466933
Ni 3.072093379264926 7.6753543966932005 11.846370045325466 -0.2954884016861556 0.14581368803442632 0.418450381933389
P 9.212035087364022 2.9083832850554794 0.5851811207216804 -0.6999059596755624 1.1764889840856256 -0.6658406425607372
P 6.057089717332605 0.3229867753607992 0.2345427116675597 0.6502546151970221 0.13438770558567179 0.5816138741001726
P 3.6840881496987916 3.22321533691564 2.0274213842553004 -1.811696475141538 1.5406695489318563 -0.31447419876003907
Ni 1.0060953289306591 3.6477663220953827 12.104386415727767 0.39404855605025685 0.1775596129874555 -1.817917002129953
Ni 4.497437974547307 4.173445067103894 9.856711233062194 1.7230803193640263 0.15077925956981772 -0.2793665564236285
Ni 2.4176572929443547 4.192566170883984 0.278678372358229 1.5928976529986374 -0.5411179708686552 1.8387105418365366
Ni 6.962489142214248 0.36675030500721406 8.917571007992725 0.05531137097779506 0.16884383038101244 -0.14419157904997104
Ni 2.4357676704314075 1.8546092403560142 13.412262563549227 -2.0728506223221976 1.153713895172639 -0.30619653213227915
Ni 8.474379473443129 6.953999041352738 1.6401542543415213 0.5183729638626556 -0.15798014819363115 -0.8041996740893312
Ni 6.7883410019239845 7.526152818999257 10.473417825705782 0.3140527949519043 -0.5926364504629212 -0.20015909555452624
Ni 0.21568899093408248 9.146126544637168 2.9572684404813376 0.6715153243480112 -0.4938197000033237 -0.31993933563966837
Ni 3.512549520928732 2.4844019819681757 4.0920668990410665 -1.2674124478400752 0.34190349861558533 -0.8641166621599375
Ni 8.3160905475327 7.867392392370219 12.670326064356278 -2.087544991109579 -0.6209481529234209 -0.10276647913596494
Ni 1.8577516802852745 7.582882129301167 9.75423553189535 0.9718574545820422 0.529170825809108 -1.7324633032408228
Ni 0.008738188224346615 1.6138909910379986 12.260331375480435 -0.8093894458203866 -1.3304818654967343 0.1040034368668596
Ni 3.3341655186285584 5.5472977519664655 2.341194011191941 1.1249134260011788 -1.6298117524161673 1.4614883133149992
Ni 8.289122532350303 0.5203255710237538 0.9099320728848713 0.20050799425351273 -0.8665504684124109 -0.040943275181581106
Ni 4.580409414784794 2.409185568924536 12.254764111289973 -0.1630249097063902 -1.6514103045225494 1.377839785955408
Ni 7.448813880740239 8.354397074038799 6.411986040606665 -0.42462668594743 -0.7341869923456195 0.8093359668746318
Ni 3.073664599229556 5.222046030867179 11.556197877331238 -1.2663822068033481 -0.8444101848699458 -1.1312938756062259
Ni 3.5635452566228683 2.6560233065258476 6.413290796366767 -0.09352516304335505 -0.5475840382089732 1.3231976731304953
Ni 7.405701810131791 5.39877611741511 3.4764224878472536 -0.0805914857008225 -0.6442402906821422 0.6923494874845432
Ni 7.106113348454797 5.7763191415477895 12.916764105650797 -2.5575061393277503 0.5128972854600651 -0.37692398055482823
Ni 3.101845485963595 2.7126974863026825 10.64507039089433 -1.4231593358278134 -2.727356042375774 2.6144254782226137
Ni 3.7859417947743776 7.005830923343841 7.433819296761994 0.48296116002226497 -1.796310736714087 -0.20973182684462588
Ni 5.702343165318331 7.753722438086946 12.548915784352513 -0.04708255531009956 -0.7967439891422343 1.5727317195737236
Ni 9.157180214914655 5.362821826645533 13.339817378232677 2.8571489295019115 0.3109841833289096 0.11281897827596053
Ni 4.656765192013312 -0.010982919436973196 11.142115260021106 0.34375674977424026 1.4734017769231333 -3.7153877927248335
P 6.888467223880561 2.954297824021894 4.4978523723274515 1.0401976337193375 0.7994958408557585 0.35749646795783596
Ni 2.5868528743987382 8.619988378586367 6.5330195953557535 -1.4882776655937013 1.2910038620067703 0.01375823012635695
P 1.9576298148790154 0.7743817320415185 11.506964480755325 0.7057909577014296 -0.6764153327527899 0.048325169467949035
Ni 8.431258214413834 4.7351699870904405 8.591949912375439 1.6560861127316637 -1.538503651628789 -1.3005279994471215
P 5.690903581365323 2.0192381766500396 10.345929405312527 0.04002796245616332 0.09378047358727074 0.21043913732429562
P 1.3609153883116991 5.142887785280696 10.22059199423927 -0.46040615753988456 -0.26316577829404997 -1.2352708301105242
P 2.047051526550247 1.2850374089671626 5.541310576943349 1.2656805527506332 -0.5303959564654607 1.8449087002274485
Ni 5.056470687226038 8.920275160247643 6.798150560018949 -1.089727365018349 -1.3188823335845932 1.195235154344877
Ni 1.0491982111182616 3.560384439851916 6.74036366247769 -0.028098043787796775 -0.32094412275509887 -0.3699174673300081
Ni 4.577009699071851 1.5521080492709043 8.524170607164383 1.6842980563895054 0.7558364522945951 0.3992959204921252
Ni 1.0572656446208657 1.996965444519844 2.0990726900107735 0.6562452855628181 0.6515231974968005 -0.5183264268954364
Ni 5.5756899723799584 1.5053481755866776 3.7670375377262486 -0.33550016619240286 0.21450893651829506 1.8027045560555728
Ni 7.0275707270649805 2.288835632686374 0.029514126598763155 -0.14965517326770356 0.840535789516204 -0.2783365724972174
Ni 7.221437218490311 4.172608920806927 6.290414044396013 1.3108844029807811 0.1702741350696358 -1.1465356322566447
Ni 0.909358715424094 1.9392345963457431 9.991758048443199 -0.04604742917736586 0.4082567292298388 -0.05724124101065626
Ni 7.616805779063824 0.5258073829003522 4.424748377236259 0.9350922220375508 2.21275051597535 -0.4616238319970695
Ni 3.8681138423982806 0.2933045006605581 13.179730278362726 0.976793458431079 -1.558766258532567 1.6492402934544244
Ni 9.177330421829472 4.234924790983077 4.505450277524836 -0.7216374378153829 0.4516278971266222 0.39658880597360735
Ni 1.3887746803161354 6.929943755578458 3.3896415283271017 -0.6495830430512942 -0.6444673190912837 0.21436649740315983
Ni 5.150743885103846 4.914592280946189 7.301193630273857 -0.47613642379094767 -0.03514620888382979 2.8944669492260795
Ni 0.9281591433166656 6.791235354490408 11.602459738605623 -0.6621343973537436 -0.9873149267876932 0.9996469659904849
Ni 2.4184199318745554 1.1021602688733974 8.38556052217938 -0.8197137105645302 -0.6815925060783551 -0.474465463846428
Ni 5.731700169920632 3.8434153671647966 2.7012284994029674 0.18980732000655698 0.10368899095023433 2.256487808962301
Ni 8.491782342525054 5.014599053431771 11.105374440427127 0.1502393279059477 0.7194147191324514 -0.8466755838653547
Ni 8.702233933577038 6.971190576755212 8.860092841391884 -0.5332424247753205 0.041419700597367375 0.11365741501685589
Ni 6.172863819989564 3.7887075094489604 11.72865810471213 0.5337710435852807 1.9858529759847157 0.2878427122154398
Ni 0.7157384736774307 2.0536855664009077 4.323684936353411 -1.737798342300491 0.4284537730030041 -0.48734746201541884
Ni 4.9490488591179025 4.20508080007595 5.221673899822925 0.14888049988520813 -0.22033814160556248 -2.2059340072741493
Ni 4.312980426068066 6.721826023421308 9.724838098241328 0.12059322290474071 -0.07435141832838163 0.5457197313067247
Ni 4.086789070107245 7.612441279162074 1.4944700041473462 -0.33440873290043693 2.066024857649616 0.4763500824636505
Ni 7.777345868081473 7.5952497437596 3.724500662262747 -0.12360989824387744 -0.8240853572696647 0.6849228560031688
Ni 1.076708343130558 8.677121979405493 13.158885426831965 2.0484647372786653 0.6270573511449523 0.8632383733200424
P 8.255933956255308 6.222031059935388 6.666990446655715 0.4099670270527262 -0.08485180363907321 0.5627700019207922
Ni 0.8475123735531638 4.705427068812617 2.2457253997620947 -0.09518403880301672 -0.07855208667329053 0.06420430259205072
P 1.9208026241290879 8.231235481021825 1.7960183559907474 -0.06568988599864171 0.9646545090756999 -0.12137972336177805
Ni 3.0486353408456233 0.8980064214691199 2.112279207292428 -1.8489761854286026 -1.8560217794214746 0.9388311202546928
P 8.43320615963314 2.0241356049608457 8.689960041011231 0.5069618938122367 -0.6802491046765832 -2.7389002955699477
P 3.0507211123776172 4.7673386484715525 6.819129562494059 0.084737389548396 -0.16613080232522354 -0.9395340598589884
P 4.133098711170028 8.645945667475726 8.879068768122611 -0.8012359634753168 0.5477444750462372 -0.7565810437701035
Ni 5.262034038388059 3.8845519272913993 0.5829253634040389 -0.481501544757603 1.1863028848522537 -1.759309476899389
