# total energy = -340887.70740078547 ev
CRYSTAL
PRIMVEC
9.10006026325252 0.00000000000000 0.00000000000000

0.00000000000000 9.10006026325252 0.00000000000000

0.00000000000000 0.00000000000000 13.31885804345690

PRIMCOORD
 96 1
Ni 6.662918640805885 1.958788006066053 11.33358926337613 -1.1246401177351342 0.49141109056183113 0.13946126345383725
Ni 4.658111629180363 0.14661653351235224 5.9101097722650335 -0.6759126820847585 0.3868654080382563 -0.583136481392286
Ni 2.7906882297619435 1.511201534157301 4.8166583419073605 -0.4358413237163268 -0.6031514910616322 -0.24827394878388206
Ni 3.817930350499477 4.376510259388428 5.1776795790356065 -0.48880142085312595 -0.683133882423546 0.2672780006902107
Ni 5.126919441995716 4.5599674775175405 2.616302861868589 0.5000111735260163 -1.6877423061843642 -0.6461380219254872
Ni 7.303508294227552 6.256673743399146 2.0623448736685175 0.6397699136156143 -0.403898195150827 1.7207156757865913
Ni 5.094650627735506 4.441684892138462 11.509664512490046 -2.084152420488262 1.6037700769367669 2.0907889519681735
Ni 5.791196552698636 8.026808396834513 12.303947816415088 -1.012022199726386 0.03887816512243627 1.2309508625789316
Ni 1.9950426467915683 6.240220834154233 0.43854101184821903 -0.7197337930347669 0.7794857162824188 0.1859709769796023
Ni 2.5731148851067362 1.703558611380178 0.26509750020865325 0.43616631115591337 -0.6704305759242648 1.5618461830094714
Ni 0.6573173844913558 8.818413552977043 4.983703601063465 0.1772222842526948 -0.08827934126338344 -0.6864572903698243
Ni 8.738032719260056 2.1617011533796924 1.3577908955330842 -0.4255142307587059 0.6751380087022631 -0.2900212079239973
Ni 6.897163296156158 0.5618695807318901 4.605447759499966 -0.2099886800504384 -0.9564915136489334 0.5645582041694664
Ni 0.6110362971917008 7.381177309938463 2.22061312454657 -0.5157499244175119 -0.3148477800493739 0.4844506000835979
Ni 7.754598289399187 4.044685656121563 4.00278351789749 0.9467439473438661 -0.4494080066571679 0.3891007251266783
Ni 7.410142802265099 3.827867616481471 12.803018790173406 2.165788031182883 -1.6121865831352362 -0.3641710517645341
Ni 8.109036542817382 8.755095332553314 6.6944712803108 0.20270628745641217 -0.47636293797945706 0.5860575116938229
Ni 6.630813627633291 0.903355718149929 0.5037374847432696 0.6134377034789887 0.16189208165352764 -0.6695376317963502
Ni 1.9260004883617279 6.549513687813573 9.229941945465418 -0.06559346963009348 -0.11489000187237634 0.7523019567787753
Ni 0.08851810774729714 4.63967490676322 1.6825447518512222 0.1613457222317544 0.4431460849078562 0.5383090406649503
Ni 6.632615439597059 1.5286918502904439 6.886169513159047 -1.5448416780316747 0.7292928974781118 0.5041380512101963
Ni 3.3202844462034116 4.317378066759312 0.49155887387907354 1.1176042939342752 -0.6900491214861407 -0.5234035843080276
Ni 6.17543750400239 5.645085982545806 4.35548001975071 -0.13893135909229623 0.6690257251569381 1.862743157305708
Ni 5.035236333233274 2.785191793266408 9.519973611233286 1.6604734431660821 -1.1817355771965454 0.4456814497352002
P 9.142466704642606 5.734048173241749 12.643965204080844 1.6887887451710075 -2.5282603550887557 0.150467898976986
P 4.193453443917929 6.102891822309667 12.824089070076985 -0.8445544237572938 0.627568486453416 -1.3207900921302673
P 2.2060639479421638 8.468225027776421 1.3286825322578066 0.47045711401798335 0.26572222616731656 -1.1338822051586923
P 6.261141873066874 7.722811778341399 5.632705350340219 1.299881109891742 0.6898735151402249 -0.4752365376844976
P 4.65007627582679 1.1044470333668694 12.88664834546143 0.25690771319948014 -0.058286394445718974 -0.8694198195404059
P 4.272724070263302 6.29654110811262 8.27842961756264 -0.8980356835048856 0.10674783238121616 1.2563649317766623
P 4.534642009360134 0.9036542001318058 3.537302687172811 0.5602001843110869 -0.27612645221977605 0.5634127777111135
P 0.433823540524899 5.736769091308249 3.6538690011560977 -0.2095634195875617 -0.39392977108420546 0.6332146289955998
Ni 1.4541532553650685 1.163151523156101 2.609018263499921 0.4717539784525359 0.1495803541657101 -0.2816982898805987
Ni 2.1122150247990317 6.622295971077297 5.012938455178623 0.5125710124688978 -0.5456431124325183 -0.5604688645914412
Ni 6.287859650469011 5.857262991370132 9.080650904194725 -0.2110402612434043 1.8652494686673295 0.7368694242737891
Ni 8.984762657510784 2.4422014158604357 10.303575264233727 -0.4185609393693243 0.6380614155649399 0.13797696559882688
Ni 2.6285342530832394 5.290593128765073 7.264305233924962 0.33483913556963624 0.3476874522872141 -1.6430986993330605
Ni 0.5191047567797098 0.4040299426997643 9.204289785138823 0.7837956565116824 -0.6043892201234752 0.21127088919697162
Ni 1.8230242046142553 1.1704588716758273 11.490218593371987 -1.0114583568031161 0.25549797733614704 -1.3563962713696511
Ni 4.44108428815054 6.45293474654352 1.6175084400196176 -0.9617938996984534 1.9552987573469423 -0.12199421701732541
Ni 5.809132771792509 8.262654662819244 7.805743358994973 -0.3947736071417394 -1.1234777219959167 0.2165773890115496
Ni 5.25262767668002 2.4382155893951305 5.010740790586452 -1.054976334690409 -0.48244873916222075 -0.6229207032687594
Ni 1.1139292963277097 7.2911595122334445 7.163667665706218 -1.046958606592255 0.5316128595916974 -0.2662804126636318
Ni 5.12044019897449 4.294209312922172 7.674006334280384 0.13698991909520922 -0.04033546639425312 -1.7887246968367132
Ni 8.412059454845227 7.45915572770376 9.258764566843412 -0.7699219838533837 -0.3309847948205525 -0.10445569391292979
Ni 4.288876677514253 0.5090246198490739 10.68630560550725 0.5654231232729231 -0.7201431126580436 -0.22903181272481846
Ni 8.000199820157452 7.27712721906107 4.278124046118352 0.2449276580194685 0.22476532413898065 0.16818022865508456
Ni 6.90220472963054 6.048309659892087 6.8118638797805025 0.4564659419452139 -0.7574130527530956 -0.27616424743624696
Ni 2.4540314944104282 5.082119844532937 2.800276963429733 -1.053892871818243 0.594625198758176 -0.02747660815371397
Ni 2.2849887719914594 5.501432428707207 11.375330330530712 0.17305812557267614 -1.4050497707112963 0.9138209713636004
Ni 0.9419927546942042 3.23520798130812 4.125929175566657 0.7609588611228248 0.2690291790533625 -1.5368185506168823
Ni 3.6165369132764913 2.8392097519377586 2.8288456931219224 0.5303712738751124 -0.9542130020274018 0.4629528352211382
Ni 1.3494297600163663 3.7314251761177637 8.215911292450098 -2.229431319065141 -0.6913971508736028 1.02176333827355
Ni 3.531342147595699 2.5069392457101634 6.869494562439811 1.7608765642761932 0.23478491315851177 0.8867385133245116
Ni 4.471451189782328 6.645391924431051 6.216324075483249 -0.5609967120704532 0.34066705510532297 -1.1192747396581626
Ni 0.6989820111383869 7.473315421722059 11.517935557408576 0.5797508527495049 -0.11689597655881159 -0.8576289975530649
P 8.857143410137635 5.653812940491532 8.165006464449482 0.9383685787959773 0.675223626437534 -0.7221256903057112
P 8.351152750433613 1.811467127876955 8.09195208937911 1.403661632114518 -0.24064291460118556 0.1425933813249157
P 1.9275747988149192 3.312312793272801 10.510444207813274 -0.6290332439244005 0.605992302944537 0.8048506774097687
P 4.080030290804771 5.9798408052689 3.8684092956722953 -0.6593938584941289 1.7493996739848452 0.15189254723865453
P 6.647767040201472 4.247435002347586 10.388762749866181 3.6663067189274665 -2.4953877727304508 -1.2382720788306933
P 6.236398808776543 7.747491142208768 10.213486486057407 0.8084936734789946 0.35204418659401304 0.09287878770860779
P 2.496283074954747 8.610495372430714 5.9812194644229955 0.6708800047568575 0.2549968693300125 0.3696595856829311
P 7.104990476098256 3.868408385666253 1.9944593329184492 -0.005261762619571583 0.2917029665017944 -2.287649836387402
Ni 5.38241273843386 3.0472553333300096 0.5546077325142793 -0.2859755770997139 -0.7752822197240326 0.043990803758653274
Ni 1.3836095869654215 1.3906257335516092 7.022061625462809 -0.4702586248539321 -1.169792031681424 0.1286968258484816
Ni 6.949679744857702 0.4812494154257763 9.335880298880602 -0.16751225605378245 1.4028771885400098 -0.42961822562475044
Ni 2.80039799423336 1.8338168762760176 9.117237697125685 -0.5948324296729756 -0.6830423511510043 0.34396320935809155
Ni 6.445044994156718 2.0022134944049483 2.822452900674715 -0.5722262622376855 0.22025046698776263 -0.8183641385151712
Ni 4.163832747240833 6.925664685401217 10.671255925579576 0.11018668285943603 -0.015135312979541677 -0.7776095823056285
Ni 8.057548400943645 7.359446365648171 -0.12343958962083247 -0.7658598979688681 1.6289722872340076 2.615794076435366
Ni 7.522082645529297 3.94321998240432 8.304081777889234 0.3123142149942428 -1.1205734038649282 -0.19734913690955688
Ni 2.9484195770750343 8.232924765417073 12.575173297312636 1.006999292590498 0.2034040848543852 0.16190236606617278
Ni 9.040473227420824 5.239887592087721 10.358089176198135 0.6202673248063124 -1.3355376827530872 -0.599498210579761
Ni 8.671766079259253 2.666235803416023 6.012838534368998 -0.689709992979167 0.32686305934269516 0.13219609725099166
Ni 3.7776352829461186 2.711390303235302 11.722460325423143 -1.0901145731544386 -0.2947438102106472 -0.2305220241170998
Ni 0.9471069886519703 3.6630928224009227 12.960847508133025 0.2274477560671502 -0.17155351600269167 -1.4760932077123674
Ni 3.1912455894042635 8.435128108017711 8.137862804219544 0.21732609425211608 0.2929484088731213 0.42038693683446954
Ni 5.395298423992929 7.728763217858087 3.4083220707603705 0.42616857651325313 1.2251895346151223 0.8169189214282123
Ni 2.856654567768785 8.425099841431487 3.300852177175986 0.8133564008879348 -0.6807288725264792 1.4116845024189946
Ni 3.4820926205860387 4.380668987001771 9.36925750050034 -0.782811181111226 1.2162320683115184 0.8051553531343811
Ni 7.20989597265542 5.961276682005836 11.672075110872681 -1.29932935115333 0.31367715678004043 -2.1274073745221553
Ni 0.5639589546050272 0.01853864309388043 0.032782967674113615 0.22673736026368696 0.29196419058298106 0.817675597088579
Ni 4.494829245009197 9.120171556606081 1.513461989166392 -0.6246245733337437 -0.023760335644391336 -0.6290594691766456
Ni 6.115422605512236 5.361382498796142 0.35014302489850646 -1.2928177752870573 1.0105854672798595 -0.0010191852931337286
Ni 7.9277815393106525 8.926995473945128 11.416085861141479 0.28012580318715624 0.28816435722091666 -0.4090470863416181
Ni 0.009692474356613022 5.369235850941253 5.877305874451946 0.4900648609465818 -0.5912485689764592 -0.04671437333740342
Ni 8.085349085536128 9.155479791047597 2.392146533503333 -0.1747303710687765 -1.194833548031084 -0.7593573209636599
P 8.817266945363736 1.299461328233283 3.895206243600112 -0.21890732269630686 1.9171590130524272 1.0036110928445556
P 1.92002174866377 3.241796425054423 1.685234729712282 -2.300316376111477 -0.47451302925491173 0.01580508535305665
P 4.71070087836529 1.0981588916145273 8.218241817924447 0.5826849956771643 -0.45338704590957396 -0.2509640940215355
P 8.478653697021262 1.6096823880557765 12.48714841284027 0.1518706928617836 1.599821376701664 0.12239839443427951
P 6.478633317178273 8.01509661907002 1.2986059225535143 -0.842865208980329 -0.06775165362367686 0.35905609913547193
P 1.809656215852764 3.413723866627506 6.060080588049329 -0.3552290120798979 0.5146780315095717 -0.109968653311359
P 6.4589589865435935 3.8589170226449894 5.855503039684311 1.415684367607007 1.211734694661797 0.9054366039546471
P 2.3005316751940645 8.44004214064617 10.355399198337073 0.3512594859091886 0.07995770877156552 -0.6369712678245546
