# total energy = -340870.1152460145 ev
CRYSTAL
PRIMVEC
9.26384638477352 0.00000000000000 0.00000000000000

0.00000000000000 9.26384638477352 0.00000000000000

0.00000000000000 0.00000000000000 13.55857558805727

PRIMCOORD
 96 1
Ni 2.305864054718345 7.511664118278927 5.780712530167024 -0.7870496446726059 0.0010582660611852743 0.378840995071883
Ni 6.996455290175755 0.08946652482764007 4.540631792397032 -0.4800496428024249 2.109568803678838 -2.5596334700833983
Ni 0.4329523550765343 2.3167861298479617 2.0054217612652536 1.5844325529504195 1.1979276135753756 0.5058792022710191
Ni 0.6120697552789556 5.172589173535412 10.013116692436723 -0.16478868647503234 0.7929631819435634 1.1579297330261993
Ni 7.658412712111208 6.176512228494341 1.8922481266291296 -0.5357423083790387 0.20043446070309998 0.04575740874077281
Ni 3.089965293943026 6.751398756330331 3.7217207232257445 -0.84980127397853 -1.4480684403646675 -1.9960407151509947
Ni 0.919188502969464 1.683528104648345 8.028860041475657 -0.7788719939578198 -0.07127123674116113 -0.5601420773796417
Ni 4.663985468050913 5.550285462856539 8.075420134437026 -1.1711444319442603 0.08568818349743952 -2.4156028420913236
Ni 8.212872458216236 8.079324845774712 0.2891552227678282 0.4476928237382742 0.83197812975418 -0.20341256949481742
Ni 6.9106628069057106 5.073642028107559 7.708755233635277 1.3461452830656044 0.10819330657849108 -1.5724776945813888
Ni 0.0036416180945312822 2.8355800665814668 4.3064204437545275 1.6656148781577056 -0.02736013718050772 1.0690037593177524
Ni 8.839877386967599 8.830094764968553 5.950940343181676 0.6328251068666649 -1.3686984857757718 -0.8836215649620847
Ni 7.808199847625012 1.0999520887109293 1.7530291873052044 -1.7781579770644602 -0.9821130708717796 1.1400842202043462
Ni 4.65946471091499 1.9188020164947224 10.02009977999627 -0.9385056185944741 -0.9978927023035395 -0.6005860443273011
Ni 6.86346350852963 0.5311352331607109 11.980574283991475 -0.004877382696959342 -1.0939290618045223 0.9895903530854311
Ni 4.696881387292024 9.530089541002571 8.414777994645412 0.31154956891407637 -0.8252063582479853 1.2684043794396993
Ni 1.0613311122771951 4.091035084152233 8.082009508516496 1.4933165135691895 -1.961746312744499 -0.3821626032459483
Ni 2.8300680778604135 1.9089452837229561 3.7478077152232006 0.24288028857213653 0.9501995099926345 0.44104292252192434
Ni 4.078955028198866 4.003584372342578 -0.03442908585175657 -1.0602859198287804 -1.2639517429849845 0.8278952179340581
Ni 8.606465508285813 1.670892217899577 13.280123358561351 -0.4932268036143312 -0.06369702393832902 -1.4181942785130544
Ni 4.6436050055528995 6.347513572699258 10.297223118812997 2.15218226747399 0.2400253356218447 1.0227634974032902
Ni 2.246927462712728 0.4661586131784101 9.782810981516565 0.49093080849130294 0.7306303853426127 -0.8586240144764825
Ni 2.4991820053585863 5.256454776714734 6.395607758655932 0.8038767435322737 -2.1478376173520495 -0.20092965517196362
Ni 8.87299563852687 1.1667166310851012 10.008547763298534 0.30079850104515937 -0.866093069160018 0.03634408584667289
P 1.1692086058178126 7.859669779279085 3.871027991486186 -0.682923823295269 0.42597702932773734 1.9558929392875155
P 4.234717344763224 7.719535571912067 7.147227172582076 0.8259648336805647 -0.9721405330401 -0.2951359034427433
P 5.812350419041212 4.33967672662799 9.317358273448315 -2.8708907045680365 -2.71499623525884 0.24981069714338267
P 6.350857821318249 6.092804110707048 12.14349477481593 -0.9924885005688326 0.23308798507206308 1.684872697946053
P 5.2972805486368895 8.688561716766444 10.611701066234607 0.11789407880602278 0.3441886951053363 -0.08633147350839325
P 5.05838447277382 1.523893500209365 4.447348562774309 -0.7795021713426511 -1.3190587112614571 -0.3742343495378071
P 3.2257825487991014 2.2444354879800166 11.824746194116328 0.8490605391577636 1.2547896168697423 0.34814819397371655
P 6.963531579394874 8.419604458718807 2.329891693618843 -0.4449021483670144 -0.3938505811068378 -0.41021770961095155
Ni 4.571254363684954 0.6267409091235479 12.61956292469167 -0.4545941788437977 0.012379861721591582 0.43676794929565427
Ni 5.674244994077406 0.595166014406172 6.386401347914784 0.09094763212416596 1.486029492989473 0.15670848057005912
Ni 5.688131500115824 8.080732950456394 0.5349167353387512 0.07009444282424057 0.11351240479855935 0.365640437221209
Ni 6.984875481938247 3.821420092996705 12.907235005620436 -0.2738183729118897 0.35382930351889386 -0.44303758435444995
Ni 3.2152032359933145 4.51682000112208 9.806456949937555 0.20115719780173746 -1.2862216101267783 -0.8082136803447306
Ni 8.278571658232558 3.540595847467269 9.110508622094052 0.4368281131096283 -1.1091255670393028 -0.6992323306473055
Ni 7.007812766095101 2.593043299008525 4.8514616370314965 -1.9290020284339422 -0.8904162192864149 -0.5396730108920125
Ni 7.017382319622578 2.37721420115457 10.763313179526643 0.18203693203251872 1.5474911998393799 0.11076158152629956
Ni 9.360746425337265 0.5268266181116992 3.595327579505682 0.20563580239838133 -1.276269641120389 -0.09026654689674132
Ni 9.058198459554266 4.041797739526353 0.6221729063700159 -0.04304720889846135 0.9416508490916751 -1.2321176291935232
Ni 1.1814646748563904 0.3158212051771599 1.2627753091461893 -1.3261492995596516 0.9979577512135202 -1.9765651229248864
Ni 2.7644985716963526 0.05221289215059072 7.067923087463671 0.041591707398857404 1.0152661605849804 0.9804174283369115
Ni 5.5026229721509585 2.8727651467937503 7.498299166803525 0.9501660856515378 0.5507513801933611 0.8788439410677832
Ni 8.513317530823304 3.9430729264166606 6.298473548005743 0.48095672799772654 0.03501456840197196 1.0102818199965116
Ni 0.8040370370863738 8.494057993762683 8.054743228848132 -0.09239284921112476 -0.4309816816311803 0.23936121967528454
Ni 0.9246430558416594 7.8271907331345245 10.43815123783278 0.5465514831794006 -0.23434396896635123 0.39018958731548287
Ni 0.624005295225519 6.105569691308076 7.379079019498105 -1.6495927916978368 1.984692894238343 1.0447114624292912
Ni 1.2908429115445887 1.2077462076322367 5.608572659216195 0.364060751438915 0.5804813031576261 0.33265215522064645
Ni 2.8320134856443144 9.135875813211465 2.737693631588171 0.2038699687472102 -1.4641684312503234 0.547068017804503
Ni 2.040742029158969 0.41932708951195374 12.232913127641302 -0.9788714240060303 0.014750418836297177 0.014742191306181061
Ni 4.48319223800036 1.1062700320853132 1.6613189588334651 0.7197566758529025 0.5309191759587825 -0.48692682953823246
Ni 4.251688711716114 8.45903138980587 4.628192743981107 0.7346001686236381 1.8915287140788326 0.8394255871711607
Ni 0.09088481974056996 4.760079348729043 2.836413812774567 0.5709921327202683 0.8882438942254444 0.5828732004285704
Ni 2.1533440844604894 4.934962244655172 12.400321025753955 -1.0070687123758526 -1.1736723405724367 0.7087955488557083
P 6.2973313157211965 1.9335037410330618 0.23398808993968465 -0.5722596865787821 -0.7971255408513691 -0.3363054357025176
P 8.344233802862519 1.667659135439665 6.171050264544873 1.8190552294994542 -0.6654236096279765 0.793426237622911
P 8.98471762840234 3.5689617457258667 11.863103150922248 0.4113299688385238 -0.03595944881374453 -0.6252712057788069
P 8.095518049614043 6.341056671626023 6.256726949732542 -0.8690570368843485 0.5379673410548154 -1.0205191814538037
P 4.2288070106388 5.2673861156909405 2.3894276564988335 0.14310631640559224 -0.059442362427033116 -0.06102410509185619
P 2.9417437485029336 2.246510589616178 8.508494772288548 0.3949792953946423 0.15740370686487085 -0.6009951068402617
P 7.8149995110220765 3.235861613889028 2.851016414154394 -0.95108242681822 -0.10083275244836182 -1.995407966663002
P 8.68253095263635 6.898314099401233 9.16342834573946 0.08764659277539098 -0.7271123448870251 -0.9250217251754262
Ni 4.6377039352750655 3.675301440732543 4.049526566736394 -0.9863829018917271 0.2838767855891563 0.31424202814457497
Ni 5.5801150488763565 6.727803739065585 3.554625016743173 0.8366163998571398 0.3096402677065054 -1.7532612138227803
Ni 7.984212932835123 7.369825363139348 3.8674614105490335 1.7176347228684223 -0.5003505591433061 1.3706196140578846
Ni 7.4106418712149145 8.130035142008404 10.312001733278036 0.6187706856561279 0.5935373650106358 0.9573497478841707
Ni 2.068329764304006 5.172654020461541 1.8428134620708818 1.1548490372183466 -1.0327589180531052 -1.3529707906278698
Ni 1.4761291071912952 2.405450405560907 13.271106856675297 1.302308488386312 2.056374993264678 0.31577903361439164
Ni 5.72770665274833 3.420323327189223 1.9413576301720685 0.9368259168992059 -0.5341191709533188 -0.6485597439931025
Ni 3.332316784584168 8.10458735542566 11.221307564705281 0.5892796181755465 0.6859032176385671 0.09060207585928913
Ni 6.276978644762954 7.32558123182548 8.468957601427062 -1.1595950365437642 -0.38047313135866734 -0.6330022558744776
Ni 7.185669356776623 5.177109930671334 10.440781243879682 1.753395939628432 1.0978286539692448 0.8631944074559843
Ni 1.6320025899147326 7.345433655067863 13.017345086189247 -0.761560756372882 -0.10255667711800401 -0.6626928409603748
Ni 5.080098929180793 3.618273201124467 11.347958243360546 -0.13277716656544228 2.170366908802817 0.7827289058100648
Ni 3.710763445479085 2.1084700115785013 6.227670894902988 -1.4050698253159541 0.6264132898030502 -0.5416802711300285
Ni 8.640797323748375 6.480597992811282 11.772043244481127 -0.00036895330364452585 0.15490742280557837 1.7664854258225382
Ni 7.49974154771759 4.960447086624279 4.265473315442043 -0.6797950478583002 0.7782125059969501 0.188709716067004
Ni 1.3048127922023176 7.416848648430218 1.8633282503444497 0.23633837368856073 -0.7175455271341965 -0.1555810518338353
Ni 1.7066506657369995 2.906235424523441 10.422843657727455 -1.504324691754235 -0.8860558854351902 0.39163968949844813
Ni 5.765957075318464 5.47184847377896 0.7382729901439227 0.23537138178960107 0.6507109860081502 0.03113400240064316
Ni 7.726437137621621 8.986097941544251 7.936743130138616 0.282518728899365 0.8991983363544191 0.02758716558964926
Ni 4.505925717532234 5.907239999662641 5.375229332999175 0.5358801195084836 0.1269291924250975 1.4559758681372021
Ni 2.6327481454932897 6.514188700546643 8.470449080728052 -0.2808853070610001 1.3502863018171714 0.5404646535553725
Ni 0.61275157438798 5.867609263950596 5.075937609292563 -0.10391859046253715 -0.16728651319622156 -1.8541320185979293
Ni 4.042603694179683 6.5294925751133315 13.178176579607655 -0.5337023951308744 0.29799985525409967 -0.8460029832783623
Ni 6.317915582844189 7.777147433855314 5.9138849568216525 0.28065365066616826 -3.194023607444338 1.262685217567735
P 2.6940006991464083 2.475040421145031 1.6345001229553981 -0.17252847832145127 0.23201712060538754 -0.6550679774252653
P 2.5604994059378345 6.227667189364353 10.88277696599738 -0.9074163533888372 0.2960972389147481 -0.6274116491605775
P 9.092697024255449 9.135329246262655 11.82063767815366 -0.703002339212699 -0.21864069929848154 1.0749514922607553
P 3.0296298611023182 8.753816252146446 0.440517212201933 1.7052180943716246 -0.5984718261977758 0.19936848133243082
P 6.68568102862083 1.246154115594401 8.908648478513166 -0.1680961535817105 1.3784758768775096 0.1159140722615165
P 0.08801858560562216 6.197809811804763 0.6335025907495929 0.5398835842409218 -1.061746563534707 -1.1592093710695712
P 5.949075530863108 4.2585161666529485 5.643390826624732 -0.5649711233371689 1.1106165497625324 2.4659848940883013
P 1.9607579777008588 3.6505391787974575 4.882063827856921 0.37846612823096754 -0.08293658889423135 0.7771529543841842
