# total energy = -340864.2069809594 ev
CRYSTAL
PRIMVEC
9.23593659089744 0.00000000000000 0.00000000000000
0.00000000000000 9.23593659089744 0.00000000000000
0.00000000000000 0.00000000000000 13.51772678355863
PRIMCOORD
 96 1
Ni 2.6275593468996834 2.4461563136705466 1.9535280734087315 1.2607440346809642 -0.34325332777526046 -0.29285276383552145
Ni 6.980170011675502 2.7267625432702425 3.9781857899166364 1.4900692102764854 -0.5192399398486413 -1.4230058409690847
Ni 0.3440617328734994 5.841212766537748 2.272505925728949 0.9557515501591154 -1.8030994775011464 1.4790957419841173
Ni 2.3201596648587817 8.986307827861067 7.593096327789336 0.4710826634171242 -0.12337232831177464 0.17387496504701666
Ni 8.416662958431127 9.312133203669706 13.570445878069975 1.7443752241870605 0.3715105228487408 -1.0540309400580041
Ni 8.245696533702013 3.886713072585474 6.184225296999209 -0.8231415052991565 0.8623937659315599 -1.6436021213320402
Ni 7.078634333108006 8.885793128475461 7.257302605472668 -1.9402338925940197 0.7664751629553639 0.35779265904201607
Ni 4.203154736680819 7.161277494929417 6.625172929718794 -1.8763916013270783 3.650190272981578 0.6656910043567503
Ni 6.785439521751205 4.460532585415422 9.6759755422286 -1.3847668520925442 2.276108668517022 -0.8350022612924844
Ni 5.680101086294936 1.630669280476382 8.093793082374708 -1.4275109279282898 -1.3962488845902148 -0.9560382281615986
Ni 4.892164852353483 2.819343573008487 3.0863406498428887 -0.9805881495868211 -0.2505845991949297 -0.2710487805865526
Ni 1.6774308281185144 1.7170437607349678 12.576000564097962 -0.2331653752772178 -0.6654187245319702 0.6610301085459712
Ni 7.300500005132358 0.3918595526162531 9.740657577899574 -1.265052432248331 -0.9837110114865188 -0.113855647070591
Ni 8.194446320811199 7.866930768581761 11.337709895881817 -0.2948967908487437 0.34715086305745374 0.5056264628302647
Ni 3.543745798213968 3.137632424448969 12.312716333827286 -1.150503101544825 -0.9627680906862646 0.6655020282743958
Ni 8.869436284534277 8.594473212273973 5.650058431313635 -0.6841602668055313 2.0906544832728384 0.3498618342307136
Ni 3.732269738658606 0.41971606137458506 9.428181825034239 0.6644674163622943 0.06641699397265335 -0.6669631862009546
Ni 5.7702345928008745 2.8343889139346246 5.770960537427514 -1.1701352739534556 -0.5440338589638695 0.8164944322962842
Ni 1.7063116022597244 3.2895543476497253 4.006072777266163 -0.8937985054950865 -1.0526410016890129 0.11714743044798535
Ni 1.302183954890747 8.494863634687484 11.905521431871708 0.22991241555755887 -0.5678337895969445 -0.14327883742771452
Ni 1.5571235163297699 4.194242057740535 6.5015129728986265 -1.2481823959658696 -2.5263903917595525 -1.3074699779825933
Ni 0.9985155912870214 6.982405108363117 6.42051473140806 1.8782805908196747 -1.9670049900402768 0.9417475225705393
Ni 8.725678929399024 5.243832379120582 8.153811893592886 0.1712984625690921 -1.3205900603043192 -0.3682120546031271
Ni 5.996598166010634 5.26097427768345 13.054000927773643 0.4281041029730692 -0.5953209392736198 -0.08193360155101373
P 8.26074187462815 0.41573814342683346 2.9460670900405637 -1.8556086031434558 -1.0653317097828041 0.40375652736664014
P 1.1374702593249195 5.900618311557339 12.948630896451345 1.0463561971215656 2.7136345790246232 1.0991658847234294
P 4.318853316043447 1.5275962266177618 0.5178017094013366 -0.07005664760776967 0.040012535837195606 -0.11871040405973103
P 1.9799724074417067 8.675546264852017 5.563963799937837 -0.0554934050816141 1.606631200534646 -1.7326008572599516
P 8.561186896314613 4.071671941453998 3.653070657642203 1.0825195344160001 -0.42022444311467627 -1.6680859654060174
P 2.7024350859347943 5.573878578012858 7.337056766286285 2.172382139460633 2.284205072371911 1.5766616507557492
P 6.245054099868229 6.322395834009097 2.8459947920241175 0.20022568712640354 0.2648727336828277 -1.3197194847739078
P 4.375478844108609 4.335348699035517 1.3776997443409473 0.24028630259271522 0.039783193435208905 -0.8925165534588694
Ni 3.4840908829027826 0.3231441833771729 11.758854756667864 -0.28465377296449684 -1.1524039181119636 1.04181794293158
Ni 0.7709319508357984 5.2623319603821255 4.621575919726463 -1.3966705455086657 1.3426946055128426 0.42115132580431985
Ni 1.7792477945824419 4.54517070956958 8.869683807638525 -0.6617389616875378 -1.0329818326971887 0.6794281514371846
Ni 2.0057960865267157 2.071334293532161 8.349142719404352 1.1458185515849622 0.4282051473273077 1.3037747885191935
Ni 0.6353373165787036 8.041914825786549 3.571072164204246 2.885418980091198 2.1182452484069136 -1.1893817808878937
Ni 6.0562715531952716 7.471798923583599 5.5214775674060235 0.6103912033431811 0.8637263687000545 -3.2564137396457853
Ni 3.919214333923152 3.463781058043006 7.29111075185703 -0.8992546435136511 -0.27513914860584227 -0.6422862522795648
Ni 4.397229475097592 6.907067572491722 3.6536257374394165 -0.49221764562352643 0.05399830859332636 -0.1875732884697157
Ni 6.737440358587832 0.553602970931101 4.880696589721203 -0.8237930228402263 -1.0047583190751213 -1.0338724628322582
Ni 6.892474792465143 5.192138841266935 4.4777603781898385 -0.6218166715713033 -1.2502012261681115 1.058813191937996
Ni 8.605916537877095 7.5718610620696465 8.149188383668008 0.9436995040905876 -0.860204471589725 1.687162008200862
Ni 0.9916717621732903 4.080667743824813 12.190150835509112 0.9733605214901301 -3.031191273364728 -1.0347566652094242
Ni 6.499892066003269 6.654307692119961 7.496728563993561 1.1841572992641607 -2.2859253974971274 1.8892576586564687
Ni 6.672262353114688 2.896629891529001 -0.010556675677455466 -0.01732255043884759 0.49308950670551854 1.0459039400754953
Ni 4.419331071682151 3.054481286107646 9.427073512627157 -0.02484379851655721 -1.1694935266043986 1.2880802606020718
Ni 8.39449671028949 5.343700562935391 11.939600191202132 -1.8195370542318792 0.8000396291743705 0.05514322083104697
Ni 2.9414334205852883 1.1446927618444034 3.980619459243854 -0.3302144923134313 -0.7573996830166569 0.53703660171043
Ni 4.979195084119592 8.137072681871258 1.3930018443080585 -0.8038350916610608 0.31829100140296795 2.1977404157197635
Ni 0.15247423221695258 0.40009616098821704 8.14128057464348 -1.8014645130008846 2.9461427803338163 -1.1853544048960551
Ni 2.235743203186041 4.23624709796894 0.6303397512164368 0.016963110216899818 1.06522372345003 0.905210346876454
Ni 4.627980118252052 6.052558706631547 8.520087901478997 -1.4424492944056773 -2.158917015094662 1.1888727024619592
Ni 5.907175826632574 0.7379402612579867 2.6364978864627995 0.3160942508619653 0.5890417911331275 -0.04848020698857457
Ni 7.613413541398493 4.911246297628743 1.442125020970948 -1.4199338869119802 0.6860279161418894 0.21676765064548473
Ni 5.285911306842793 1.6416415733064933 11.482011247690213 0.8430616412618513 0.5099991379766635 -0.4193605524524842
P 6.210391629336741 4.111210986576647 7.515275248532405 0.8040608345186216 -1.2470799069303105 1.8028999598958304
P 7.577624286586472 6.913311065718284 13.503235966517183 -1.0993800576167645 -0.5096327557761803 -0.6041549926254821
P 6.378143948085318 9.086360730410389 11.699349463531636 0.28935194977111456 -0.9575685487631961 -0.31620429407726836
P 8.119940019245115 6.26901211973465 9.906357671507706 -1.032468640506196 -0.36652258271584615 0.09618059838833114
P 8.84324316798024 2.3037289334237925 12.963148865390444 -1.1109183972736674 -0.1577207238846574 0.23633785946792846
P 3.5895929881202573 3.198367944357059 5.099211463901478 0.46856889585633493 -0.5513620171941666 -0.22036668085065272
P 0.18538187477056048 2.88741242667677 7.597503716794831 -0.3132716938115056 -0.5772792512805607 1.534190368965416
P 3.345441000776832 7.231498321854782 11.206992759809555 0.298092414967906 0.18289336649554305 0.08192460268994924
Ni 0.984984943983896 6.3075352118174735 10.490391206762585 -0.7318218345475526 -0.47484264468018866 1.8976425402860542
Ni 9.165595831580022 1.1546675735081406 10.913226243969435 0.1895682074125574 -0.9038031821162821 0.44068013986586685
Ni 5.226865963355502 7.551366518475356 12.870119892721004 0.1448649509679118 0.2141163290655667 -1.8265512807661834
Ni 0.6591549502068945 1.1849060303480263 1.8935905384337401 0.6560192855949412 -2.3835386145669273 -0.5112713198208678
Ni 7.545270800236405 2.4602965327975674 8.807069698200431 1.620563751455338 0.8847045136136183 -0.49758148103860117
Ni 2.325904417502157 7.067892938696038 8.930405473641528 1.3355250843475968 0.08917331383256256 -0.16300974019773862
Ni 7.743520182053187 1.5948430819174584 6.517517927650562 1.8219106966703782 1.2583629360432973 0.4643450875829745
Ni 8.024144883526334 7.113315275512946 3.913422478002476 -1.5039477680307904 -0.6045938799351137 0.9411461415411146
Ni 3.4729431072748835 4.905316826250855 10.358620250309924 -0.04830537197360713 1.4862907170706596 1.4498322171333096
Ni 1.1702393628276422 1.5285475281005072 6.0801113530716036 1.319878121838959 -0.050959264656686425 0.9841339579565503
Ni 6.308320266439156 0.6096410934205089 0.2306619781618931 -2.028990430604138 0.08817495447503525 -0.15367175062626437
Ni 5.08697846570831 5.128835730949105 6.137656780434644 0.9404025785068707 0.5776610601000117 -1.1945849223553877
Ni 9.260966114209424 3.2058121093579595 1.4799748132664685 0.1674631479834019 1.6238856167397193 -0.06211990925919625
Ni 4.0635812608823 0.869669655995383 6.338178202685943 0.12306585281494935 0.16279659574566802 -0.738311041816322
Ni 7.210828295462704 8.064007186434381 1.9109337804172275 1.0250486938930412 -0.11259812051440607 -1.4009684015530712
Ni 2.9381084833640423 7.114423587920028 1.4037755644985677 -1.230955233454306 -0.5727127149558008 0.20461404600208632
Ni 0.2645042975121401 7.3342573538647295 0.783580566181621 0.9623304889282137 1.7465352079528564 -1.179913179275826
Ni 3.4663301765792944 4.642711437329516 3.3174939798385887 -0.16859726158784513 0.35193722870250355 -1.3655571119333128
Ni 7.366887918316567 3.0352890095916774 11.301941883724265 -0.44425911546637686 -1.2095716255722073 1.3868890406418697
Ni 9.211655448031003 1.6581831359821912 4.290418637646088 -1.0423586459263985 0.6112604933220118 -0.912042796417255
Ni 0.011486734505731726 3.317169798459517 10.156408651637824 1.1381294104708206 1.5180880640869145 -1.918598316602115
Ni 5.545727442872976 6.852233816151343 10.485579283728505 0.4065091504111128 0.6692710083985248 0.587833372647323
Ni 3.649100128443832 5.574654396697815 12.725507289844954 -0.7120094278073158 0.7047422047219412 0.2676250996169842
Ni 3.107846528508641 5.732810577188408 5.291230282803114 -1.8568990398201053 -0.3951996389355646 -0.905740251237995
P 5.219966718621418 3.8507390990389396 11.369530468682811 2.396570508050221 1.5494059003635896 -0.5028514711882888
P 2.071297349785258 2.8203041104279585 10.53551337563591 1.0837678050008044 -0.04749881691191175 -0.05058876869114513
P 1.168345995798877 8.850086997093973 9.656929193512898 1.2576000897353439 -0.7616420032327786 2.0209271939800293
P 8.134237249296474 6.535598197384759 6.143117066226867 0.15839255314070141 -0.7210067462099196 -1.0021327085268161
P 2.569742382996909 9.381772166581355 1.44032770768413 0.33245649427007257 -0.35227738565074174 -0.10012338508616306
P 4.640457868768449 8.971013116643336 4.203472452904182 1.0153438079004513 0.6314071434732157 0.6805452957607635
P 5.299386538525565 8.239305265487841 8.510733744763225 -0.42620611461940794 0.7733137831437521 0.30601398380782785
P 2.122519854865895 6.474761082172686 3.47746225111476 1.0335153366031555 0.3243078970210092 -1.200619815695558
