# total energy = -340875.2914481074 ev
CRYSTAL
PRIMVEC
9.19159340814477 0.00000000000000 0.00000000000000
0.00000000000000 9.19159340814477 0.00000000000000
0.00000000000000 0.00000000000000 13.45282605331849
PRIMCOORD
 96 1
Ni 7.6041959150143885 6.995096604244935 4.475701112319487 1.4043974818392782 -0.655991003460167 -0.2103208665788765
Ni 7.623939457343645 5.844272361324948 0.6605915353889714 -1.960502670145385 0.6049587194737001 1.4343078962454652
Ni 2.380732954276153 2.3947225592226737 5.993193636215251 -0.3516639204364589 1.701929396318024 -0.9066383375722321
Ni 6.27381389769868 0.49028326129396205 9.654111478678372 -0.6244998748304212 -1.0823981783467875 -1.376883078469093
Ni 1.5572213474570957 5.512336353812653 10.308415964275346 -0.786632097519213 0.2570624936097896 -0.951072142405575
Ni 6.115396787808215 4.422167434836223 8.409133150167264 -1.3328282542417238 0.4396537554838816 0.09607106939366035
Ni 0.766332543447626 1.0573916974000213 10.43617727231454 1.428296657054379 0.07767456916434363 -0.3053377836764096
Ni 1.4312873281586167 4.2117259070763025 4.215201248489101 3.3126535359751204 -0.6387232175186548 -1.5527604186581192
Ni 1.5627363034149881 6.402542161349158 7.635837055663471 2.0689350893178755 -0.45302734857731014 0.3080371848854437
Ni 7.7569418118614895 7.536058634154625 10.798394983832297 0.14278878516517343 -0.7151330610379619 0.8230252914362663
Ni 2.3126324397894416 4.151043008352957 8.011709798132971 0.5186100195741262 -0.3305384513117533 0.02111569893269267
Ni 5.045486140383777 2.6631446572865722 9.724388562449796 -0.38742822252026177 -0.6495110521627783 0.08125303054422135
Ni 1.5600155918090945 4.5077411681161905 1.7769840699451809 0.9371776438116699 -0.9205940284213758 0.29750337523365533
Ni 1.1191224377553664 7.930111428939318 11.161876539423739 -0.16661776926397112 -0.45651762111875577 -0.413213816124798
Ni 5.326969492474618 3.2615633366842407 2.887393796446403 1.0269315127380507 0.7052700522009531 -0.08980529098960663
Ni 5.46695745787246 6.157411560614094 2.600632631503859 1.6987072898363 0.6403147303754908 -0.3878308572753192
Ni 3.8178661357501356 0.5817037670486221 11.208060618933784 -1.4015379009032958 1.4321846792548754 -0.5842415415310067
Ni 6.481010793036708 8.952850819737247 13.46991134426295 1.9764116280661572 0.7890777308462281 0.6780906635726838
Ni 8.671735131376932 5.744240251842039 12.114363663752052 0.7410947752090462 -0.02170216756378198 -2.253139204205042
Ni 7.424389967600562 3.634135378012942 12.407057082986638 -2.3585348934337382 -1.1669540480119966 -1.2549757647386193
Ni 6.946803973240321 7.319909126978286 8.639014897678756 -0.14246045529147722 -0.17993531230848367 -1.4081474358000134
Ni 8.074281569271895 4.9898494263619035 9.79566201493095 0.7014504213445468 0.4574617301995799 -0.3483579959916775
Ni 5.73051720310015 9.247202402396505 7.0966480840942445 1.9490993134044496 1.1345275520521751 -0.4415818257445298
Ni 8.858177409126757 9.041255563742267 5.407282876930083 -0.39022121188436665 0.028620491950170062 0.3868913761801853
P 5.582017822340626 2.7410250270052794 0.30769134196207315 1.354118531079068 -1.3579926693224935 1.7038039876329174
P 3.1634063122270146 7.285550951360614 5.971090611895343 -0.11069319018220937 0.36547382973635767 1.2385117056453252
P 3.436957319331753 0.3000181999059919 2.3867065707378767 0.6252938314866263 1.9450665380959726 -1.3403150495370724
P 3.512723622599935 5.751804933097615 8.957819795055308 0.43505765147276687 -0.7690143844374497 -0.1537601965750126
P 8.332767555018323 0.7366519696415741 1.1411988064548106 0.033450309238645615 -0.7394405274350749 0.44832351534373754
P 3.7800059630992027 4.909349452563196 2.483700858647314 -1.9351343665839256 -0.6796510660812682 -0.39544106552240926
P 4.157844787367692 0.4154057850943272 9.006465383241228 -1.4090249533089605 -0.484392750262469 -0.6787933460666632
P 5.499321057752026 7.138549800302985 0.2516630660671891 0.8833444000412981 -0.6782806680963027 0.6533967603704295
Ni 3.9879749522713346 5.956556864627642 4.538324356380684 -0.12535079219438414 -1.4241859773201149 -1.557782040242427
Ni 8.16305397700744 2.2123889236614795 9.621246017806635 -1.98185131102449 0.7884640085216291 -0.5085714043912015
Ni 3.107438700847667 8.236779746571202 3.9826824328704102 0.9078009904217657 -1.564220853889235 1.0542430560688103
Ni 6.432635437692726 4.372404148909505 4.953841359753495 -1.7280397202518303 1.3891968628394398 0.13030839330997557
Ni 3.645560528439043 5.427856420131001 11.46938129204257 0.7062483569538224 0.9927011308002711 -0.84735795464436
Ni 3.4598719613367974 3.052013393470846 0.981722825020429 -0.42181647019214447 0.49954246141971387 0.7793245081142063
Ni 4.237747307604293 3.244071734704458 12.361452073852169 -0.5015978012868457 0.49096526127366413 -3.9192564759204633
Ni 7.295321614999348 3.4883475172660496 1.2907129391105858 -0.9448467303211534 -0.9984524314617514 1.8321758260418124
Ni 6.414822129948733 2.1374590553802446 5.661312778262534 0.9005674487878039 -0.8282304897862898 0.7313019574883405
Ni 9.054620140346893 1.3260987348550777 12.57208294843331 -1.09453224260616 0.4935060254176469 0.7997521798409388
Ni 0.3617847874750632 3.5680386308575986 11.31365180402225 0.5407783281410492 -0.9371046244818894 -0.3786119097802124
Ni 3.2945887312787545 7.551500510836725 10.028718538755536 0.6667184171800001 0.7527529282732649 0.727042153770722
Ni 7.494797571996325 7.895394781184383 2.337509486956169 0.7486756728800977 1.1295270135137903 -1.6906301692551204
Ni 2.01698484248008 6.453711761045139 3.041455010289461 1.7380089156494005 -0.31499407581925104 -0.7447246586521497
Ni 7.923778421181004 3.84812486077244 7.225230201411837 1.1900659514391116 -0.30055681734799855 -0.31522753198629583
Ni 8.211842954048263 0.3388627921954087 7.942534786393797 0.8946996771531172 -0.3049595744013845 -0.09270189581111132
Ni 2.2912527938593445 1.8395503261281467 8.333393502519545 0.791267025188063 -0.9277859181841247 1.228594189421297
Ni 2.003381284450611 4.649466344640769 12.858829406826635 0.41349355214874595 0.023317591680017905 -0.5405389584367336
Ni 4.272491530139017 5.373037757909548 0.3454191556700168 0.05869468562773117 -0.8108660303659131 0.4551927316597451
Ni 1.2869793139270924 8.594691196645172 1.788458854974903 -0.6423880679647518 0.1195156735698458 0.9406074954288253
Ni 6.085616025635595 1.5605027462520418 11.749496015896527 0.23608280603432888 0.32197359246087776 1.1548145844359854
Ni 6.170629071726509 5.736767486519095 12.091050106599388 0.5270717771882342 1.29525029598795 2.9025024179360464
Ni 4.493880245475354 7.5678799300316655 7.824956844530853 -1.3110972903225355 -1.2348121453065508 0.6225782323276762
Ni 5.434777689858157 8.177990316060066 11.653617587409236 -0.3978015953347859 -1.3985160833578365 -0.8326502161205402
P 7.403828373470885 4.838417927351434 2.9951238652872045 -2.406073305334334 -0.8506582226621866 0.18006592434907698
P 6.640006973302754 0.0003382506320840827 4.9809758622256535 1.2917998755455042 1.1708405275505966 1.4190090611048658
P -0.05887858896578827 7.05167086077965 9.085581103094501 0.7885614533314419 0.05752997589566866 1.0460422654255728
P 6.9376491463502195 5.928825827752706 6.798075721808546 -0.5247696114176189 -0.971047042865605 0.11693145778243731
P 2.1642709329288663 2.393500077318674 12.576482044969056 -0.3252746318096527 -0.33622264618072417 -1.036637427171905
P 7.857571374906503 0.4090764539733191 10.988376024988437 1.5240908186375688 0.39397733649268923 1.1230732874686464
P 1.075940332605067 0.7420924736940353 6.950402482002847 -0.21722042191218716 -0.26688693589937906 -0.8057014554458382
P 0.36393470113931503 7.9567486662159395 3.706522851597588 0.2528790516560612 -0.259710729865914 -0.4246940488502557
Ni 1.22391579254859 1.8859035309542345 1.067860002967428 -0.5379873956594734 0.23963478505164537 1.082281193152949
Ni 8.989378211365024 2.2144294573659 5.78756666500657 0.49552948360557886 0.1490465931494272 -0.49091512476201904
Ni 5.733283872672359 7.220502045837271 5.5413404263545365 -2.1785263046851577 -0.08347883455094655 1.5380945891158284
Ni 4.141189620374856 5.235503947912968 6.742381100749115 0.5732439048689223 -0.30801121674351467 0.8178658587225139
Ni 5.483934330629506 8.626880156252739 3.4788332990793585 -1.3833483744784627 -2.3441295166416856 -1.8718659455425826
Ni 8.75949646385353 7.08745373335311 6.924842499456667 -1.5420137216645766 0.74377360759279 -0.5068215115796303
Ni 5.511012764382759 6.1397728931421005 10.094677412011931 -1.2053413895409437 0.7814562097452283 -2.657494798608262
Ni 3.5063630400618324 0.4058970818635939 6.499289195399817 -1.3120483413818953 -1.5857556426372172 0.23650318140119916
Ni 3.533634497273612 7.554928975123881 1.1089326374638335 -0.21303440885529762 0.6572732126067004 0.09175135897238393
Ni 2.6406528285716333 3.186743767522164 10.324814685816138 0.04455541801287165 -0.03810220618836019 1.0453048730389158
Ni 4.409142947182333 1.2968602766849835 4.3963969648043175 0.21896388696585517 -0.6132201881515439 0.007097530276729712
Ni 9.056725015204155 5.948118982012067 2.653247149660807 0.5424778273306593 0.7967650721881567 -0.2530657137455706
Ni 4.646938656493401 2.5367326751384094 7.108742382509902 -0.9730481324560338 0.6082754425517588 1.3127602798472553
Ni 1.9589858889895753 0.07846863168754928 13.13010641375807 -0.3509977476073697 0.9829887886085136 -0.7104253711496475
Ni 1.1462008715086194 6.409628879755051 5.176539877129832 0.2909635172326086 0.6659044059191369 0.7539258655354435
Ni 1.7322384747808188 0.7397945753782467 4.287051933027179 -1.11728187759785 0.8050368252786457 -0.04740111499178288
Ni -0.09844104468905752 3.882023456726954 0.16431167865012739 3.292137932520272 -0.3574010800305522 1.6761186059025066
Ni 4.302345825057742 0.8705183339261552 0.19616882174089426 -0.16488793105705796 -0.3903042585164762 0.813430962879612
Ni 8.657001007376095 4.532319488501866 4.8728284950507055 -2.7459345767089096 0.7703493011987894 0.128449742834682
Ni 6.261901592829632 1.0056154525486725 2.0226992560117827 -0.32462774225427315 1.0894563707451494 -1.284435207650317
Ni 7.6160898366969105 1.8357082401441482 3.6542447457540717 1.3948954558861137 0.5729541415426456 0.1041690159104464
Ni 3.049614387629163 2.6953244253008757 3.15912670640369 -1.5696816198934902 -0.12267684490664679 1.0777167137107182
Ni 1.6189245130326513 8.595913678549172 8.71474075793658 -0.7999018180449257 0.44845284183275025 -0.7284917417330551
Ni 8.912279127073685 7.976427867392354 13.172052249614474 -0.1284901091543142 0.47888878972510424 0.6901645640180823
P 0.5856350114872734 3.4444760426210137 9.093222074574163 0.6865027988957789 0.4330539907791767 0.7531547916973739
P 6.6356133917229645 1.8775299894915007 7.949705148298384 0.08078791798234473 1.7532614709330967 -0.5049888292462658
P 3.1868356834547953 7.8852196874420715 12.2565732372416 0.7021587602654812 -1.423995972796496 -0.8293018684735975
P 0.6040604793425927 6.043435804150978 0.39959992131900685 0.6714654449466823 0.5505220377913745 1.4779384884512223
P 0.7485348614121803 2.36973980873342 3.182978890921576 -0.5591979682988175 0.6460305498133454 0.4758955114247352
P 6.261947550795949 4.15755065638327 10.775780906926958 -1.3755106236015988 -1.3457274788018954 -2.360713132031979
P 0.9659537276181612 4.368718320010981 6.304155347060354 0.5090079777079879 -0.1735070401846367 1.3822098899986452
P 4.4513507434467385 3.344545040663999 5.097948078092557 -0.4557146656014861 0.823856271977994 0.11489822940249245
