# total energy = -340872.71791433514 ev
CRYSTAL
PRIMVEC
9.20613367352436 0.00000000000000 0.00000000000000

0.00000000000000 9.20613367352436 0.00000000000000

0.00000000000000 0.00000000000000 13.47410720145601

PRIMCOORD
 96 1
Ni 2.5828635988934456 2.3973876279678783 1.0281575564458743 0.0840881860001713 -0.12269715662162095 0.469862674967094
Ni 6.360655703183519 2.8920515913258265 12.528884804675164 -0.9192161742372427 0.3084683588855913 -0.486522137900646
Ni 8.044273391319111 7.418394407680123 2.975446271934669 0.6636634324037602 0.12917890769122267 0.46331484654624727
Ni 6.823088993279423 5.799155210867433 1.7190263186698604 -0.861278421380194 -0.1264450536998274 -0.1833235120544262
Ni 0.5465773499688221 8.04292008969971 11.96375341332036 0.4064584996788354 -0.44753804332796465 -0.4356909141813916
Ni 1.75090531763353 9.174961497394817 1.0397655701322814 -0.1410301506028539 1.7674902129379686 0.2556399022306501
Ni 1.6814082161039172 6.006191946368752 7.599746951426578 -0.20094842422504103 -1.2489159316977847 0.4623954200557714
Ni 5.916735947486351 3.8442511817761345 5.253729548195121 0.5706357778221139 0.8871943699150077 1.517834810425528
Ni 6.050804869141636 7.097882871085412 6.632278988624057 0.19772580352268526 0.43033196386232336 -0.1618637995187535
Ni 5.767670234416078 0.3798100834714544 2.5199544064716077 0.22599585411197207 -1.5153033022529259 0.4702735372522675
Ni -0.1706356837794903 5.292946756143988 5.231591559051093 1.6687320836304487 -0.9598133789333146 0.18821709270130166
Ni 8.387579314373925 4.120692957472413 3.3129191888258633 -0.25804208391423944 0.8304082141638989 -0.779167927931684
Ni 1.5375992052423355 9.426344177798526 9.945318777798315 1.3006038469903796 -0.667665868694934 -1.0894676835990593
Ni 7.655544405746466 8.975206813464556 7.415434635771026 -1.683748868754255 0.74041446131257 -0.5600101797874678
Ni 9.403789150808523 1.7571931067903357 5.900877461979011 -0.6084587622071586 1.988836998313704 1.4358605854445659
Ni 5.3203626216036755 0.7502584498220367 6.545546164020694 -0.8566499214692473 0.7392381816162817 1.856818564291157
Ni 4.218673835943691 4.639891266515409 0.45820307176859465 -0.19595739876835283 -0.5478552895924887 -0.1322014965676304
Ni 3.8602054110715143 2.4903603698340273 12.529895638129656 0.5074612020461583 1.141721241587137 0.3421863199633268
Ni 5.282350496525418 4.0219479699235166 10.079372969640056 -1.0421329030688375 0.9656402700277371 -0.1698095367283914
Ni 1.2706029224814628 5.519040187918495 3.048395673513772 0.20856326045782148 -0.5829978989318927 0.03963175545900917
Ni 5.002732604783607 6.390299452941812 11.229360813912434 0.4007668486106969 -1.3706748927758523 -0.28038111373107194
Ni 9.071650267647128 2.470613213550941 8.743751729559854 -0.45294327350393604 -1.0803970887563585 -0.7585988455310807
Ni 8.483663729351347 7.005057427354709 6.582384507082125 0.4032420496240668 0.13569074066781145 1.6528663202427858
Ni 2.2605568662730002 8.191194075291968 7.652591998744141 0.9051350135538282 0.5759785301912661 0.6648327701215131
P 2.2721842128396847 3.9336887683916055 12.775245539273548 -0.000658202409289189 0.21225099372205383 1.0237767691591528
P 5.534340781737837 0.8172146585152243 12.837603284300815 0.6119338652399525 0.2864597158249841 -2.4606449699326265
P 7.437377454885588 1.5667734421938977 5.147108713466652 -1.145394576673666 0.9043009476883072 0.16960924779212724
P 0.05256241902017803 5.916653092285163 10.536064394293646 -2.2417188781832422 0.30109417790870724 0.25793049803703966
P 6.567038803208802 7.785801988147114 10.002692322167464 0.37386719600637547 0.09322280131158783 0.592721811087876
P 9.619028551227432 0.051837896316458264 7.620159711159206 1.5089987001911367 1.2013170988728987 0.17508286931218878
P -0.09081390356853423 1.3469493873092648 1.5487542771622498 1.2284427514450973 0.6212034634673366 1.5565224568037128
P 8.995533956155958 5.793972157726464 1.1870287222700469 0.5635559881571971 0.0017758609535001675 0.24416995391783758
Ni 0.8251696784425974 3.932059282768246 10.220097005177411 0.7609786586171668 1.4451916330375045 0.6485497166907734
Ni 7.196222788761836 2.3149467027860418 7.216030705525793 -0.19790732340587205 0.4819196061316281 -0.7072942817198336
Ni 8.669240967745033 5.035451203119313 8.373780240922773 0.39899175898814515 -0.3817918501700909 -0.08371331915925583
Ni 1.4620812924264113 -0.0409415167469193 5.639412224204095 0.8774928263565275 -2.118288442940023 -0.6743335105230968
Ni 4.292092750329525 7.1737782353734145 13.729576349621077 -0.8091194799884517 -0.9259560640642375 0.07271491116622317
Ni 3.8396297027765502 8.022068197400788 2.525519514151387 0.6845569880233178 -2.2089172582721894 -3.6583165016331383
Ni 0.9494101320103197 5.673288954129736 12.568323880440547 -0.18246270671602768 -0.8840661086986709 0.5376657506539966
Ni 3.853807148313125 -0.22048229342740236 4.393825128187915 -0.5255468559032755 1.8292666228148173 1.8936249344862288
Ni 4.578477150168338 8.613276882409425 11.061998831193208 -0.4471436361030235 1.253837537369118 0.17472934262751197
Ni 2.0041936676645586 6.62622503525727 10.465392590133861 1.8456849162718405 0.826251768793364 -0.5657103154960386
Ni 3.212747250589843 4.509099728373773 10.865614512724596 -0.6562987645085729 0.7112314119907105 1.360804684849992
Ni 1.8211204975734367 7.913619945179454 3.4189600371460176 -1.675104819926012 0.7304041282644196 -0.38337873504123654
Ni 0.07860657059353535 7.691475944661565 9.112848635517729 -0.2281293555152071 -2.4575190227091355 -0.9678287930386235
Ni 6.36811267129042 7.973229659367326 0.5194358272864 -0.6317447293182926 -0.827033127044079 1.3291438634116013
Ni 4.6430121457601485 5.200296228949124 7.197908431799333 1.9757819649019583 0.8217029730804171 -1.8561199955622356
Ni 0.6150350790302015 3.59719538410112 1.2594662628284792 0.19993592380012662 0.3297452659864966 -0.2531420755094608
Ni 7.257517225373859 0.8042505813693772 0.6200864844626162 0.07538757290237984 2.260365289639836 0.9752495109827269
Ni 6.169600815377976 0.46342939373685016 9.056917692262594 -0.3360629806744084 0.15827093996117259 0.20606491951599995
Ni 4.111809038678391 0.5668575413795499 0.7703830575772008 -1.1302626061282341 -1.0889557769596472 0.32398548068458394
Ni 2.2936160915469226 1.5864469494092617 7.4494835203924685 -0.5616032353062006 0.6691447672333057 1.3189214143526446
Ni 2.4779044712554654 2.0049209522083182 5.22436934734756 1.5230204683915254 1.5934558394949525 -0.9489196148389463
Ni 4.495354971110068 7.881582600720181 8.46708808604706 1.6119428425555464 1.7102592563399577 0.06232971127715717
Ni 5.034972484179117 1.7433562881919773 10.765986656976377 0.4476244323941839 -0.2692191835769815 -0.48825480432103663
Ni 0.10645788616613272 0.9625564905987799 12.909946001684554 -0.20568053959338772 -0.24159062322643554 -0.08702412870004368
P 3.3755945454576826 5.6836734726786045 2.154347545710431 -0.6435507208142851 0.7810880277725322 1.0950354074948236
P 6.023692806086304 5.104184195571305 12.818995847340732 -0.08191740360109763 -0.23946123558825858 -0.31662698343698376
P 3.588560030910661 0.721723118532967 8.972124599980372 0.7337339639686009 -1.5619749952778519 1.2379242085729711
P 6.752054467461105 2.8324510832714203 9.286111749788217 2.1892771154437582 -0.7642038504226839 0.8238732412588585
P 5.994849989939492 4.0706668282219285 3.047681277556864 0.2561286689416105 0.05019179036304259 -0.252356603493688
P 0.9306020013406946 3.4502102571940068 4.421810853309106 0.8690328685146324 0.24632582391857577 -0.25721470291693765
P 4.177909076959305 2.650657565731976 6.416342683901823 0.1669818374716092 1.49871248777378 -1.2063148091978062
P 5.7769592230825735 7.406932771515813 3.2266448296690724 1.142227491799594 0.006816508701201164 -0.09595974062677667
Ni 7.247261592693505 2.129120898788793 3.0019093025806978 0.851478918791269 -0.41659044590651484 -0.4257466584844861
Ni 8.426475228264852 0.18368169551317876 10.210597196054561 -1.0458252643187602 1.7797906275718767 -0.14973770567918082
Ni 7.523031320646817 3.6269864319948577 0.9173645020309278 -0.30503413639306176 0.3116832662784632 0.5000422838742679
Ni 3.211292681502324 4.23027356410998 8.454234482502796 -2.0185720634842914 -3.0187579326973815 0.7953126560123465
Ni 7.290953902119859 8.792096818839575 12.042644453437973 -0.8874928749920328 -0.5972657217048165 -0.6331403241142386
Ni 4.9042822135056 2.354441015352215 8.36410551526408 -1.4771327047204754 0.34202562601574643 -0.5281482980818646
Ni 4.428610503486582 5.769833675780426 4.419466971728839 0.3041854152395213 0.6657041169828729 -1.4312467408216383
Ni 2.4488867385728135 6.674548029816672 5.428084509894595 -0.10036352612142715 1.735046490586967 0.07763086041060178
Ni 8.690332219514055 0.293723529437356 4.0294454450176636 0.5320455762537418 -0.8136158251969084 -0.9504039126939565
Ni 7.661408712763867 6.41220084445578 12.637068840866041 1.1304238142964467 0.39294323880122 0.3230855945781339
Ni 6.487424161000815 5.8747835972849405 8.724242091520171 -0.7616366039161399 1.0768340539954486 0.4411586221641822
Ni 8.759221716234958 8.055357576011343 0.7929077043267707 0.18871537249395887 -0.15552397334365473 -0.260876468039241
Ni 2.922661985097977 4.489711611295834 5.622151644569988 -1.294750730643712 -2.2008553071996615 0.5829673028042734
Ni 2.294757652096621 0.9060207043749748 12.157538840311714 0.4708713187372665 -1.640442492657136 -0.04088491113981991
Ni 2.6464779811387262 2.3714539499961047 10.074845393201818 0.5550132407935087 -0.31469119986685157 -0.1609382023806906
Ni 3.3169514752836684 3.6031057217858478 3.195424989861519 -0.08420594252495821 0.5602235813498545 0.07478490632137443
Ni 6.867287640046369 5.9219466190277155 4.539749708519825 -0.028218114305428817 0.296230936279135 -0.35130190911134984
Ni 5.382421167293319 2.5936071566474603 1.428605949919857 -0.6759530484043907 0.3196225757301979 -0.02698784144275352
Ni 8.616296494186045 3.0701534493456824 12.29262964278165 0.8374352962140093 1.417335787167501 -0.14300887159577952
Ni 5.2228144314052685 2.0053168159473262 4.31234716456655 -0.6114538402797405 -0.8728399009655483 0.3466024467531515
Ni 7.260463188082758 4.805831822227591 10.847100978325862 1.4531993338333296 -0.3933088496707549 0.24128749016371995
Ni 1.8638185445855369 7.002360030249373 1.1019244626766969 0.1609178906657164 -1.8974517644314872 -0.5902126715127771
Ni 6.334887735614121 8.982488865035615 4.949901366666243 1.09923890405321 -2.690476138630289 -1.9698306324145303
Ni 1.6139917007374642 1.2324158808673635 3.3263260809913917 -0.46887588557379245 0.23829858273872506 -2.066521080559744
P 7.184006249653372 5.082881202732582 6.636455811377267 -0.342550645281281 0.18842355228515292 0.3685748372591846
P 3.787909644968448 6.094883836173533 9.072991601293023 -0.6776448342845169 -1.0144899445405882 1.4235861389525868
P 4.176564981473371 8.09413381016722 6.216521715810613 -0.9228242033034751 -1.5603922241717645 1.2156689967191967
P 0.5972359405883745 1.9046109219703184 10.888264362889295 -0.38889477976345926 -0.6945593506516683 0.37953673558732703
P 3.819993020095047 1.4299334743655543 2.8756711180510037 -1.495410934204373 -0.09510639148754589 -1.6304923234229596
P 1.287606650991887 3.7990398603280053 7.514900463570258 -0.8227578967074927 -0.007516362981703184 0.4238532981165152
P 9.51868169645557 7.457704597576989 4.818071376669719 -0.7492906807562772 -0.41095433066666004 -1.0115773988794836
P 2.831668561926869 7.816034930447186 12.353411297759655 -1.0925740904385248 0.4435569471930296 -0.4230102333899295
