# total energy = -340854.7462468832 ev
CRYSTAL
PRIMVEC
9.39707227033519 0.00000000000000 0.00000000000000
0.00000000000000 9.39707227033519 0.00000000000000
0.00000000000000 0.00000000000000 13.75356513825362
PRIMCOORD
 96 1
Ni 8.200552432227049 9.081678308256162 1.126843340186398 3.959050467988949 -0.05578599662136843 -1.0710611560674135
Ni 1.06911430626995 6.888974867917904 1.470640866475785 0.306474211273698 -0.7861926959889493 -0.19961325035338526
Ni 8.500431801676967 9.095463813238082 11.397566089226316 0.40867530482449616 1.8602710416161317 -0.1264360548387629
Ni 4.5649379458977695 3.8017359294583732 0.8332045664137074 0.8873882310933686 -0.21936497905901575 0.7604518395794194
Ni 6.028466168392086 2.4798027915363616 7.032610056874376 -0.0889218599433888 0.8355025979676708 1.7970501859832728
Ni 6.582658503980859 7.303968372356588 4.815288166671339 -0.5281686097968388 -3.4618423111293666 -1.6614291222111321
Ni 5.70588347240071 9.327214408919138 10.162495728298765 2.0917708562654687 1.0800317349971398 1.0751345548058389
Ni 3.208780670863179 9.247733971879548 3.6757644171989123 -0.5187012937363519 -0.06958356462609307 0.42980951569995013
Ni 8.727314713935641 1.2896541947639377 13.26071984421151 -0.17473499905446682 1.4768280289958629 -0.053267601074888905
Ni 4.637962594305745 9.111523409703045 0.5704953162248555 0.8027405730453013 -0.6695237478392791 1.6212880312158722
Ni 0.0402279265692578 5.856772261422311 7.634878753770581 -0.8994914421148057 -0.6738694264024846 0.8258805014968744
Ni 2.342765287002388 1.5005057017743808 13.02948138896775 -0.7733461790435842 -3.053017368100884 0.026993240759392224
Ni 1.5868460015520771 2.455032109101228 8.852977062518276 1.783353919443103 -2.705659788349263 1.8537805487957817
Ni 2.75898041083279 2.367893058182793 2.8208563727305065 -0.21838616008551423 -1.621779111919678 -0.0711820194614645
Ni 3.739085648807753 3.989912301144091 8.582830029648314 0.2746277561870625 1.3142625754243946 1.4871823756469937
Ni 1.1504553636138486 6.774612498708657 12.33851560657506 -0.9130175016256985 1.5037940160617456 -0.8112118437411061
Ni 8.71907348157767 8.24729346956861 6.754527196494371 -0.4054290299730566 0.33195615759488634 0.19238202271226867
Ni 7.41506056042493 2.0832745340570997 3.3395719414765783 -1.8353341691651357 1.1640101348923244 -2.709363462453095
Ni 3.3956038641457633 2.6495421074793883 11.039174909742025 0.47619890159776695 -0.21081606104774017 -1.3040051593624447
Ni 2.4508504119526564 3.5681059193285205 4.920131301697433 0.09582552904175756 -0.4598441143888274 0.3717542634284307
Ni 2.9767575600870466 8.06444523784523 13.237297641643387 -2.159090564558049 -0.9864404946025398 0.08602139846714217
Ni 2.318765164491261 4.4255135850138245 1.79090718415902 -0.39625019168726594 0.7276026542598825 -0.32665454287631485
Ni 7.671891941925172 7.050933408042915 11.493964075426744 0.008894731386468553 -1.5369363071416693 0.2995504875706712
Ni 0.25340145013118875 1.5501410373670879 3.071941444553554 0.7701035037365705 0.18751723842079965 -0.17705053456152087
P 7.604975390475784 8.766058842797575 8.797151875438459 0.6247842388400595 -1.2189116720262103 -0.21238726218960197
P 0.9264113068800806 3.09042454595024 0.41105425175400734 -1.2048963315837249 -0.08569049749028468 0.6427788756452673
P 6.740689067907885 3.6665402510842204 0.6286904449246048 -0.7401208413315511 -1.235068484291731 0.4260269087290663
P 4.206618184162534 9.164532294231341 11.984044885630958 1.5090228685608527 1.4803643242838957 -0.809190185325387
P 8.905473806609276 5.385405720591986 10.326616534747115 -0.10032984467001431 -0.16233739672106234 -0.0179000202088724
P 5.37240956967856 5.697877166848839 7.777475566244092 -0.2768551028556845 -0.41753866875239704 1.1786299416880281
P 4.068791325560067 6.370867289746017 4.7574548252529825 0.49982553987777145 -0.4889083787446354 0.07103315258842606
P 1.9736200980420868 6.098267621020376 8.473117331785389 0.49224361376545545 -1.9737055419889038 -0.18318544381466517
Ni 7.211538769764792 0.8539608195862124 6.217326646937165 -0.0374871983121806 -1.8436540018847407 2.0918209927771136
Ni 2.085680184551559 5.713184997534284 4.444767246334518 0.5727705647769297 1.647750082062143 -2.2918209370459564
Ni 7.282608827146019 4.788325147281683 4.0963613958166825 -1.1695156380915859 0.3364812991587495 0.15705197995240694
Ni 1.6068805595762448 3.7589980448927482 7.214212236818205 -0.8356591781501931 2.1101509014345528 -2.174371916197152
Ni 4.89683314048293 7.570713665074229 9.196747337298156 0.42643160036665273 -2.7046174631276774 -1.4825335640210726
Ni 5.899933014238915 5.297524300966276 10.177225639041206 -3.0992373183003723 0.5214924833282439 2.1854194322605656
Ni 8.753250633329028 5.561318912999307 2.3288501024235013 0.6157046451362944 -1.8898443843978747 -0.6538320481356352
Ni 7.315197873688145 9.283677773212775 4.206637918014247 0.584541846380245 1.6374003633967027 -1.7572651927758511
Ni 3.8238472404484605 5.0585661508740865 11.51609418056132 0.43368313972274336 0.08821326391213839 -0.13017418172495646
Ni 4.8965700224601 1.911693391954253 12.95254379967738 -0.012702535168332961 -0.1967888935307127 -0.14805491866011922
Ni 3.032002947809411 7.041564527015666 10.174832204740664 -0.9311859450046092 -1.3569295181653018 3.353617379981992
Ni 5.10274178749304 4.596756432515889 5.782232804968605 2.058575600460422 -0.5168940653242841 -0.599643992129006
Ni 0.7644461888044992 4.462444078932671 12.138965018645226 -0.6694232177056729 0.7070443704925565 0.5655827887792388
Ni 3.3005806696146287 5.413700305118612 6.648019839973868 -2.1322546753121276 0.5934203798167974 1.238317587356648
Ni 0.3326450809502308 7.564145111575686 10.065106350976597 -0.41041465611310607 -1.5495246853296412 -1.388351227009693
Ni 7.229618736762212 6.630395630980282 9.296282066213626 2.441016139958106 1.514077657375941 -1.8118859654445245
Ni 6.662956486305675 3.646984943744496 9.064589732380483 0.287481215110963 -1.9707773125985157 -1.4100940180034232
Ni 5.023646630415453 6.250255867494523 2.9112721827404173 0.6055097068811637 0.33244415297489843 0.26540289515468485
Ni 8.51382262962464 3.2437659708275204 11.305691853604138 -0.4230593414603101 -0.6723504186547969 -1.1044924391426654
Ni 6.572293533295747 1.218095489626023 1.4148570265138414 -1.6222141425745675 1.593784940699597 -1.719520884147542
Ni 4.448780735889922 3.9152243709489305 3.4242254667864804 0.6439312440821556 0.417768525375016 0.18186595367229325
Ni 7.766135179460057 1.3369308652234055 9.312290918488472 0.29883006446487886 1.163472003000667 -0.14112399586824081
Ni 7.76333485193135 4.031898419930198 6.307027339749309 -0.8257370339404747 0.47494317481379494 2.39807151807578
Ni 1.6987651319778896 9.24785613381872 10.90427993767968 -3.1494406786276405 -0.2514621167038766 2.3842053016166487
P 4.554347445478803 1.9921041391459975 8.792640341054124 0.5276775290930331 -0.9079524283979653 1.0167517439915714
P 3.7906285900659884 1.5643588076722312 1.0824261988107735 -0.4681379789665034 1.5197492538394215 0.92007440847248
P 0.7487220678186459 9.082711986203 13.081235764351474 -0.03438490523777304 -1.1078135330960985 0.3580392278351834
P 9.117997992479147 3.7265499544342826 3.512591775339979 0.9020008388002209 -0.007685798680031924 -0.44755681238104206
P 6.516832012911773 8.508128003844789 1.9583564335961887 -2.52566662621965 -1.1461214275373615 1.5164662122127754
P 7.763043542691786 6.193506948213122 6.1225646910144125 0.9144948575021734 -0.6412850647085601 0.22645788135005512
P 0.6571410208504814 7.82281831923575 4.103362214638448 1.1867741680617172 0.34427791238503286 0.9516974346943997
P 1.2114611566217728 2.1887096846345657 10.908544329063998 -0.9037322196690307 0.05788787345571966 1.0417356676304188
Ni 0.5552645415318113 0.22205657595416606 8.547868222364583 -1.865979919075451 -0.10098599019677446 0.29276843165183125
Ni 8.481045641637635 2.295883293577168 5.1172067007982 2.388485159938925 -0.08576274548911682 -0.07419535236649158
Ni 8.530060770462239 4.628584316206252 0.030906970610453152 -0.19156004103160557 -0.735587729347888 0.18940777057529315
Ni 6.445855926252984 9.097596948637465 12.812257727268662 0.7641087196057162 0.06421947210070231 -0.40470680709505136
Ni 1.3660335979630143 7.3439905030437025 6.19855317600814 1.179085541168208 -0.01473910598238752 -0.5622874058574187
Ni 0.13880603353029056 5.2166155089456 5.299509902331429 -0.36590166130239565 -0.6281061041244408 -0.47994988399976696
Ni 5.066581853498202 1.436380080781455 3.4476194781378706 -0.03245117855016992 0.03670018363451099 0.49333941793279557
Ni 2.371896210958729 8.094694413398605 8.427497365162534 0.010102635651640665 1.9675888875682048 -1.850827893925361
Ni 2.363015977688167 0.7923000506428829 7.398647634043593 0.5860302580003133 -0.49504560199062486 -0.5315794352506006
Ni 2.6387918568322744 3.6458948833641944 13.059546381905143 2.0104707745333954 -0.550441048041794 0.468371178023232
Ni 0.9477699123834248 0.48178037629110515 5.640241163947605 -0.9616252353310729 -0.5971330527816942 -1.292013019997575
Ni 6.497436455800196 7.5361794245775995 7.20132509194281 -1.2313560684371503 1.0308660719057667 0.39339883828139993
Ni 8.606374394155608 6.9856143588750035 -0.07434869588715241 -1.0326398759767377 0.5130214697427552 0.8013902296649941
Ni 1.7563597877612485 4.4114931532258055 10.166098565797109 0.42734614176112207 1.3632827140768393 -1.5832709285421507
Ni 8.259970120025741 7.556768409864162 3.077800519097676 -0.1385598346854904 0.0034172532116650825 -0.9411705670211468
Ni 4.429911414824009 6.29075724886608 0.7172183831207001 -0.16633289103370064 0.4250028383399261 -1.473546530031114
Ni 4.024625086013357 7.6659154039779995 6.494901125708769 -0.5134647279277609 -0.5480584067422303 -0.6601759880757921
Ni 1.5463070318915437 9.147166504724463 1.7885269057596196 -0.7246821381789778 1.8081486098892796 -0.5341631368173768
Ni 3.7740333604831178 2.4698512920299858 6.889834700028229 -0.3107075326287552 1.2193086503543127 -1.3684452321143852
Ni 4.539575247911265 9.320448516903472 7.805959971630047 1.325932812673471 2.6297186569362583 -0.058535534342047585
Ni 6.691542380071866 1.785669256090225 11.357418977478357 1.7782415379172019 -2.0227691322847745 1.229163945881838
Ni 8.991748326881265 3.4054332017129676 8.585222524241631 -1.1707266276805515 0.9680493936898618 0.34031507108254294
Ni 3.440775590422579 0.312864243876651 9.94480409240193 2.0830309052893097 1.1664531971161782 -1.6032226890737291
Ni 5.223465974611463 7.184400025124175 11.674535396545409 -1.24724728574611 0.4284398890459331 -0.46093323368794814
P 2.8939317653285994 1.4980154776297259 5.280365247048767 -0.45399922557227623 -1.0615377899580105 -2.1710544217881447
P 6.4065855613453895 6.294751004569772 13.123101600612857 1.0773467319658092 -0.29064855709535103 1.3579972973081837
P 2.59563110401567 5.627248771863077 13.299945103172334 0.5325189163457346 1.8327676939895403 0.9742948603789413
P 3.0459763942362104 7.686457403903343 1.9227894548599453 1.8709719729734038 -0.3970492905497936 0.2995803123673421
P -0.1001774886569583 2.0067917630633394 6.950144169982874 1.0003267656663288 -0.4965561250978803 2.3850769055883245
P 5.5331746816285845 3.3085024015163045 10.981217526970049 -1.6208807684751247 2.103197095824539 0.12170419658073234
P 6.1696289876411665 2.8507710125119954 4.958297510616361 -0.5271026304261696 0.0726028110683911 -1.2796488420052672
P 5.517265438319526 8.920631284138818 5.400488961250799 -1.4858585146292476 2.2256546256315284 0.9792516901635845
