# total energy = -381169.06538238813 ev
CRYSTAL
PRIMVEC
9.24555901914660 0.00000000000000 0.00000000000000
0.00000000000000 9.24555901914660 0.00000000000000
0.00000000000000 0.00000000000000 13.53181017994653
PRIMCOORD
 96 1
Ni 0.14928433899125987 3.042685649548923 4.34809567593595 -0.5498939172890723 -0.2500454388620081 0.4259068382114342
Ni 3.241945931833716 6.285972187402095 7.291304660617807 -2.5779628645202055 0.4198207799183544 -0.6462133552481129
Ni 6.5511533036090555 4.215383076456905 12.93691095754063 2.7501966944193734 -2.671049140253929 -0.9043323151468747
Ni 4.7029753540708334 4.796512671993776 11.119967279143959 1.447200178827101 -1.0918181861091065 0.021391578301898643
Ni 4.486074545681763 3.196633448376136 12.777180986268124 -1.1237677424325099 -3.060853833426167 -0.7422941948337862
Ni 4.5193493116405135 8.432005057786961 10.577585820348714 -1.194097441196008 -0.22386620936347895 0.7369067052696278
Ni 8.589780517938687 7.1179337919583805 4.169732205548897 0.4577887745216954 0.356323016475025 0.2172885561459613
Ni 8.727770482355005 7.846030789462542 9.41985787762073 0.6688339208611062 2.771810930255039 1.1362342503306366
Ni 0.9498517242395348 1.6573588623966187 2.6828170679099155 0.9299510441562436 -0.36586849407161504 -0.45800654695945636
Ni 8.568312330509897 5.828215327890107 8.775459998968461 -0.947741278260129 -1.9287683151565813 -0.8576634503354261
Ni 1.3004525577826689 4.813506008985213 8.443713633394118 1.3270702687120242 1.253783287092415 0.019867171237572236
Ni 6.791251218914075 1.9441191127374282 8.458436261155361 1.3450376518237221 1.150420826243664 -0.5174021153089542
Ni 0.24006093307 6.579611133456522 1.8376065776579125 -0.2260624456838494 0.4938466965865172 0.10763794829565335
Ni 4.729177267582113 1.2550013909437656 4.991641114071021 0.2827688972369582 0.34675671294282867 0.778382455915911
Ni 2.5913174711365454 6.55956676207598 9.637693411999917 0.8694344748284252 -1.1746632437307962 -0.9540667062575245
Ni 6.814910603767768 8.852160229842925 11.377085343560802 0.9937383138155338 -0.8281512998089222 0.9514012436102196
Ni 9.101716351754169 0.4500673282955691 12.347695196316755 0.2578065708646657 -0.7572143064787281 -0.8523548936383192
Ni 0.6468183659342922 3.7420474504429735 1.6379034331087619 0.5307456264953956 0.60811397727323 0.22105985026293543
Ni 1.3387569077040635 1.5719946184129752 13.640064362080048 0.6168770681778408 1.33501214926692 -0.13111289148914193
Ni 1.1343560947515672 7.932347325997937 13.481417045737738 1.0317777850867587 -1.3811523952684084 -0.7442407770371957
Ni 3.3365187523372026 5.284160422960234 4.919571059020994 -0.7262947340817362 -0.46847839302505767 -0.365684403085267
Ni 8.032929759692085 4.554362242645176 10.755989046638414 -0.7442690591719698 -0.08472119159847989 0.6159807816158166
Ni 3.110991837629846 0.3695080011968273 6.750180597813225 0.5733981710585996 -0.7589662561728284 0.8787284985358416
Ni 5.549914763809996 7.000210092332718 2.1034653933216045 0.22344223445218292 1.0342650702849865 -1.2277084443822341
P 4.178955574962747 5.1233894017719335 9.112374631886773 -1.0902418427609224 3.0194932682015097 -1.991144820511274
Ni 2.2838101869498244 1.4460608626129952 4.809381565224668 0.23867036425584703 -0.19928852002411485 -0.8547964132002762
P 3.8602149368888687 0.8212506247387775 9.006664611307178 0.21835324996504973 -0.01321109937363531 0.19826342119371015
Ni 6.347769502119595 9.146649767302799 9.098463764184208 0.3029628556863298 -1.4293595511012545 0.11932798303907192
P 8.796187617140989 7.398314606758334 11.54232289418358 0.8422160054321044 -0.37546333684890176 -0.05374814025573325
P 4.952291091454451 6.625885155024608 11.924636918811766 0.583238297077473 3.3909721664813666 0.6011809975988226
P 1.6279764766736662 8.049211188659397 5.739882334990277 -0.17169364112498173 0.13039941036188513 0.25520075781070245
Ni 0.8843839226963548 5.521373723933736 11.068533311234784 -0.196013705927585 0.6098098769184143 -0.08577662944618776
Ni 4.285039116116037 7.333493994327995 5.3940503606529004 -0.26248417884599307 2.031434007048624 0.8923324624725213
Ni 6.545698423943687 4.356248409645987 7.957908522287505 0.3797010290793331 -1.3113230331800965 0.8508127459621798
Ni 9.125736313399301 -0.055176570093142814 1.4055486732609397 -0.9472615104102331 0.3628456480848912 1.3196081560070243
Ni 6.260842758706379 2.998870946609631 5.676919155313788 -0.15222010578140235 0.812759133623568 -0.147422684392759
Ni 2.354427764719463 3.520486880441453 3.401504860269254 0.5366859032392306 0.14010866722984902 1.2672746367106305
Ni 9.16439199455338 5.2053235434575225 13.464787059205369 -0.7660486169409065 0.057216301309991786 -1.813180258775916
Ni 0.6804185755612127 2.533116678774687 10.97625986119363 1.3538691340724234 1.7127707099079017 2.2397743528623617
Ni 7.135602054738922 1.693388804864317 12.952783732810975 -0.3804258230604997 -0.1305354217191171 -0.15269833096940152
Ni 7.174849451653313 5.346725119054387 1.4200549549473187 0.47456522264908585 -0.24960629444206045 1.0444983179772205
Ni 6.758521940921863 7.69541139178708 5.4323454650155405 -0.2902963159622549 -1.0144423791321047 1.009468322956281
Ni 7.63399314497853 0.5393526137471499 6.286147853018437 0.09050874481453444 0.44238709525464454 -0.08268924877011566
Ni 4.760454992849812 7.364540580626822 8.425770777518558 0.8165430261460324 -0.1590399569167132 0.6674293272040956
Ni 8.040085822168347 1.4865933921943117 10.612606147800383 -1.492504044970223 -0.047281815805099214 -1.730392022534091
Ni 3.602938773417315 7.68902271068747 0.9274053566944801 -0.9315914079731439 -1.4219835703521575 1.0663961464915763
Ni 5.273361610334554 5.538829338862915 6.419571435965731 0.625067317298117 -0.8416344218970214 -0.7284079237699972
Ni 3.1482699305294513 3.0754981375699297 1.3505015409903647 0.6998982463660784 -0.17596012971081954 -0.9395749403992527
Ni 1.7621665164417377 8.215548036218124 3.1920587459042298 -0.30592990873445375 -2.1984623814874524 0.7400064272408738
Ni 5.528918099877703 8.814133246684175 3.7897055321566624 0.7073922407502785 -0.6561552969521731 -0.39776071479452146
Ni 5.792120666511124 5.691556723934487 3.9728443336406016 1.155416222575726 -0.7073464751140076 1.0802273959477138
Ni 7.850690551074993 7.9432016119761455 -0.13073959724075704 0.5266241481278543 1.6528282679159985 2.557801301970666
Ni 1.7653284975359007 2.643638088130311 8.376162807463468 1.6509004547656665 -1.403799700354279 0.7905669137972449
Ni 5.4577827708177935 8.977187920884926 6.959058110314826 -0.28950904417426915 0.8875643516599165 -1.0797337441407469
Ni 1.660234231169381 3.1979463177193264 6.1373932845438315 -1.1677904278703628 0.5526169726471901 -1.056968425419773
Ni 3.3520512910453713 4.038432327447595 7.173645679903429 1.7291668918777379 0.5189810297602997 0.9386148904788286
P 6.681469454258839 6.482958062233191 7.698084282823111 1.4895390488046283 1.4676111383832853 -0.08808753696755152
Ni 4.45880014735492 3.1764226569380067 9.31429671053709 1.1684553151478716 -2.4463997728675224 1.010600636788511
P 3.8786690721635737 3.219072419474187 5.16506468241535 -0.03583577875168667 -0.37025865271951075 -0.19193593631378558
Ni 1.0001013360722115 5.473167380585884 6.17660832200258 0.5484201609570232 1.4540128308735605 -0.24360688232551597
P 8.735795627354227 0.6099840598549207 8.323254172932893 -2.4125727970157484 -0.15201981684513818 -0.7197715882512379
P 3.7455515172110667 7.46879350114665 3.4051448367510435 1.1776071568504687 -0.5549913864166377 -1.4341034935441432
P 2.0954041906432406 0.02365661118606621 1.478742988255558 0.0722675392161594 1.1600472935898343 -1.7157231076680064
Ni 3.5446362799091538 0.6271558361303264 2.951220261342946 0.35158987266541386 0.4382105952794517 -0.7590696145199121
Ni 0.5829602161703336 5.211712224557132 3.6697453318681994 0.06486404766323668 -0.24330014971837455 0.23710687642346903
Ni 1.870348799432382 7.886859176924014 11.151104471918583 -1.3541938644016935 2.400123258398486 0.9002185500888172
Ni 8.458918879322365 2.7897826353684194 6.661601673050516 -0.31377820113427896 0.1937933012374985 -0.036918984513536424
Ni 0.30083014165395905 0.12984000437390894 4.337053705115017 -1.9350819160794348 0.7171632040941133 2.0667709917870214
Ni 3.1391815462734214 0.15350401200697902 13.036166653553453 0.5513540467743666 -0.22603956286571394 0.07446300420558144
Ni 4.781091079990666 5.134400862248974 0.1727578881139798 -1.3766352241243454 2.9365312253859814 2.219839304501332
Ni 1.0680284562441849 0.761146171829293 9.599912360704048 1.1934500374199963 -1.3706687221282652 0.6045851381843652
Ni 2.2104744149062565 4.084373508900506 12.704407344196852 -0.8612149151321103 -1.577961086293463 0.7425965565655533
Ni 0.8453186632894351 1.1014234144667476 6.737853494325368 -0.23528602116464642 -1.3686560625736106 -0.24789393973664406
Ni 5.424803862739199 8.71509482130209 13.406722176557206 0.4729377143479919 -0.4622259843574427 -0.8347130121868399
Ni 6.67036553819425 0.3782811118993161 1.7936004916523942 -0.4023010258670362 -0.07178237204962477 0.11063996834677074
Ni 8.716925441935553 7.569320461488268 7.043238922777847 -1.0365893475427888 -0.22191371362279844 -1.245064162051862
Ni 7.787182807987843 2.507783847786364 1.6698255738216752 -0.16495529395988365 0.5807515260998772 0.4234707179661159
Ni 5.413866366732197 1.459448431690036 10.908343835692163 -0.9787431259582821 -0.5243487218301164 0.48641749400198164
Ni 6.610408089668968 6.821585897188778 10.093606707096185 -0.6790753960834562 -0.7289779373408541 -0.5589436861961664
Ni 3.937775929283409 5.272307616636501 2.5558607533116486 -1.206204508872187 0.6045697115653974 -0.49454963619081277
Ni 2.097373494658026 5.6343174696831335 0.9127215602800078 0.893207665988623 -0.46752477086253674 0.9559816638920505
Ni 2.960982646832205 6.193220741973316 12.373879543266401 -0.39649367515663975 0.9373853889471018 -0.23551330668410408
Ni 7.502188459369212 1.7709682883763669 3.9836024658077593 -0.7412978923587878 -0.5640105591961125 -0.14304615259161815
Ni 4.792333679436577 2.1874992014004238 7.383929441891644 -0.5844336029371547 -1.8108783501156167 -1.822059563543417
Ni 6.967453077664241 6.311508420683024 12.42630186140647 -0.34009472754162073 -1.2235787384845767 -0.9918503527642015
Ni 2.6317945273653325 3.9015148478468387 10.486435705696278 -1.1569593986931301 0.07222974399968851 -0.551186925068883
Ni 8.927955320515284 3.291437407848494 8.897584584561438 -1.446171994672903 -0.11956401030927793 0.5705108222084755
Ni 7.990723783976137 4.9080788294887 5.76931372217463 -0.8617535612443997 0.7994197362021845 -0.7281569841014556
P 6.518044957707893 3.100350199503 10.413417980873877 0.5076329517373322 1.257436053353654 -0.4728268998017405
Ni 2.9292056613917437 1.3419651165920006 11.252592970370706 -0.3228385115643343 1.2248977144063162 -2.0011641524204893
P 7.658651050177748 7.5504595216283485 2.2429244770240726 -0.7893677512828212 1.0043680256152379 0.1360838623411721
Ni 1.5346610521608408 8.044810302692081 7.941305347875523 0.7002126922827038 -0.04623280571529457 0.5328531597567017
P 5.157792125898776 1.5713751659763993 0.44165294527276894 -0.2134596693181743 -0.18605453783234407 0.9300675151294497
P 8.954638003081818 2.987674574957493 13.355016389220637 -0.4522287639354147 0.24058866432448242 -0.9509996372964268
P 7.640575982811992 4.306951090365061 3.5086359232294706 -0.39865494447401667 -0.6091437040893252 0.11581534190012312
Ni 5.504935120467591 3.576699877671016 2.6830195456466472 0.8009372012879754 -0.8544390298608575 0.11496842051879556
