# total energy = -340859.06527052005 ev
CRYSTAL
PRIMVEC
9.36056850538568 0.00000000000000 0.00000000000000

0.00000000000000 9.36056850538568 0.00000000000000

0.00000000000000 0.00000000000000 13.70013818839675

PRIMCOORD
 96 1
Ni 5.847725018861162 5.463941708647598 12.92321684176766 2.0334685209801497 -1.175412463191995 -1.37338997771417
Ni 7.051475412198819 6.558341940280014 10.673092485814971 -1.24655128812035 -0.3870258448755205 -0.5023506202924702
Ni 6.07189191430005 2.6188717849175696 3.8614526247371512 -2.284438785649272 -0.4573689133754575 0.5232009813789182
Ni 1.7057202419599153 6.4284546911940765 14.440493862071593 0.34392927079636254 -2.595150432043085 0.20405740216766793
Ni 7.483961760535339 7.983937808058195 12.447329281330259 -0.38198931089287763 -0.6214934839039297 -0.04245662650231398
Ni 4.876200970476878 1.9497502638444915 6.037254066467995 -0.9807416444455498 0.27845664301484946 0.08158907372740141
Ni 4.5342594016451345 4.57612922473258 4.5496238388496355 0.28121826492038665 0.39536624642041585 -1.7381608678462324
Ni 1.3249229531111835 9.663850962548382 5.067037689509 0.6709471105493671 -3.3077206174498777 -0.6878814244108604
Ni 8.258043336667555 8.777433203346092 0.7697738424892835 0.5879305603468197 0.6919561087008663 1.396467171248608
Ni 7.063166762307519 8.47953310950349 5.752660956864407 0.2630359375844051 -0.39101491143025563 -0.10970485812701107
Ni 5.9050023377684004 4.140479004228934 6.429269060657212 3.3632361340186785 -1.1540450532598125 -1.5555318107556695
Ni 2.737638678575855 4.469091123457162 8.866948320311272 -0.7174755931282095 -0.7485625443410011 1.0605080631419155
Ni 4.137689554803479 1.9424958232246008 10.397843095729803 0.5687969248411623 1.050645568525539 0.17434033471920943
Ni 1.2930408566578322 6.369614157340358 3.4168415319684455 1.132895672875707 1.3513648795933308 0.12102028313983028
Ni 3.7881565648843405 4.4997376248629966 6.641457236533168 -3.6737965995466086 -0.4425063944413282 0.7008014749066382
Ni 6.191426374578763 0.7397002078782069 0.346595643510724 0.08573703445750394 1.066591293221518 -2.5463192694729955
Ni 3.0096006369891453 0.8499124779461467 3.7962122701714085 1.6491593037048438 -1.0822932773378071 -0.05335630413395327
Ni 9.036046991018784 1.1540832166548967 2.424458392645628 -0.8168297041485159 -0.20385994144488115 0.35360356066133297
Ni 4.448647641761884 4.864706192307555 10.295284026501633 0.9763841388078022 0.08356316673463673 1.027629824356656
Ni 5.0920744021877375 7.645497091861081 12.27231005102006 0.8143727579675909 -0.8014161978069231 -0.890642476364608
Ni 0.725760449205767 7.741087217809884 12.735840724925442 0.46371748130130463 1.0025669678507572 -0.41027658787334503
Ni 8.071412321081262 3.478274943308241 7.5975354107666355 -0.8037188777981706 -0.6572798974749197 -0.299332200912278
Ni 0.5330946750805784 7.242402928745796 5.757318775770804 0.15685709033278147 -1.989813246184044 -1.7701194230307
Ni 3.1136246351941046 6.706978408155164 5.656266758077865 -0.002152013345996294 -0.4387847226153669 -1.3733226148113444
P 2.8145544702837784 2.011988684078881 8.451601172974776 1.202565112347387 -0.0462618591810171 0.7843412446025072
P 9.023251093822152 1.897714863320657 8.412679928977996 -0.6464049024336287 -1.4731508372545918 0.5955173715551422
P 6.444611032497214 5.813156439236315 4.312338106599422 1.2171409532790327 -0.967077773805212 0.3294735003823487
P 8.916128747429859 6.7600341106500546 0.7176008416078848 -0.08119518072309241 -0.6895436426046319 -0.5389497595727428
P 3.172540053596158 8.003314184939708 3.193419737785484 -0.894555438265769 0.2222793244923333 0.4982862204151096
P 3.24632005484258 2.974573389505751 12.500938193425968 -0.363071133832136 1.5334023258464817 -1.9910615167688486
P 5.002128699069637 7.748360379566859 9.965397933894868 0.558284969566245 0.015086462019477245 0.18418277473092798
P 5.448478049416553 2.479249544548167 1.6377831075972809 0.1816237557545001 -1.245843463420048 -0.12661423228784
Ni 1.7592158911762694 3.981901612562398 0.2057321917526791 0.29147053877601414 -0.5569953042205439 0.40607154865306194
Ni 4.097813532815436 0.27086583583704604 12.498690720919083 -0.6242880159299313 1.0307825110530247 0.44793193633227374
Ni 6.098569534644164 8.43122321525929 8.195258259230325 1.473260880469895 -2.9101434794210723 -0.1653810686433926
Ni 8.754059863697233 5.667066046004533 12.365429922930684 0.07151626287243167 -0.5775062796897021 1.1022393814424305
Ni 2.2538189723561355 1.3227138589353198 11.571698641315532 -1.2201524864118471 -0.6300292892890826 2.539596606037181
Ni 5.095303798334656 -0.053527475149396236 4.8207227528433725 -0.5549679893778701 -0.2881453310575231 0.3362056768998597
Ni 1.5382409496101326 7.7467503617776705 8.818997871899075 -3.982850655732341 -1.942653557779106 -1.0857658092674398
Ni 1.9821378309990993 4.35273925648266 4.656732144389116 -0.5842469408476454 2.2559702458959343 0.8376828934484412
Ni 9.443222362018291 6.86779297570319 10.525857295050526 0.03683619499174301 -0.5659437716630834 -0.8433308357628378
Ni 8.594106468455053 0.6436748154922107 12.307971008993734 0.6859466692819929 1.2161353948326539 -0.2660482420481676
Ni 4.672767734358064 6.595110253512182 0.763443289984468 -1.7312985935087604 0.3523750875708706 0.8706614052569909
Ni 1.4746078046630153 8.277700530605323 1.9525434574973628 -1.4075522254181758 0.7096362995894488 0.054170058284500264
Ni 3.2562516180654235 6.9045706495039 10.856715950728788 -1.0886798975904413 1.1931448474747515 -0.7922712980828613
Ni 5.4711867886989465 3.1001266953568374 12.342167037990619 -1.3201010364830428 -0.645195969727192 -0.9018342313153694
Ni 8.691989933696595 4.652230646977367 1.395605542227126 1.5156270041409319 0.02675618504792166 0.06721300751138747
Ni 8.69498531562997 8.676807091521805 9.092137389834924 -0.7665479251748282 0.09716404534752299 -0.9326098219353294
Ni 7.357575364084032 7.8599383565850465 3.210490606635154 -0.8338540066206542 0.06694689833419439 0.02576528188956208
Ni 2.077522024439983 1.0443211899338172 1.7089412135951467 -1.1000673134917764 1.4010972138214515 0.06924983543575816
Ni 8.156687100497008 3.279250534972612 3.45553063386539 0.8108408335549325 0.9268595497151134 -0.32319075269743053
Ni 7.188589020199021 3.0686939061934924 0.15267836137149765 1.0858581118709298 -0.011410555829786801 1.6272146811129524
Ni 3.6420661716525573 2.007692183118198 0.5105160477009165 1.3727834544784228 -0.3490041142161086 0.741630078887226
Ni 6.3931279055173444 3.468652278847277 9.948026590795005 -0.3464157846636421 -0.21651156877062067 -0.036542832121040286
Ni 3.2785578529005193 6.690559970932857 8.32057380664045 3.749790952795052 -0.10173109589291511 -0.6009380283500813
Ni 9.175790918779231 4.834546440465894 6.018251176271298 0.2864021231141713 0.24146438206121643 -1.0263663842632
P 9.316676835901776 8.667175066492298 3.5832162772302967 0.24249488020825977 -0.7951535047266628 0.4333635515997956
P 7.713773078804929 7.341540710171939 7.367592108480606 0.6608637581714359 -2.347625445610086 1.117869888890836
P 3.1078398038352755 2.682233473376975 5.0179358911661645 0.9551722806168776 -0.7270552663968446 0.5988325519713041
P 1.6394567772525537 5.539247482566331 11.28633796509152 -0.8155765484677051 -1.2808420909824199 0.22671036368049344
P 7.561532792041188 3.918240385909655 11.926874181951666 -0.48609250656239517 0.015367740705321922 -1.169202220616225
P 5.148125486616001 4.676970629633329 8.26334797086019 -0.04677582270295816 0.26385766215475204 2.4052058151277156
P 6.126950778462884 0.588643096978148 11.844057487834995 1.2456768559351965 0.1075289335216148 -1.1617174822034058
P 0.3668069831061662 1.4115362938284057 0.48173136337804506 -0.3315969744832547 0.3229364705947793 -2.026822990639174
Ni 7.503562791061856 0.8526476360740589 4.280580505707677 1.0886233333208928 0.4276924693569473 0.6575156676348095
Ni 3.5166345531925147 5.411691015047302 12.618950625259787 -0.9374424674372823 -1.0397518044311707 0.48877493849056464
Ni 5.960753884003327 0.45811184077653566 2.5311417283733113 0.10009767405455018 0.3468592999589639 2.1670548137104486
Ni 9.440507797141173 1.6927839362351556 5.901471531314436 -3.086463306464155 1.7702369224451706 3.2569554710818682
Ni 4.071847315680499 9.094119958252076 1.4136901606498724 -0.9823311004198567 -1.0368888810610788 -0.5110615178029069
Ni 3.232522576811975 2.934987545142503 2.8584106060157928 0.4919664488446689 1.7086188925230577 -1.3013610368713782
Ni 0.36531865270802083 3.185364032498416 12.018651748333394 -0.03090748821213387 0.028746990225705333 1.0964865381190534
Ni 0.2273682098801823 5.220763498500324 8.39380059828605 0.6960197372472787 1.4016309748377345 0.3455053570342308
Ni 3.355969754741158 5.558024783061172 2.436254581121997 0.12652398656687888 -0.44095421946285995 0.4204787252173275
Ni 0.8790846898066484 2.4769842869610526 3.9414340026425125 1.2934039868078306 -0.1585599319565011 -1.0876645689520494
Ni 7.170682252578568 1.0389950264335364 9.594288833486893 -0.37061937849303916 0.6066615610974196 1.5316385490778395
Ni 4.879795428796927 0.6535034124610947 8.609920212949561 -4.357234129253502 2.2777690869385805 0.6510411156540594
Ni 4.929172427854891 7.053244559653217 3.711696632864402 0.17366953390442993 0.369407360462809 -0.23220892490121944
Ni 6.568282864071399 1.174807515406429 7.35301489509047 2.644968384006477 1.229260362250386 -1.8411824004157966
Ni 8.566689363196138 5.865322887719735 3.7751687760326003 -1.296222172982916 -1.2760107310320477 0.3137560896470919
Ni 8.758449970343335 3.790992817152504 9.950904029564754 -0.1854176755792936 -0.42218439505452443 0.3474647947534467
Ni 2.6551720697226475 9.232375555614377 9.681914987720338 2.4362074057155527 2.6096486256592604 1.967510468921786
Ni 1.1538960052840608 2.0362606383077537 9.904364218831807 -0.6463000014246483 0.5119169238246668 -1.4987903921995671
Ni 1.37102375317952 3.296595668480557 7.385497940044204 -0.2890956107859344 -0.8083167815814982 -0.7045246893944963
Ni 5.558099667609506 6.423474868729842 6.947587142237715 -0.21046896212096652 0.8597321599389968 -0.7468265354865009
Ni 5.594765014587714 4.403567143664604 2.3148302220546966 -0.4749709427279368 0.6722185210626229 0.6786143972866377
Ni 6.7596877696140085 5.993553316173775 1.3524430246240584 2.327759302813778 1.262013645422007 0.1668388841358417
Ni 7.249928825853399 5.333343056352485 8.536460343147267 -0.6177926380135748 2.010932801771479 -0.025671179513859013
Ni 2.2222551352332056 9.486374582995962 7.363275950325985 0.49358752938785955 0.8942440776729373 -0.8513567913911079
P 7.570556380115477 2.974695076896795 5.601918361067352 0.021093073224873353 -0.8440813407756173 -1.4209343031520365
P 6.1590949708354055 8.087063191683141 1.1495508293669598 0.3744909456333034 0.1919865870460629 0.4227834620911041
P 0.6844990630735379 8.955134236543515 10.75981440912728 0.4357487640025205 0.7802375068467788 0.7426842311833532
P 0.12061466988843562 8.813864536110756 6.909336114948527 -0.08878327748299548 2.4625195612475204 1.503244314205863
P 1.8295324820622278 5.741398320794921 7.090588547850706 -1.250512329650627 -0.9459613035415708 -0.7259046977321691
P 3.0830062154938958 7.713782439373471 13.441219472188306 -0.15924975893467413 0.9498619241475575 -0.9474456013965811
P 1.4227876972156421 4.431470998487692 2.410580413725564 -0.44882719445303343 -0.5870216753793052 0.020452868537713165
P 3.931869373706507 8.354503995490745 6.656924639991629 1.8266217289928026 1.089805269444136 0.514990420543668
