# total energy = -340897.17463974305 ev
CRYSTAL
PRIMVEC
9.04038213691563 0.00000000000000 0.00000000000000

0.00000000000000 9.04038213691563 0.00000000000000

0.00000000000000 0.00000000000000 13.23151307321195

PRIMCOORD
 96 1
Ni 6.54075249093722 1.6921967712115076 11.387926840303383 -1.0183635685633814 0.735743538199462 0.6907764865704684
Ni 4.7007725962469875 0.34594467932409245 6.042977309142452 -0.6564165210333598 0.4942177067726908 0.1862725673804211
Ni 2.6669940340328435 1.4996908783041885 4.704305577506882 0.4442961393518993 1.2853314942123413 0.9428386987521892
Ni 3.238671626025294 4.544590957951372 4.911590686800267 1.104075406209905 -0.9429019478899567 -1.0435030439434867
Ni 4.96347705487354 4.584540405718697 2.4183365208556857 0.5098919229748381 0.49444936316752264 0.6889851989980005
Ni 7.244103245801612 6.229528302469699 2.5440629204912955 0.07781032341125954 -0.29298877519275346 0.09310530189711708
Ni 5.191159073886917 4.4430041861565215 11.646523349379024 -0.4471788602163331 -0.8314410263037874 -0.4866933733711876
Ni 5.590237693991204 7.8049775813826665 12.347343701340026 -0.1053913183533217 0.3307423397924433 0.5102333654746567
Ni 1.7547923757240595 6.558100983868992 0.4280973420749464 0.34189218576167574 -0.8585818483846375 -0.6783536874260834
Ni 2.880473613027557 1.5193175474833838 0.34908169185526744 -0.29132038635139507 0.034155562835786336 0.46427129692224556
Ni 0.6077116503440654 9.056021794968018 4.645306236927763 -0.3089607251409776 -0.026522471770560774 0.09860360600752696
Ni 8.746415834866724 2.2045332961877264 1.3191517389631986 -0.036837480543323656 0.690035751749702 0.8574078826811943
Ni 6.821004330898096 0.6922030599013024 4.994698013883375 0.28016719794805295 0.2890884116970828 -1.08840967464819
Ni 0.745061269032504 7.614578097466021 2.4049865888534203 0.3178423439013236 -0.801044159179485 0.4597338140632082
Ni 7.599995961406121 4.088169195238315 3.748447914837741 0.37701705448926687 -0.6583546185963371 -0.23261027410469617
Ni 7.7479870136693325 3.741289740422224 12.675379384052425 -0.530896293140647 -0.3493985214410499 -0.6772560834865304
Ni 8.09147632526009 8.878649501418586 6.868120993462874 -0.12596014364360889 -0.5205763992718776 0.25468987961255496
Ni 6.979319499330189 0.652152359856313 0.4238176252672858 -0.6866339251570046 -0.23641267856992187 0.24137645033310046
Ni 1.7153039874353786 6.536259421115911 8.954770421342927 1.153140539167672 0.08105119894606042 1.2771584714832456
Ni -0.025837411568005945 4.8578944342637636 1.3686812794662193 0.20729776348183654 -0.11690934629525028 0.39242413307295637
Ni 6.298560658919418 2.1521262021150425 6.968866105699648 0.8777144554490304 0.06623650253073109 -0.10001437031212453
Ni 3.356142348878572 4.301404683920805 0.5078823287972276 0.7638449244213683 -0.10033447265570462 -0.617547354771988
Ni 5.947350861156834 5.754284464569593 4.788775290147477 -0.11699444980988882 -0.13531715937847666 0.14615024543823862
Ni 5.447643749742723 2.7825843574438034 9.271598742571472 -0.3878521974315578 0.5980655918982926 0.8028382749654303
P 0.2376137826063125 5.53324712627787 12.377920985156146 -0.371878704821437 -0.13763706576090487 0.9584198410198977
P 4.039360173175452 6.002840725469087 12.57888144324835 -0.31639069905646156 1.003243939313124 0.06072971377988895
P 2.530827801339594 8.425093539778677 1.347232973327278 0.15988739251867304 0.730812933667064 1.0396502458562997
P 6.3398842447407455 7.750391755263835 5.975099409465734 -0.4127309629511085 0.07096938923002616 -0.7252058718929316
P 4.681597946164504 0.9958975142558093 12.506147954434761 0.9817214918603155 -0.513100916830439 0.2739739246531475
P 3.919430466436065 6.2113209732541765 8.123830948164477 -0.14594404296470348 -0.782443256248846 0.39593060356431814
P 4.845445828340339 1.157765552788051 3.9152574261352284 -0.3159348424659656 -0.40040406595463945 0.2757688117700412
P 0.18710336066342836 5.716794000688375 3.544312474610239 0.17159465365327223 -0.2749098062038556 -0.47806783648570567
Ni 1.546411572140247 0.999875282306867 2.459804752787961 -0.4289093724831839 0.9335176784615794 0.4153056656568202
Ni 1.8475195732233727 6.537606438024111 4.7371067952788195 -0.14110651236674407 0.9588276179812777 -0.54708215887189
Ni 5.916975177857849 5.523790886774674 9.270487679631756 -0.9765108941936537 0.8470226827921283 -0.27995482482693074
Ni 8.545077488809671 1.9621787372951078 10.225577813874681 1.024840691647293 1.2517426025133023 -0.34285892055031925
Ni 2.258287407168609 5.324378142069609 6.811490232950521 0.20379694941742968 -0.9574893587858285 1.7077251770641944
Ni 0.5352032670406394 8.977424714431894 9.040245424454607 -0.14035266491985507 -0.4985515582613543 -0.04412295846114336
Ni 1.634012873082856 1.2251887212534773 11.431695849437919 -0.6404440568645036 -0.7746764678192335 0.08584424945932959
Ni 4.164054161194173 6.90611048642686 1.384532685149684 0.3594836735911938 0.13319857037357702 0.6382079684451331
Ni 5.596918536240595 7.845876269253086 8.098889438446152 -0.6386201162818872 -0.3217563342437491 -0.2570064435608735
Ni 5.3316104476169865 3.178923741822022 4.842151513163509 -0.3429494233815965 -0.3945509496079721 -0.4870160468179289
Ni 0.7862374966283041 7.207137124072578 6.853818205204741 -0.6186079348260185 1.1674099046024926 -0.3254862335998265
Ni 4.970103654831324 4.636179067326974 6.9145768041082585 0.2822762738712558 0.5716814454778091 0.19417331028473656
Ni 8.089469360470693 7.0222974750454785 9.27581969689656 0.43880040634465073 0.2772785635463482 -0.1896507398240347
Ni 4.578148855691203 0.3478268868427975 10.348961850551134 -0.4226055417523431 -0.650028615229145 -0.3585511344745954
Ni 8.144434882630762 7.190936759646453 4.885048125441392 0.014661972887548941 0.07929025039089571 -0.41923893927295536
Ni 7.261063002310212 6.143915885552619 7.147041185164839 -0.011395129210819085 -0.5956392418449871 -0.414171552052377
Ni 2.3045470415260225 5.380998054123641 2.505360141392698 -0.2932883087110433 -0.5635302771255843 0.507170924499249
Ni 2.278854276068964 5.190137510728349 11.410208669656658 0.12229503608719584 -0.6571857950992166 0.24606408561675683
Ni 1.1487342112357635 3.446519047074988 3.905096036841163 -0.4353296741872309 -0.2704088330097085 -0.8314184005959682
Ni 3.6565452001708287 2.591922702451065 2.7184410395441128 0.00025299655107053205 0.3383651464450237 -0.21961669005850568
Ni 1.0256132496735963 3.252666137259469 8.270912538005105 -0.4848578628243457 0.7315917208146174 -0.316629554540145
Ni 3.5636823969425024 2.8662169307172896 7.414833570743971 -0.19125922196173514 -0.3271083425842818 -0.8706930298258746
Ni 4.058335934855383 7.096148355066138 5.907725059062753 0.25113790059523844 -0.97755116253271 0.07555366616659892
Ni 0.9502978277795945 7.276775186111889 11.278779597096943 -0.21826377557503698 0.8664437676312174 -0.19214728099364328
P 0.21896709082878657 5.37658634773974 7.947494682384707 -0.5035628954330166 0.17422206397379028 0.2821788290614431
P 8.49002156283026 1.5816148193921065 7.991224817876924 -0.41871571977963373 0.8687888708246264 0.39328031042566464
P 1.7534815203435974 3.1710766903031176 10.410210438155486 0.3825192152544186 0.49297046462915095 -0.10830720644853606
P 3.95916294503697 6.276493086617982 3.764867960544868 0.28646228692814535 -0.0015943410703133831 -0.8026456993386499
P 6.92062933981322 3.933696189128267 10.447191928533808 0.6960115097171626 -1.0038224375244131 0.4824726504216207
P 6.2174322714417105 7.600773434252464 10.257729932223741 -0.18595452191937006 -0.05925467189625925 -0.27944548929068
P 2.366934717254087 8.60240255065457 5.865569758103477 0.17372738372555885 -0.6664677346217748 -0.6441425887620132
P 6.914400516660542 3.8676290779529743 1.5007974210529371 0.39053745757320485 0.819245255568544 0.950258388255028
Ni 5.399169221811426 2.7553637674398614 0.4651674281962229 -0.7214916562661381 -0.22441411144714898 -0.3322790881519439
Ni 1.3759551707704945 1.2184897982402187 6.828876695486416 -0.10105129621707112 -0.580761039181574 1.1507237021960635
Ni 6.8032942226889555 0.5484890123311718 9.172124708034648 0.8965626985037849 0.1165535056177283 -0.015461328860392727
Ni 2.5261448834976674 1.54776762943038 9.086437255947514 0.8267582761161375 -0.8464506123387423 0.7533237131750703
Ni 6.459985718736882 2.041399604184694 2.7304945807770107 0.5751802026596868 0.07712075354340266 -0.31774052821613663
Ni 3.8625755044517445 6.774925504179368 10.484306312526561 0.6806154868770664 0.5418831311694539 -0.8102991021188497
Ni 8.224487464658296 7.218030784303316 0.27767352303323617 -0.46512541739242474 -0.5313788892040203 0.3333646079066388
Ni 7.459770597224407 3.9053093898548106 8.33843334259542 1.4182099622423383 -0.5200624357499366 -0.6456970777333266
Ni 3.174304106653635 8.24633806779331 12.498553129571821 0.04847377923067136 0.2568478064958222 -0.9455938928998231
Ni 0.03122638323899557 4.956814293388018 10.259807411992224 0.5973315419457454 -1.5067145321426503 -0.97430025969558
Ni 8.510353381800323 2.4406771126915348 5.7877022363894435 0.4561175574668596 0.43425932394118755 0.45953403934757636
Ni 3.7010238792872 2.605103579311161 11.405815044036627 -0.05229418141802607 0.48653885007119435 -0.18385598751912852
Ni 1.14737815394563 3.4254911186959878 12.726545233685542 -0.0727323946677199 -0.41843752641758264 -0.5208965016154578
Ni 3.163057871527463 8.363465256133088 7.902322605973981 -0.22357670314751818 0.34358062920769217 0.6134667569447112
Ni 5.65277905621215 7.900642903010603 3.6103108788828315 -0.738629087277373 0.04811356767777521 0.32320412243386915
Ni 3.1555995564317296 8.5840505753281 3.6436147418903113 0.5686606563736142 -1.7713707789392978 -0.5213351318147731
Ni 3.647414414417265 4.309052847037156 9.514794056983973 -0.7765523446857078 0.5998900467015411 -0.5905248034365572
Ni 7.209993884763793 5.863347632224045 11.420052741544833 0.18815564333574694 1.2519035535711989 0.47950019805685806
Ni 0.7576382483793934 -0.0804575911381873 0.16742606534540116 -0.29609029693621264 0.424700733718475 -0.1868649495487814
Ni 4.738317302419811 0.38826903542553876 1.7700190910158693 -0.279377355056906 -0.04432864671404624 -0.6657735367682276
Ni 6.103116641883476 5.600055548771769 0.3140429795546105 -0.031194680435249502 0.3526237132465669 1.0158937668666503
Ni 7.843869304463689 8.450659739888657 11.437808955701838 0.5312037970787369 1.058523685722035 -0.19164797275972156
Ni -0.03667230931617079 4.956895656825426 5.695861900357878 0.26256491148525746 -0.30652691888850436 0.26280273852767644
Ni 7.832469382844636 8.75071001628548 2.808653202789326 -0.1286482319987333 1.0445854783743882 -0.22596782908751403
P 8.502099513094379 1.7156384815669448 3.7341577831143167 -0.09021898148825754 -0.20590551112000025 -1.08465869224619
P 1.8691622475738996 3.180831262410143 1.5588710265219914 -0.9285693333173685 -0.20238592800251595 1.086310111806684
P 4.882276344340359 1.1154565653358928 8.157519027404161 -1.7746283666446467 -1.439801829480501 -0.06547648443625496
P 8.549706164359991 1.528077677577645 12.465990577882947 0.6818524446079611 -0.20726228225821078 -0.9834143061817064
P 6.338003845298426 7.85384988611907 1.3869003611782569 -0.08442114385955785 -0.7961793748880159 0.012864514667493974
P 1.8290048710220863 3.134897081802362 6.016448308356479 0.10209387854897255 0.999507355088827 -0.2953498192257623
P 6.952668453388102 4.097715838560854 6.050254816599501 -0.35957777596689683 0.39990861437545966 -0.5538050794180205
P 2.382014074320369 8.501141232609351 10.086713027174067 0.2638188384970166 0.44859528094788553 0.5882267514309998
