# total energy = -340887.9044016807 ev
CRYSTAL
PRIMVEC
9.11855478695817 0.00000000000000 0.00000000000000

0.00000000000000 9.11855478695817 0.00000000000000

0.00000000000000 0.00000000000000 13.34592664835884

PRIMCOORD
 96 1
Ni 6.563070581660636 2.5109216791525926 11.642732871210175 -0.4240065358649278 -1.276885677437833 -0.1977448296860788
Ni 4.756976701754781 0.3368020222288035 6.291936742507998 -0.06535564258767454 0.655007299390659 -0.6340918893942306
Ni 2.587982584392633 2.080726508472834 4.961881566721058 1.4345953455788971 -1.444906754807234 0.4603449652846459
Ni 3.1573451359472586 4.442514226531962 5.004935734296655 1.9459000897408616 1.5539624093860205 -0.2736934172982512
Ni 3.881513389579765 3.0645729610671055 2.8519446803230144 -1.6585924240932854 -0.566266959330457 0.4893557506946992
Ni 5.281120340862907 4.940925304453555 2.646470817547369 -0.5229577550198607 1.3384893091822432 1.2315283323489565
Ni 5.2408801592483885 3.0282446393919993 0.8425973056957031 -0.46464564954252874 0.5851020897590891 -2.0146598729140788
Ni 6.14817634566231 8.478495931668027 12.526339964531788 -1.3460226414448109 0.6182207266899289 -0.10248802866359769
Ni 2.9069952183794774 5.37880741669258 11.472504957674186 -0.9970013008375217 -0.456190319686324 0.3199935859163715
Ni 1.209530679868086 7.805245687130348 11.47456027988944 -0.6611717763301581 -1.24319214184013 0.8922846399537213
Ni 0.688825647713695 0.460861781780549 5.123554452296308 0.6877595541210155 -0.09588055064940906 -0.2172088519479614
Ni 8.812326216940527 2.651046508264379 1.7338630730572053 -0.16468892767237442 0.35531925780085905 -0.044562359991407126
Ni 1.707294340410429 1.4376130870115171 2.778261287720639 -0.5238247310058463 0.5726175841388332 0.4403512957715384
Ni 1.680877887626096 6.489839469368271 0.4440280180645818 0.10901425981788967 0.5863701578382353 -0.6844099209224923
Ni 7.7846559907592665 4.510219494714107 3.819977735465235 0.24574012661843483 -1.2092584652071625 -0.20557126770903306
Ni 7.7006467468855835 4.0564802159607725 12.847002145052524 1.2460023575954153 1.0495970726563666 -0.2562950193161457
Ni 8.178513721209281 0.20137507246616757 6.924800908556961 -0.8004800591458989 1.52553320751105 0.30490918077942325
Ni 6.84348437386768 1.1992996615650064 0.7031746052909909 0.5333013030377138 -0.056127953341819456 -0.7229906094091677
Ni 2.2806052261230163 6.5587666238718185 9.65400254861786 -0.26598473580008386 0.8796759500507753 -1.8887992309628117
Ni -0.12740535724818036 5.219196236320828 1.5720169349438453 1.2164398134469503 -0.44350783912264913 -0.17673017510762465
Ni 6.1568480911224075 2.392973174918783 7.17723897513669 2.0754253250279096 -0.7450349908037169 0.18493456529528796
Ni 3.457245279414268 4.746690972123878 0.34435948031221914 0.2675862759592489 -0.4168979498446046 1.947128305721008
Ni 6.523076601021325 6.140872383397813 5.00961993581385 -1.7054857462107145 1.4400890217036166 -0.7640413567028906
Ni 5.446348550891252 3.015469544345106 9.54421879820631 -0.7022384644634809 0.36196093148709274 -0.0373118490765809
P -0.018878143665655687 5.910327966502303 12.492921373641453 1.0063683438747184 0.3432939512052087 0.6904288734230625
P 3.9450058855194645 6.72898268328678 12.977258874335798 0.34897120409564414 -0.8871974552388011 -0.5035559534544811
P 2.4502285794865517 8.823715291682547 1.613802711569391 -0.18732337724243867 0.03219381112372519 0.14661381533821846
P 6.750101255826826 8.115431560228261 5.917517034978371 -0.7736500834372483 -0.054078012791326215 -0.08962094289294242
P 4.826159175788172 1.3620111505134487 12.701478219739979 0.7883930460743777 0.19298083263853216 0.5938680088771772
P 4.3268088867389345 6.376368175461389 8.481402926886407 -0.23148901601605937 -0.49945684368444304 0.18324946428338118
P 4.743052668823585 1.4577286185414582 4.172284036143884 -0.5399396342898379 -0.41180330893051653 -0.7346816725938509
P 0.511099546699432 5.792771560117898 3.7639515120625777 -0.18098046574354637 0.18491682468347506 0.4206329914070046
Ni 0.8917590811673816 7.596221059178928 2.6327774840484968 0.11644963305001235 0.5140640520746567 -0.13551076344652146
Ni 2.174392301707445 6.949514927190505 4.892977208604105 -1.1886557013551464 -0.28978800886726863 0.7863366777659813
Ni 6.388395549028022 6.259595964775794 9.448582485314573 -0.09790246617544429 -0.5786303659918164 0.3120601900019077
Ni 8.792511597713617 2.8555483331156855 10.292085263485763 0.09401650085747679 -0.2735700043465095 1.7262137227866852
Ni 2.287763291513317 5.666169547533266 7.235427207843856 0.3605514527340758 0.43244515355058427 0.0977605412809413
Ni 0.9483296822818873 0.4794207760338983 9.524533662455251 -0.9438249739248583 -0.5261523506977583 0.39853667372859747
Ni 1.8057473748296362 1.4271267491785926 11.90089647824668 -0.9737724122165682 -0.1487473167414535 -2.1334623224669835
Ni 3.6931696435458 7.108323674754172 1.836866266240438 1.0749710326447808 0.6055788695562022 0.36251243311518855
Ni 5.906489054999988 8.2083222763187 8.220810136894517 -0.8804133424374323 0.21009692349352851 -1.62025213375219
Ni 6.706532801769683 1.0965973806848055 4.9794183709995625 1.1881643635410248 -0.3573537717323846 -0.2453572893577194
Ni 0.8230425652759578 7.9638720636012685 7.26601631123023 2.296491860159064 1.2350795400353247 -1.863086656688056
Ni 5.433983790803038 4.763277623009173 7.478096566840618 -0.5058388359513869 0.45915454452097054 -0.2864903119526034
Ni 8.35348054759029 7.965786960075107 9.003335316494981 -0.48094412959223626 0.540841834389133 1.2960457953060518
Ni 4.774757883297567 0.7179740194673707 10.469331728526102 0.3325629379409499 -0.6916637742714282 0.4832709779532
Ni 8.734490234556313 7.551321296144735 4.924045947964402 -0.8484457883919001 -0.6061056885939496 -0.11346509650039167
Ni 7.452476163876123 6.312127958041429 7.358649884079895 0.30876326441819085 0.3803368628911192 -0.9810699743192458
Ni 2.6053716680860135 5.288114272269737 2.848474158428048 -0.8478012128293656 -0.24203208163922832 -0.3772384264714535
Ni 3.4460659314289064 4.317289115697567 9.01489308449779 0.6818354753270967 0.6918751189512858 0.34413007395325895
Ni 1.0457887942456259 3.672497880182982 4.205862201740373 -0.8525515830301575 -0.20231676532747736 -0.9196848863435451
Ni 0.5169372453782479 0.4294948656836119 0.7721127020601017 -0.039459234436886884 -0.19352384962619573 -0.4638804892417301
Ni 1.154181053219518 3.764941787096191 8.486514788616091 -0.7847454220194614 0.06787815189921215 -0.46951506181968816
Ni 5.474634307376237 3.286773900469462 5.225557340035827 -0.7609454913863862 0.9407414499035283 -2.113374293467857
Ni 4.148851174436884 7.105059232194009 6.328398195080809 0.5518225017703529 -0.26720498136043014 0.21072247289266932
Ni 8.186364796752018 7.445536943797118 0.6536325860909359 0.7470713045074553 0.506878847180127 -1.3408323554931232
P 0.35728138408877363 6.349267831079256 8.310361638276767 0.4298539957846403 -3.9349180937171204 0.7829333085113872
P 8.923800547381834 1.9578083919616818 8.345781751909996 -1.3305705685557987 -0.16776730948738203 -1.0220428171871818
P 2.0783556842671294 3.5047529490747356 10.562887187249602 -0.7414272188478005 0.5608910397305245 0.8270601236272724
P 4.196896838820954 6.5969095379197515 4.202125418049996 0.5279981456572455 -1.0197385945340374 -1.503872948928797
P 6.974955694628644 4.399191973450027 10.358841290130162 0.21207538737613799 -0.1341766180161302 1.5949375662468015
P 6.667478032258017 8.486502022639598 10.23664627500175 -0.16715975781037018 -1.639512010423067 2.722359103381815
P 2.5814719363815826 9.007034714111345 6.3447067300496665 0.2865206509699066 -1.4518261076348866 -2.0722744381037534
P 7.01561532975648 4.437043093749567 1.4767134492963705 -0.588476919768593 -0.8260741055649192 1.3474154080272795
Ni 2.8423173103369255 1.5246314539155177 0.581861354396008 0.8519409460293522 1.3905693177069343 0.2192870746332288
Ni 1.5848595072950549 1.4882210652486756 7.247905949865037 -0.05138401089893086 0.9951048551457573 0.3393210826003898
Ni 7.007417749137524 1.049737128403588 9.03999646541435 0.7369807530406727 1.3941976584881408 0.5435147532356058
Ni 2.8358522550990615 1.8992034413075884 9.401217976961913 1.207308026349011 -0.5623647960625734 -0.377981218174749
Ni 6.1952554432548235 2.701143847441847 2.8435765827323403 2.128757717902463 -0.9627050986588129 0.9214952000794064
Ni 4.422143375472176 7.081268923145226 10.667585519739914 0.5877248720939169 1.2892030613526055 0.40126975638904444
Ni 7.265308711390374 6.64557526401916 11.663966337538653 0.6493490726636172 -0.3378694377555278 -0.37999207795719075
Ni 7.6418229509201945 3.9008720810748074 8.387367832188984 0.6069073585596387 0.21550498188297723 -0.9599869283967015
Ni 3.4228044985490884 8.745979613399344 12.466977261987333 0.042233968968546615 -0.1768456176395664 0.4838196513678184
Ni 0.3196956137291802 5.274472914532297 10.269649971656087 -0.49265113361651935 0.19257048457399092 0.9397361485674653
Ni 8.401954784042314 2.68408303171541 6.062733664999639 0.9224933023266176 -0.29958853989745826 -0.24081363585109494
Ni 3.808327870060588 3.1798314916829042 11.964929704476376 0.16446858413145224 -1.162030128347818 -0.5856813593013268
Ni 1.3127800740265265 3.49877117723265 13.028386610187285 -0.5498360674679433 1.227942414769911 -0.47306241285131434
Ni 3.4460932870928187 8.43934085805535 8.347463213385119 -0.39006257481931533 0.8002795130993186 -0.02823328381408041
Ni 5.711142259004557 8.212279729031298 3.609499609904625 -0.24973382115886025 -0.021265594246995635 1.1164089880745935
Ni 3.155266105489948 8.89755734713561 3.9328973568165595 0.6865418796638306 0.0411456210003743 -0.08300318046610866
Ni 3.9201304684688396 2.929983094620176 6.957471777967035 -0.6363362053437169 -0.6434656172996466 0.8029110371848945
Ni 5.38757034769905 5.069779600033606 11.900281887664125 -0.012337181409114236 -0.8517224022606428 -0.9625197221208842
Ni 8.010732315882485 0.18931396024737668 2.7177377931708526 -0.08842075193725418 -0.7046825551285993 -0.008746121623746227
Ni 4.734271500707839 0.6770043534818657 1.9566065664604821 -0.40640167829897106 -0.10415693172558838 0.20257593252613498
Ni 5.881221540099959 6.110963524187383 0.597614569387452 0.26256208327178004 1.552623635969939 0.07981398410484965
Ni 8.530034002478192 9.11483426703381 11.976033368458246 -1.0946921652227921 0.4055203041352823 -0.453173130126555
Ni 0.18120300589747537 5.276278388350488 6.0395524754006304 -0.00014938109367071048 -0.5551214842365988 -0.16347382431835072
Ni 7.4437041143150156 6.665189275044049 2.7121991830841408 -0.34624352075183595 0.08364029982947531 0.5373813866443584
P 8.784213712993651 1.822233721613921 3.8250230317460674 -0.6017777506425571 1.3195161105138502 0.5557992270299138
P 1.9538782949129943 3.439172304123088 1.7196226262800935 0.21652982360306577 0.017650880312543794 0.5494820265626343
P 4.774903780171764 1.3009441901072776 8.310335194468319 -0.24778441074197327 -0.35377736723503583 0.25404813226349793
P 8.793861143799942 2.080361766287341 12.458182416039634 -0.5082898685950408 -0.7230021793733935 1.0892907917015628
P 6.317827054689757 8.254918090515435 1.5048195702549998 0.16453774680649083 -0.20614076705925785 -0.11715900041221113
P 1.9920485646248403 3.5794886228822587 6.465193839894507 -2.1117408716294923 0.469136852544663 -0.008101803171527982
P 7.086229416867931 4.430103873670562 6.036309005516133 1.2950641481190728 -0.5337790140050808 1.3694109384617643
P 2.7253536100039466 8.717265284846404 10.385772941251503 0.3985703551800104 0.7405059925851118 0.048311285510878085
