# total energy = -340861.6534612961 ev
CRYSTAL
PRIMVEC
9.35876634849177 0.00000000000000 0.00000000000000

0.00000000000000 9.35876634849177 0.00000000000000

0.00000000000000 0.00000000000000 13.69750054961962

PRIMCOORD
 96 1
Ni 3.792265637404638 6.962987537544761 10.50365397714367 -1.0623330321657964 0.6632901082247415 -0.052846197266754144
Ni 9.345476716269399 4.275664627319063 12.124657788150175 0.2308233574076025 1.058393587902074 -1.9421509071110743
Ni 4.765596036016117 7.985872602995797 5.391911808147769 -0.7502684712885144 -2.6042701349561663 -2.541274507960236
Ni 4.020432356488385 4.502418172712012 0.7928362984916649 1.0314119171069076 0.8428837209230903 -0.17770899408112623
Ni 7.747158554444972 7.67483400952786 11.139409936705174 -0.5750591037007902 -0.1660171595654947 -0.5716714181754801
Ni 7.418385099095833 6.2282495235239725 4.317739768240175 1.0995718619125967 -0.21241940097911802 -1.5613185926407758
Ni 4.8467365386599255 8.658552638581625 1.1194993520707726 0.7350105166881793 -0.06652935118080155 -0.7809391608994938
Ni 3.602825492708444 8.40261846028863 8.263921545734851 -0.2537776522109307 -0.1542494775066053 0.3873174079740104
Ni 8.588661372867211 4.213241657003699 6.887746801090877 -0.775541129812374 -0.8298736818166675 0.43709396517650534
Ni 7.860296678604259 8.583439181347575 13.618137179649748 -0.5811024816813928 0.06593054125453807 -0.2904683227637449
Ni 9.310044427571652 9.02517294429888 10.0113108144061 1.8292792212203077 1.2966584891893864 1.054406835340184
Ni 2.030206502770972 1.6301286080166202 9.241991223531892 0.8705899285891071 -1.0929188753724532 0.07203588282132754
Ni 3.3719072963724157 7.525552330442345 13.014802793710961 -1.1058448394055018 -0.09628807050047289 0.02189525741119455
Ni 2.3430981319394255 1.4297948595052712 11.633012789368452 0.6375695635301858 -0.4273402282238511 -0.0995798538778672
Ni 5.762931669838825 7.39854451482768 12.369458778214211 -0.23185488399591037 1.600633073969682 -1.180411459068483
Ni 2.4155162645181805 0.471985974577156 6.2324450583953945 -1.0257380066505817 -0.45405399006961156 0.5563085625661646
Ni 0.45948827824145316 6.520505073300316 10.864378260177467 0.3866059837292826 -1.0805685813372163 -0.7189989717512714
Ni 3.6814391284879138 0.8195527682606712 4.139864250893112 0.8336766005025255 0.5006542064266538 -0.048094798624697815
Ni 4.379659236935905 2.2728699506430994 1.6936409387135003 0.24809551422448886 -1.1439406178359588 0.561090300225524
Ni 0.7447331762841772 7.713794553069518 1.0548349572590765 -1.8375710289154548 1.119477599697588 -1.163437807328622
Ni 7.7879346986224895 2.647529436495423 3.9875475239405396 0.08268024990905115 0.5567438503313702 -1.444936579603905
Ni 4.695498877446089 1.9392767307193852 10.198063121459926 -0.9645946023720421 -0.7422610276030055 -0.9227493842014819
Ni 6.810682976988202 8.341674175027212 2.544447306579593 0.3081271734960887 -0.788997512427596 -0.5583703301911996
Ni 8.227974524898071 9.135363057116438 7.942468517279367 -1.6241846360373768 -1.1649586148485227 -1.2293686056934765
P -0.29666165688645924 4.004447583879893 9.739360979576269 0.014235683983407741 0.15663366146806573 0.2575548598651758
P 3.8733031936206412 2.02053889732333 6.06380102799272 0.04496525185678062 1.4626820765127841 -0.21056435004825025
P 1.333034576133374 0.8025235573482518 3.904198352481973 1.286554825096481 -1.160994230884136 -1.040106102446796
P 6.29196400357 3.6931375861931923 13.160078920878188 -1.7284418407862556 0.9347793187828224 0.5353029068487749
P 4.3760467531965155 8.023597789403778 3.187202687355319 0.26928963180360077 0.7286058987134161 -0.8153191810412603
P 3.345066355013426 3.3356701537845463 11.016871867810544 -0.9345291504452292 1.5589295235833087 -1.6250279578742786
P 2.8158187696604733 1.3376203715538428 0.5781508820674808 -0.025616672126839754 -0.29515750070929814 -2.438938688603787
P 5.038553809961833 6.482995138514112 0.32058453495544503 -0.4078656644390073 -1.0113783954948001 1.8097619771229865
Ni 7.034029931497375 0.1192784106396334 4.536776075054107 0.41632690783248294 0.48606473864825317 0.21347046795145172
Ni 2.461495882683006 5.226421681942437 9.870254554902319 -0.07871895126845797 -1.6187398108727216 -0.44133757094420767
Ni 6.029282154872601 7.8993601685737245 8.196584287306653 0.16220061403288197 -1.3973662860241096 -0.20260190066806397
Ni 5.070139645766084 3.797469111391946 3.227706491437458 0.3253499651322784 0.5722445170701306 1.9659240982712722
Ni 6.797580704358291 2.6965412948974565 9.555472454968692 0.3051755470669325 -1.254253541860614 -1.650778070255189
Ni 4.517701037858188 4.631728244803076 5.821642953493459 -0.6860184030601927 -1.1847131717676307 -0.7990003892765788
Ni 1.5254040146389694 2.8782698162743308 13.199294958736129 -0.16783724349336904 -0.04953075974027599 0.8115306605331055
Ni 8.50138151961967 2.1580004547434317 8.152313579843415 0.41227202103681904 0.35176085102563937 1.097167366236162
Ni 4.451749812698912 9.142475719401247 11.25116764285524 2.8614480710978976 1.0645470090979796 1.208027678123855
Ni 7.952546036685002 6.327808077978973 1.608031625226274 0.06616605430411186 1.3750426828262448 0.5254658661536951
Ni 6.2453760656045 1.8213469182840163 11.962369295849625 1.8337614253613772 1.1326866421886945 -1.0780095623607884
Ni 6.114259751643742 2.035456770589101 5.620494992325823 -1.4171555528358948 -0.42871036909850035 -1.2382126863476675
Ni 6.84839880463002 4.351395763119952 2.0808963879462508 1.9162385581206867 -1.5102425999005669 -1.438672343861748
Ni 2.4676820271175575 4.899566773656963 12.297588133456063 -0.019783353274514314 0.9183610253257991 0.42966116304754387
Ni 5.513155559681889 6.172845627831776 2.5515562253579365 0.05655861312133486 0.6796461809852619 -1.0863851880189934
Ni 2.412025444738925 8.005245248955738 4.271716163874378 -2.231954085486995 3.4274041840561553 -1.0260977039828458
Ni 7.601246031178578 6.08750303918023 12.775781777629948 0.8036782543682223 -1.8962932253470117 1.0820641920461365
Ni 1.9840116329843691 6.534421558586516 2.3340407180456912 0.9020077807787562 -0.37972519744904926 0.6446994897067477
Ni 0.7807026581597505 6.487477987506774 5.283810571938067 0.035603865246538684 0.941038926539289 -0.336504181976885
Ni 7.310478525222345 5.081136196009045 8.877212722995754 -0.14156108340565943 0.6554744688350647 0.28130311132470903
Ni 5.02179225976171 5.129680116102868 11.440042518075114 -0.39284013756445246 -0.8627436930718109 2.0720342970684897
Ni 0.0648356602325013 8.887804974540423 5.072787240713943 -0.6996089972604338 -0.18093264322474645 0.18427353467252136
Ni 9.210195751365562 0.9745376794466631 0.9789026079856564 -1.2396201082181555 -1.3132230784162866 -1.3695513206943704
Ni 2.9997840361505967 3.3522258111290557 3.9263748847847153 -0.6668875957680127 0.27842707532849464 -0.27657870926584627
P 5.774077960340415 0.26198742824801446 13.045772822701606 -0.0786320479816065 -2.5644285774791964 2.0259058781415433
P 2.968095253918539 6.959543511596327 5.920867399996397 -0.7372082956704464 -1.7906070014610902 4.144344216395869
P 9.290522041353086 7.482296113231309 3.260580093465906 -0.08076272117136413 -0.8855241813014362 -0.3467909086148737
P 5.850735613991562 1.5306823587555909 3.4580163679728115 -0.9918858339878273 0.8406165221554683 -1.4892040340627126
P 8.70074195644994 7.200672121817521 9.121234127838312 -0.3847568463356857 -0.7850608963773512 -1.1860501454114993
P 5.72404599642648 6.398794319334602 9.913962800519087 1.2040782065578037 0.4443856137419121 -1.022623372281
P 0.9321958136898709 4.507565494102335 5.798904895220865 0.9957270621107882 -0.6890456199222909 -1.113820915632443
P 6.871093812578259 7.841813115429919 5.738047646484774 1.3747889149442258 -0.44987569032220587 1.89904147751611
Ni 7.114955182519407 3.915370847528822 11.166216250629358 1.226768706176784 2.8427983172071944 2.2011656393512284
Ni 6.57210930992984 9.375237592671628 9.989546067814583 0.015903301493817773 1.0990869518563782 -0.023968337890139364
Ni 1.3002133831954452 7.662910941434641 7.671134489263142 -0.32950615339249706 1.3622241909053379 -0.33324942248501316
Ni 6.725714738983226 1.241122133634544 1.4900690571093305 0.19518298249617352 -0.035386607029410024 -0.5109920980175522
Ni 8.324341740091072 1.5876210920987213 5.976465958024811 1.5990083938820654 -0.3871669984390751 0.37551887267718553
Ni 0.3243795146350372 5.056372900738513 0.6904102180839472 0.8613948923534004 -0.16247443651955892 -0.08376834076690734
Ni 4.907184809314639 4.17705130824665 9.226855291014495 0.9713861713725787 0.7820046260495307 1.4430586458549017
Ni 2.7269104911003588 9.184599525906412 2.033188205670893 -1.2179997017349025 -0.12731434367865815 0.5602089260618353
Ni 0.21612105115377597 2.027361437857048 10.560635760811156 -1.3330645386222462 0.951345964892252 0.9659554872753108
Ni 8.214900328566653 2.9599437685895014 -0.06882904575477508 0.2696002210654841 -0.7714003681711231 0.4209273827189718
Ni 5.142651366006481 0.15410705891978782 6.641999639767637 0.2009836483383506 3.0985166380842637 2.2872729126639575
Ni 4.078194661253967 5.765626994494122 7.876993653317848 -0.6689969288015316 1.6665242773458524 -0.6090760840761833
Ni 8.384818087044279 6.498483896515901 7.073566975034749 1.9414361404322373 2.294352445218558 0.6642892389132172
Ni 0.5240431754890278 4.936449671110164 3.2904953895098434 -0.9367313003028707 -0.89124205762182 0.5421379274927373
Ni 1.5617066685899887 5.361674570547781 7.653519419588843 0.14768390847394566 -0.6233467350625845 0.04986217493776574
Ni 0.9677712915099301 2.6511606377671413 4.781222367880519 -1.1856243707279903 -0.02359732770396581 -0.0023556447163701364
Ni 1.349178447766658 2.2367263957168717 1.857628047072858 2.5847017259059357 0.8876741377649034 3.172391116776227
Ni 3.5803738126804743 2.8963790288021016 8.04959644180799 -0.1283569260105596 -0.07085188981555539 -1.422942077610685
Ni 6.30406488822034 3.5984175138450953 7.128014404824963 -0.388246347546183 -0.2130608912178589 3.0012903720402373
Ni 1.073422402737839 9.048195509062868 12.685939494206643 0.30404529011723114 -0.887970843069716 -0.20156291788058836
Ni 3.6011128385003914 6.191900075742132 3.986232617294466 1.3285823344811762 -3.639565189167564 0.3800681826107648
Ni 1.2848930829846128 2.7331153530672387 7.228691331836588 0.40039095332851693 -0.02696932949999226 -0.5391407925376263
Ni 6.420076153592044 5.90379045937654 6.423976887329292 -2.5182749617412696 -0.6015579213222673 0.42494010342279076
Ni 4.0691540931393275 2.6722459379351347 12.873910312615056 1.067467268068568 -0.1447721341437894 1.0345622898104312
P 0.7649967767829521 0.5879148828066143 7.861392590122089 0.9173222996486395 0.2997916570471998 -0.6079275722940369
P 2.2418456408087017 4.422840584017628 1.9715906785312127 0.35923479080518134 -0.32907549361298166 0.25820277786181983
P 8.8552177507566 3.1656213725806213 2.0942653854118425 -1.7893222212113957 0.8265854979836991 -0.47753176147657755
P 6.704563927452082 4.166691154102856 5.100716606577832 -0.6314611366396028 1.1838173994262386 -0.7254562973408409
P 2.613426092592996 8.866139430870247 10.61782250145764 -2.812538232771072 -0.3526445391821733 -1.4687125989775802
P 8.6908123055497 0.8557038101998302 12.175598488258654 -0.7603291979586261 -0.14035163647859056 0.685894990108451
P 5.936649087379126 1.3251544950230985 8.251360209789231 0.1901934997013821 -0.6755843522110623 0.0006170647587086147
P 1.1546190579786342 6.728475575001671 12.794848391936318 0.4388510570769281 -0.17115319524047942 1.777139563102275
