# total energy = -340893.55638094275 ev
CRYSTAL
PRIMVEC
9.03752294339751 0.00000000000000 0.00000000000000

0.00000000000000 9.03752294339751 0.00000000000000

0.00000000000000 0.00000000000000 13.22732835448518

PRIMCOORD
 96 1
Ni 6.283898045997137 1.9283633502205444 11.25986862256617 0.9193601560142747 0.017171112462647846 0.9123161046832998
Ni 4.416583162221456 0.19765243091672022 6.034478684540642 0.5796621496904404 0.499756634313049 -0.35839686828491824
Ni 2.64945825609311 1.339767565968724 4.847776027053054 0.18785302449366356 2.0131249243267906 -0.14413681455263563
Ni 3.5925418342506754 4.325674720479208 4.9430396510276875 -0.6682317685007331 0.4436628766432746 -0.09815083474082452
Ni 5.219088073384225 4.297025773235654 2.9964259272854923 0.1291699088301582 0.5363184925974828 0.3446018713833549
Ni 7.225372945098124 5.977652548743157 2.661126601766976 0.5331678627836431 0.41843109865967937 -0.1024630889629332
Ni 5.222413881770859 4.455824086174616 11.658421570090253 -0.48061091462253364 0.5909829740198983 -0.48330671628714184
Ni 5.719314959797722 8.005076186262317 12.410474510279158 -1.0149625133016327 -0.12402101763936704 -0.5859724081791844
Ni 1.7976717331577514 6.618485214719819 0.40742417989451546 0.28055620585635554 -0.3396450415987119 -0.27161776571614515
Ni 2.597591912802648 1.7886793979819353 0.1818304397686785 1.1004048993368534 0.09267104257317589 0.8483843390263454
Ni 0.44612285248028954 9.16874762067247 4.78605697641719 -0.24173743321694494 -0.5425829854499559 -0.4548911412589262
Ni 8.870220167880948 2.2749252366396657 1.1789096015859746 -0.49634478041802266 -0.1740127761764616 0.7915598738381335
Ni 6.678584741271757 0.663270123806812 4.949480693519954 0.9020283496040465 -0.4308832083801031 -1.271361148075178
Ni 0.6910803889354772 7.619996377713216 2.6927136476694837 0.4915075069303793 0.0724760556825397 -0.38894183095131085
Ni 7.601641168927203 3.7959583972027082 3.959997569607455 -0.11566724635803306 -0.5225594911401775 -1.6063923450509625
Ni 7.669549115169498 3.921001562521898 12.592812858828623 -0.48723150526284476 -0.30452660062902387 -0.3625476572284982
Ni 8.165383765507169 8.66963234956211 6.9419535191542545 -0.7980382824736256 -0.1466626662982829 -0.22486482583132242
Ni 6.804513583824344 0.8663297046086488 0.28360559891333903 0.6244582229592084 -0.4902499803741944 0.4991943340516758
Ni 1.8154756530535887 6.617527237304104 9.106036250034288 0.4797997315751479 -0.45845546157141687 0.2604355238470805
Ni 0.014227772127927165 4.683108746814417 1.3279049135548784 -0.0005273332583797369 1.0283425341529644 0.6750102248751472
Ni 6.373685834913452 1.6252809859429824 7.047216258343486 0.406747491674164 0.45308571261907127 0.5205550591156389
Ni 3.792216862767745 4.458056354303688 0.9053871668491764 -0.6795289386811071 0.13384854525275014 -0.4924577866587906
Ni 6.2558365377349165 5.5751845463465495 4.915526720398806 -1.025272379868073 0.5124925938224786 0.20421758189461606
Ni 5.255915978752518 2.9230150334165095 9.406270890880794 0.4196726843762643 -0.4945326669099483 -1.5759823653005374
P 0.24791732516883566 5.587186376611357 12.43916412637527 0.5349367817586078 0.06374536067776118 -0.24552363973225455
P 4.027237642915586 6.195727973660189 12.524070749232832 0.1502336714789929 -0.2006082672768029 0.29492404454225335
P 2.490361704902086 8.533012117549234 1.4807728040391968 0.9065951430391225 -0.3885019152004148 0.7211101045570033
P 6.337138092751643 7.756860622841419 5.997971611231386 -0.004486832126760015 -0.5446550374876362 -0.4051742336497731
P 4.5031807055929844 1.1773632814366457 12.385990957289406 0.9415060959836946 -0.7993153494138362 0.9285513355952395
P 4.096944056193045 6.140120095934764 8.01184529083185 -0.9747628011542954 1.9062642205167943 2.021362224634919
P 4.667979933664351 1.0743355216333237 3.7505954553117613 -0.6839422372574543 -1.7160691781535156 0.34577635130743034
P 0.16485977947405764 5.666463526523176 3.6187849929275955 0.3646575044826494 -0.7286930591105837 -0.8152032242886864
Ni 1.591571025937159 1.2653887534089576 2.642118883835542 -0.44744059851815193 -1.0846954590213964 -0.5262883620549903
Ni 1.9497732417094975 6.26570551262134 4.898026461268706 -0.6806455687840536 0.9050871910350283 -0.7644295932802448
Ni 5.850277702544209 5.3937653138648045 9.283163562943173 0.22513967675926388 1.8267471988270734 -0.08537810845618844
Ni 8.526116487660643 2.1444414826010374 10.200876103373032 0.8865703631777635 1.3769267872228352 0.2423951214056019
Ni 2.4035834110747616 5.195617626699206 7.019095102430851 -0.9705778165386705 -0.6634145496177477 0.3766437303102481
Ni 0.6404684538082348 -0.011746972122136651 9.283071380210718 -1.2320970603682329 -0.24746148018491573 -1.1491298753463821
Ni 1.5267448749661738 1.142876094470902 11.407790276827651 -0.5978431914748413 0.21962003249261533 -0.18797052390813432
Ni 4.18826822398362 6.8930180445045135 1.45672576340019 -0.43627841125374534 1.1222898723354027 0.7445570227260339
Ni 5.365730918170954 8.077412518671597 7.977335510059133 1.4778513280540548 -1.009792796175235 0.6632731389438771
Ni 5.124230234182852 2.604894231216779 5.140933383802895 0.345643682384308 0.5212551705064572 0.2613577785510337
Ni 1.0800924236504041 7.366448675846358 6.981225170684899 -1.1021823029522502 -0.4387381856481477 0.2732319042808004
Ni 4.9944333318762455 4.653519897200726 6.972984757405191 0.666168201103485 -2.1715156776952793 -0.777964394541886
Ni 8.17270415896688 7.012647733672633 9.10271676791361 0.07954710359670816 0.26651695415447 0.1902734610096981
Ni 4.7709263557625645 0.2780999400298141 10.228772224968198 -0.6910284546802744 0.14051875818407414 0.285049979961651
Ni 8.201226580891378 7.158892927456612 4.759456835590074 -0.652653968667134 0.6944197397500105 0.5390325490945362
Ni 7.088409287219235 5.891850307377127 7.189304191644172 0.893267572692281 0.4393925314026949 -0.10047331222641406
Ni 2.154129707031666 5.561781900049327 2.577834080479664 0.30266332216804004 -0.9849307428262327 -0.287859167275672
Ni 2.409096299976518 5.362875060969388 11.313029139120127 -0.6223350059686186 -0.30794591072321803 0.5927030420347986
Ni 1.0032463673690317 3.4053114746151123 3.670477815780494 -0.07474042623668417 0.45294404483488443 -1.3040912913183478
Ni 3.4548280619802356 2.754908072004089 2.968477388058144 0.01626068483323651 0.4134786397504105 -0.6533306830191845
Ni 1.0184384431786269 3.1985329531852873 8.046844905339775 -1.2598094386818368 1.4343248655263299 -0.5601053106044354
Ni 3.367787679992008 2.7839817828187634 7.067255157625231 0.18808390955754706 -0.30942686614411874 -0.26234585349591594
Ni 4.001869316444716 6.815304386035323 5.944426999958865 1.1062037654068173 0.5509627248732188 -0.415737096767284
Ni 0.8267245684870612 7.498649559215041 11.259987917866995 0.7140058894120541 -1.0641410319088125 0.7296993888879111
P 0.294338560978464 5.424022940164939 7.937177277542811 -0.5940847528736736 0.3817800230955489 0.162954461479771
P 8.417259525657922 1.4612770598771156 8.036977737957908 1.6893258486214002 0.98960835080756 -1.2168241933695625
P 1.8122944450315914 3.4555872138945753 10.099488653956053 -0.47545225323972956 -0.26126393328564684 1.4926128026339456
P 4.035335263335216 6.052013286257344 3.710199535946069 0.30515446402100993 0.7613319281915275 -0.29777282684495815
P 6.967839695680978 3.972560630037507 10.35432601032501 0.7987175679288373 -0.4355294489028628 1.57020098273207
P 6.343690296774223 7.657637660132587 10.30768606646387 -0.5632340860414041 -0.47255719108012173 -1.2495034287701385
P 2.2882555827545694 8.474548382622242 5.7302377098414325 1.2167959112347884 -0.41113353655700163 -0.2313118670082468
P 6.78314887994934 4.017928994442128 1.58783491401587 1.482304478729402 -0.806884677120662 0.09164825773561636
Ni 5.49936876766321 2.9516007180005364 0.20562714102640894 -0.5895472700146364 -0.5389459029180008 0.555393764061379
Ni 1.3686153387136542 1.0970106663128445 6.951688738703389 -0.5432314176672322 -0.434046179489117 0.08278977890372194
Ni 7.160347968625764 0.3885610623277178 9.28125935689137 -1.8089788191000586 -0.28530400495398606 -0.3452341056507151
Ni 2.461441631974837 1.6769213911637002 9.061129703044223 1.0968110113380078 -0.7858533103716595 0.8326566438784434
Ni 6.199812933961162 1.9306859935775138 2.638455072096571 1.924544506883221 1.026883947329567 -0.5311976264311496
Ni 3.9869122162276547 6.989764725968948 10.220783054822048 0.7864557198423487 -0.11735260448025597 0.3513204210541111
Ni 8.229694777679137 7.260854259570742 0.2645337145700977 0.6728813514576024 0.0793486144326569 0.22592334900282382
Ni 7.4783783955975975 3.439780586535276 8.331020771941146 0.23137280215316927 1.0188857596154388 -1.2679269255826486
Ni 3.1601415563743656 8.373707703334045 12.540551575792248 0.3573560857252297 0.07185410582782464 -0.7188958705145039
Ni 0.12613580182447223 4.899042278830274 10.15131342464168 -0.1613547210928189 -0.6811752160352784 0.06865771037771401
Ni 8.72627050488557 2.29323525781173 5.530662997827329 -0.40978087918384914 0.3623931339285049 1.239077348340808
Ni 3.648194899590049 2.574220878868316 11.045083759696892 -0.5350730502261559 0.6957441149883888 0.7885665955377644
Ni 1.0347150217229937 3.445185025163556 12.444799021834687 0.20384220083306828 0.05571400573285244 -0.541947665858802
Ni 3.0697301783855555 8.584191609107673 8.062863010732354 -0.5597571832363972 -0.6269182544639268 -0.1532673160989941
Ni 5.75748945606169 7.647452371948522 3.7667328560051656 -1.3421940117273399 0.37280147374602246 -0.3158595091433399
Ni 3.1900738318540673 8.353626327695187 3.552317627817989 0.36787909674374064 -0.6269686480858879 0.19375807712418888
Ni 3.5454382654704197 4.427238401590588 9.305107572029002 -0.5977488319888221 0.6859093882861542 -0.6043287991991849
Ni 7.3940040828323506 6.130513209209244 11.397353745510031 -0.460263204204117 -0.6592892145954645 -0.031325806696475084
Ni 0.8508574655925709 0.0915482983557623 0.4575137462045094 -2.099420402390926 -0.1020033757176953 -1.0943494371713927
Ni 4.573673383353152 0.6609393466793315 1.4377442542848464 -0.8129038867315485 -1.080371377724746 -0.16944006920411464
Ni 6.083111402176926 5.763372883397826 0.5458934890701801 -0.3556696991617423 -0.8031830598993586 -1.8992283967159354
Ni 8.01494516114874 8.761074005148956 11.350595410100343 -0.5798056172468402 0.49203329752686226 1.0405532172865435
Ni 8.984237555396625 4.922458500378555 5.736375091567962 0.0587921304375439 -0.6107609279777739 0.6779945043144517
Ni 7.610308153282588 8.723776148595595 2.6268147427433535 0.5895326147266169 0.7136024833260484 0.39133707065636475
P 8.467227989162533 1.5392708815527882 3.427147937179743 -0.37779507030587195 0.8820683615423518 -0.1087239822709805
P 1.8667455198399259 3.3892246840493305 1.480190787571536 0.1908139068942004 0.35967856321081926 0.13824616009981353
P 4.607320080699448 1.2162246294326355 8.229210366457608 -0.5657668797655869 -0.03199069397398361 -0.8428806355992968
P 8.530996749967116 1.6127820919247375 12.337764024426383 -0.1374411477000149 0.10815731113423309 0.3881491598466864
P 6.396406167206922 7.765735470220967 1.2331880597090246 -1.0193606423693282 0.4397771684356232 1.0607620881342505
P 1.6871337919161349 3.4502550754486143 5.647341935804591 0.7865107414500002 -1.0135602336374672 1.7731299277222496
P 6.858386257174133 3.8035137662549516 6.011979771555522 0.18271313216393695 -0.4350885047107023 0.8645318953204852
P 2.434076012967429 8.623125257285981 10.235200614928559 1.2323148328059939 -0.7362132787470288 0.3260264223740127
