# total energy = -340871.8815668737 ev
CRYSTAL
PRIMVEC
9.20062337063859 0.00000000000000 0.00000000000000
0.00000000000000 9.20062337063859 0.00000000000000
0.00000000000000 0.00000000000000 13.46604231619147
PRIMCOORD
 96 1
Ni 5.023531035475478 7.250771882826346 0.24720970310565316 1.0161076826496696 0.7726944043921983 0.8625102369047662
Ni 1.0664902316252227 0.298410250834344 5.031599981971922 0.2814614912794443 0.2831280803485898 0.9475481884127165
Ni 0.4627030181126265 0.22540514631896794 9.571016309156295 -1.1062670145445852 0.707449319240459 0.8179800157028752
Ni 1.0753872342045403 4.60663239961815 0.4063510414861488 1.2190523113691327 1.2166182480063434 -0.8480223277012363
Ni 5.442269795961413 4.882411877707565 13.162854018403008 0.07866212988859356 1.1419423564590077 -1.0975563741444645
Ni 5.752717222053792 2.28028243977048 9.419536329667006 0.7182088717498083 -0.3283028771130152 -1.3906899024451984
Ni 7.403005393351048 0.1349869424430786 5.389514342921549 -0.24227170845386017 -1.563713061014881 0.48185481433196375
Ni 6.9297713419889 4.880102521298662 8.636378367669318 -0.11430584723413217 1.282751392189991 -0.9587782528005808
Ni 5.098681725307809 0.6746154505923295 5.034791678140241 -1.3273651742446235 0.611202900611199 -0.6512210928753495
Ni 5.433621210206956 5.193015714393376 2.2297342162226306 -0.6864464917365468 -0.07933395914463756 -3.13680704902403
Ni 8.320666345014493 7.1153479107839726 4.988953253579313 1.235896636619981 1.4265141112326594 1.5265297670963645
Ni 8.287893725378991 3.419715211673706 12.740411087039687 0.4813007416007065 0.07655176841381009 1.116436498878419
Ni 0.9464865039705812 5.2202403582736245 5.856866435908352 -0.02904575241304675 -0.07428585519776883 0.932463269055136
Ni 0.21010543009441043 6.416174156898245 2.664875847647973 -0.5227911475350092 1.0606013941866703 -0.17065337278592543
Ni 0.28791602007739514 6.617124966965333 8.895168895125112 -0.3961172656538275 0.07436838760924612 0.40340839999860206
Ni 3.237450867210128 -0.13481397072798948 12.836195094332597 -0.5932653422961719 -0.5745420548550556 -0.6655915026644085
Ni 9.04104753524492 8.930722863136754 7.277466570813555 -0.26671158666377937 0.20046557105135152 0.7397778561698356
Ni 5.217029340796705 0.5146166141349028 0.19090556971951922 1.6487109033135157 0.54180368408177 0.45094655478888146
Ni 6.9988404199236856 2.5356917382212085 4.944973354893278 0.31429345020780064 0.8041960745449054 1.7845057736593588
Ni 4.991016033287982 8.473939525954357 9.030812762060604 -1.4510231521176171 1.5475354228137541 -0.17193815303562002
Ni 7.083624162186778 6.7080179229954044 3.0842761329378923 0.08772321164959732 -0.007981218433263675 -1.6097738599286857
Ni 2.430510214450001 7.634069842965298 1.4046968578024623 1.0911209029317661 -1.152306473302151 -0.6822936459104378
Ni 2.928447938951205 0.8543054607004859 1.7170009696451076 0.2868068147517576 1.6697029321841501 -1.1068601680438939
Ni 6.860131825419247 1.1499674854020043 3.3091724847970503 -0.07665152721646798 0.1678117895720723 -2.0364252896156283
P 2.9732457730346558 3.5617912342484956 1.4792853895607552 -0.01224359325404343 -1.4347462693344644 0.51601037716775
P 3.4265696759152693 5.861873415022793 0.44234479928402687 -0.2897756675720945 -0.5564342895107515 -1.0384240867586825
P 5.264798976155357 9.472685569377395 2.452193323011198 -3.0918734217361328 -0.6687485602361515 -1.212574416954273
P 0.6374320522220568 4.446513955059864 3.4206168727417237 0.9101118979431294 -1.0846818321746416 1.3019251369049643
P 8.929765998329877 7.226795058915589 10.96162793298908 -0.9472522544388525 -0.20316780047386301 0.8210275442799473
P 1.1062461242262889 3.301487204285671 11.780578159137814 0.6135773143806466 2.8151898114613063 -0.3604614641234308
P 8.195951898310614 8.76873669208043 3.455426510341093 0.24495748281613944 -1.8263232239157774 0.19196241867634684
P 5.510639626537325 8.595286544587884 6.740117977079149 0.4648071148210575 1.564780325937131 0.5426110104744138
Ni 0.9356205680386536 8.894592016054045 2.8283129569739534 0.4678572145012911 -0.2709150832221657 -1.9217661728071351
Ni 0.2058326607067837 6.984634657790835 0.2046651016299322 0.7423947249673923 0.3663204940073691 0.3645518321427205
Ni 1.6012396493217207 5.97296173885183 11.569363133892356 -1.1495114270555171 -3.7174508459014497 1.1879172805272251
Ni 2.4055213219935103 6.0526299346473955 7.80990019166495 -0.06305039149326559 -0.5157638083745828 -0.32475526897107293
Ni 8.643543812973116 2.0657607105674116 10.87106803951679 -2.1958465411311603 -2.695127007138739 1.8657284651862773
Ni 2.145566915710121 8.419269423238427 8.538641988145457 1.6214178719255172 -2.8094670500449164 -0.5455749781987442
Ni 6.432109636181988 0.6714835584744395 11.131110771782351 0.36313361163895524 -1.1540208848900964 -0.14375269174033953
Ni 3.662832477605336 5.423012891723034 5.838983184705229 -0.19565863658101143 -0.03941809678630631 -1.199455877294444
Ni 7.033775185997799 7.85483879528249 12.269247175884724 0.019555296424108255 -1.5144029019258436 0.5255196022097659
Ni 4.639451022369366 2.551360399433802 2.864267152092316 0.12705003427367798 -0.2772453963155677 0.03638830882104701
Ni 3.285625329987074 8.59340041684356 3.362618904634957 1.8360903306048701 -0.6999573817387881 2.0671857107269367
Ni 8.084155126499564 3.522467770935152 6.674188151760769 0.6011267473221195 2.476704337388335 1.1070514581190933
Ni 5.5221956092049815 7.497578598638333 4.61520278007589 0.28945068013250796 0.5580913654982002 1.4026352477325326
Ni 3.3844308219201564 3.9944505375498465 11.453191465776788 -0.7167592837874752 0.3920469522391958 0.20232962084328382
Ni 7.515050581986962 7.137503011312407 7.512044738406131 -1.2605488879510227 -0.045532694324476417 -0.40212876195523
Ni 1.765479973048088 1.2690051476266269 11.552032840140129 0.3476139187368013 -0.7536574423654052 -0.39575191189460873
Ni 0.8794461634388365 2.895886933647994 5.348751902148634 1.052610919782026 -0.28643683300684863 -1.1356436679344892
Ni 5.572992249577693 4.963009336440575 4.352237929900099 0.8857530094827907 -0.2542939297257169 2.8235857488344855
Ni 4.766704841060721 3.0863214314625895 5.518545722004138 -0.4500001317152121 0.26674963899056636 1.365053689934333
Ni 7.49236184531623 8.604523970223493 1.3097041040998545 -0.34753832830385956 0.12721921286169058 0.12719067361660033
Ni 6.578427146025717 1.5874939183460224 7.120533381987388 0.4628286509384481 -0.18240177157110524 1.2571092661418544
Ni 2.675163984446518 3.5681212629709056 7.038457383115292 -0.1550174660208814 0.20313000525739208 -0.4277642031351472
Ni 8.85559977517385 4.477474051936186 10.414690449815001 -0.6215132813982716 2.4625267603363716 0.7657048604482426
Ni 3.1895984262431885 8.598801182628524 6.268604442244749 0.7395842521017908 0.0058520879054028245 -0.6805388680028602
P 7.37202689522844 6.321996578406112 0.7961391211902009 -1.6054790892080737 0.7449781694238524 2.1841392799965607
P 1.2406764289692136 9.02290390640685 0.48634401927866205 -0.21931072878231264 1.7682646292101483 -0.2691389651583494
P 8.690936222782904 1.5792961631255757 6.208801311877318 0.6672802032207411 -0.40400592437328486 0.2942928387161577
P 0.4460977334640719 4.459302821228687 8.107593713956453 0.4167452263168242 -0.04833339699806515 0.1249324737100429
P 4.057345997355653 6.358044619880534 3.6889410858983345 -1.7269192334941421 -0.3174137410043372 -0.20463512904800887
P 3.072492894878604 1.7902112480565735 5.449357035968495 -1.393210097763891 -0.6042282690655787 0.41572424125147756
P 6.343535237183962 5.037506782029752 10.946868293343021 -0.07152937549855423 0.2678834954846935 -0.2897191033025462
P 4.975825804478827 3.600351045840967 7.884623052521132 0.31467834435104514 -0.1311907959149289 -1.2401083607084835
Ni 4.730058759082001 5.393957323837321 9.212819489076177 -0.6184001896905866 -0.4212834805068099 1.116855845804025
Ni 8.171055012085555 2.037257180070281 1.3767683662517713 0.0003841228122961126 -0.7313227834239469 0.7149525695960396
Ni 8.973340149535305 9.00494429003164 12.418127979336104 0.5375122557952678 1.8748193717439516 -0.6562995358395213
Ni 1.948728784187971 6.844978399102664 4.54250037606192 0.450447760775592 0.8027341452873982 -0.9888748150756452
Ni 8.079168388756036 4.9451417262967965 4.676568176253009 -0.7649564123179923 -1.9101339878848458 -1.0934503223958911
Ni 0.980059577819526 2.0715295012780963 2.773721979617053 0.38044022123820287 1.2222435646129208 0.1613601204094576
Ni 1.0886361315305146 2.9121812372343143 9.682541662584626 2.3925590728979826 -0.7700448825844932 -2.903023580546839
Ni 4.293903218986296 1.286348322251253 7.741627887694353 -0.0937305941859418 -0.0708968841208779 -0.5858183990998233
Ni 2.3777998444635373 5.560626612073451 2.3938181293555663 0.97431620053518 -0.3183349672670259 -0.3479964988872007
Ni 8.474813585152946 4.275621580801081 1.743125218997449 -1.579868073508189 0.5797763066708015 0.5465802795348071
Ni 6.5197731734888515 7.189882158865721 9.806685670653637 1.69459635299172 -1.4913457629960638 1.2027761999169284
Ni 4.785060084231081 6.7383431768748565 7.316706308456297 0.8536545862863493 -0.22332062127265412 -0.2610782996374019
Ni 1.1502435040962955 2.3181890071197957 0.11512555726420295 0.43145605016443755 -2.0946859730297342 2.6080751105245534
Ni 4.189154124502812 1.7301035770631077 11.034963339875292 -0.7260790185265044 -1.569781635806464 0.2210757911025354
Ni 2.796096975038606 3.881098860427621 3.94165828201741 -0.14647908953256708 -0.9672528659304955 0.7836691582361472
Ni 3.384872451831022 3.160966087022055 9.26800298656349 0.33387240078099273 -0.19646699141491972 0.05415540299648093
Ni 4.081157210049835 6.277621972987241 11.644692315813662 0.15787113341959264 -0.12276889039982082 0.41533934710823306
Ni 1.7891255745256949 7.9841443529347425 10.97184798517637 0.9170721313110465 2.7478171384436028 -0.45277615179845254
Ni 8.00612464162346 2.986457867868058 8.957570281468138 -0.2921495671209098 -2.3507969013595322 -1.2915450792222207
Ni 1.9841971864043817 1.2469880564453375 7.576856688012632 -1.7460119884595349 1.4928683702881773 -1.3335551051054195
Ni 7.995810743080114 5.5586300768514105 12.47943909183668 -0.24395115303881215 0.6681353521321848 -2.012930806038114
Ni 6.146181870765803 2.9473092163944323 11.533274609676104 0.17766502821706823 1.5816439344616888 1.5766264266424395
Ni 5.749708618286019 2.9888776317546766 0.7222986000934372 1.346542518504023 -1.6329664959950652 0.9873892316690542
Ni 3.7064618325496212 2.5288740764722175 13.180575338638814 -0.49479774764587686 -0.599705955715193 0.9376016187229658
P 5.011570225389529 8.145100054199045 11.643076686389746 0.12946147192864801 1.9721747071666744 -0.3289109430106594
P 6.611724201180371 5.593160015507231 6.22362719601001 0.1568180095647299 0.15709337471330365 0.5254267853856434
P 2.7111108190663664 0.9676847396921402 9.613178164709264 0.4891261511823963 0.4591365467988415 -0.17239503806738052
P 7.591599766537036 0.5905245152519073 9.215230052339653 -0.9038224653899918 0.7566286091785873 -0.4503089212048825
P 2.9451654712021043 6.3672452430235715 9.887023671814013 -1.28171009540967 0.5904931788676734 -0.9832109319216485
P 6.705414146645924 3.411121829658109 3.1387051793274754 0.20485701525082783 1.5193828716389381 -2.757910003903231
P 1.2421117261795278 7.548467245242475 6.456307275048177 0.0924337297513892 -0.6307566543734106 0.41482126982123396
P 7.239961150633276 1.618085990296623 13.04625176112435 -1.15180048020001 -1.6523248459170188 -0.8823537539932546
