# total energy = -340866.19956624426 ev
CRYSTAL
PRIMVEC
9.27297712286458 0.00000000000000 0.00000000000000

0.00000000000000 9.27297712286458 0.00000000000000

0.00000000000000 0.00000000000000 13.57193934620038

PRIMCOORD
 96 1
Ni 1.974791730761496 9.044407403151528 4.107900070777779 -1.8134520243800638 -0.1087157547408644 0.928763965826678
Ni 6.562105640437963 1.3911505575281087 3.8520150519817293 -0.5669812117886622 0.2483181717582562 -1.7439443072972287
Ni 6.486057955949767 2.9900807109990284 7.696972441158439 -0.33149310191553877 3.2382108434845134 -1.6787375315825928
Ni 3.177802857661512 2.112745809792209 1.4944607944361668 -0.6858538524578704 2.107891673086731 0.33046028977565023
Ni 1.617160826279576 6.798965292295294 13.307178244925854 0.17449871467394465 -1.378950502521083 -2.0023651147071257
Ni 8.834791757760032 5.600803932373369 0.7032839045554259 -0.7209905482600034 -0.8736156027893084 -0.6998843624090075
Ni 8.191608799122585 3.0349433737906257 4.432785311531719 -0.2942609570369577 1.2807711285351686 0.1937724753018921
Ni 8.005073593517837 8.20535135105668 8.557568691558084 2.3904461403200377 -3.111034825155933e-05 1.2301106260658234
Ni 6.1106136626248 4.487555222964602 12.797768179983708 1.3814501290144854 -0.6850344418803685 -1.5070950554105207
Ni 3.9656998955725564 2.4984181967631307 11.414082368951513 0.3829370195181276 1.6176136676880786 0.12307947966170417
Ni 6.836409573476043 4.997300042376939 5.659295089481794 1.8626128023754311 -0.8829160542546277 -0.6190956730957144
Ni 7.954776966196294 8.840327725037127 1.504652723471769 0.3761068839701716 0.12935399981650628 -0.3283846381935441
Ni 6.703351626308488 1.0519636043261573 8.688185063877969 0.31213680887611406 -0.9275974563224025 0.4991537106217274
Ni 8.903244874074122 6.076841480341421 5.1538492222129415 -0.7233338516811993 0.9664589092742905 -0.2003496142987775
Ni 0.41981085184633793 2.383303460116813 11.323286014523251 0.15908546544266794 -0.06720298020905845 0.37500748025840575
Ni 4.532139696445792 7.712492622786033 10.457789923069644 0.39463425335039776 -0.6400601911625234 -0.512099472149118
Ni 0.36579854263546235 6.66979272249642 7.3986607706322545 0.35826291381021524 0.25796777903287826 0.20633745645109622
Ni 3.795577859281808 5.690056336128872 12.23959523811806 0.8486363071361513 0.051437232734369474 0.4141887784435576
Ni 8.274843040796288 5.674041904826456 9.127563751818318 -0.30817062513951443 -0.7234109847760379 -0.33843816577480423
Ni 8.93494918248348 4.14933265937206 6.599246695270369 0.1770137677863145 -0.06134523587670081 0.5437878043913343
Ni 4.715206808647468 7.3628364785357725 6.258400806480693 -0.6864652607896242 -0.2289557080712444 -0.8909669495835624
Ni 1.2878125016890103 2.5052894727301775 3.314932569035719 0.9461587642643576 0.635588528544415 0.24251956279860815
Ni 8.433920961463889 3.052144746150777 2.1438779755198296 0.5537078917185237 0.10460147546217469 -1.1971220869549448
Ni 0.7779758798042388 3.5674348058172227 8.670528388346451 -1.2614197205917501 -0.3345773972678174 0.6915385615474736
P 8.846531346659198 0.294477294531078 11.714497150664373 -0.706317519628861 1.523399448997499 0.12503197540238467
P 2.3773131169660533 7.210657652766261 6.337810872434004 0.44086320241095045 -0.542329217567937 -0.1002884499091176
P 4.3257974119400835 4.659810043968469 7.98325891509344 -1.1103645816527263 -1.472034978482594 0.07971293975061111
P 5.909019142350034 2.893975577230506 5.2738656545086275 -0.09607724004124743 0.4397864244070039 0.5626543022785342
P 8.049185145171336 7.33088179974705 13.20807515768885 1.3391035457274745 0.28501964094434784 -1.4668089541969642
P 5.4113662849633775 7.952607089575122 2.758686551793489 -0.0061189684135443 1.2431898278472848 -1.2641420046189196
P -0.06161336846888967 8.150510964998492 4.339260847266069 2.0617087467727653 -2.5516465952231795 0.6509321008800208
P 1.2273434185835939 5.466920690251608 9.319755473401335 0.05347663176190145 1.0187176094686907 -0.07988674632431403
Ni 3.49532813655979 5.145102022996052 10.04065617968712 -1.7426536135102633 -1.3251349993625243 -0.26509744809912406
Ni 5.327529299783793 2.1199323669777175 0.11582041019704999 -0.08334590851750807 0.8102047426328304 -0.14052544305229347
Ni 1.9786029243140686 6.516491866508267 4.365197363972992 -0.46484696692005745 1.4204383373522247 0.5337044520134034
Ni 5.073208632209931 3.6521990886981626 2.829816776571394 0.8744661237150616 0.389062158579259 -0.43169413431717263
Ni 3.240988923031901 6.398354139355529e-05 0.4016478717698804 -0.4981183273786776 1.9088466365319898 -2.066014316126655
Ni 4.0836521631850236 2.0520912671465212 4.181161225673399 -0.5622159291895349 -0.07415344338496262 0.5356664608357806
Ni 7.987612577801307 3.078164719650823 10.09331556155172 -2.5533545790532224 0.6567808463513141 -0.535187207206517
Ni 6.66181796226476 6.972323597563774 1.0632256349091245 -0.8122821939871495 -2.1242194637124774 1.8932364407985585
Ni 4.842626785790779 5.225164906531117 0.8071301195348674 -0.4169735402775464 -1.6365981792103814 2.6339537780635283
Ni 2.293874869798052 2.2568385996058984 7.706065522417935 -0.4391135667096954 -3.3864380260564384 2.046928246029481
Ni 4.89377652699757 0.8877020895079779 2.072964738404042 2.0394797601712362 -1.333310078974149 1.2631361890622246
Ni 4.691514352377826 4.911191177829033 5.810377849368303 -1.7909795543091607 0.36766106719566355 -0.6603415671193789
Ni 8.74194143892327 7.5672221648916205 10.852529426964423 0.16847359152578725 0.8079102901716989 0.2526070289415972
Ni 7.6477579702543785 1.2483652574733315 5.872795184944268 0.4902636072209492 -0.930483519620946 1.4476544927557005
Ni 0.6221110456718367 9.188954568838883 7.199900072132832 -0.7784487903774723 0.5821304087252749 -0.1493587250732073
Ni 8.842006133876582 5.376323704829138 11.383355432319386 0.6265878677077016 -1.8296905977261133 1.5611067337402855
Ni 4.736117371813044 9.072217061215191 4.568314507073386 -0.5863308199598676 -0.5377953342533255 -0.5332617080490301
Ni 0.7139895565175794 2.0478720626053524 5.643646940771413 0.4281228720261465 -0.28418454663756215 0.8380644451575762
Ni 3.5571232553781456 6.788523920178026 8.527520536843348 -0.4567618759190779 0.05100991538896376 -1.8193277664345504
Ni 5.570592573263195 4.477373494203714 10.24579575907417 1.8506270907684645 -1.10955211305376 0.20600064193696777
Ni 1.4846685307098488 9.095037857645558 12.457764277506863 0.22011985494716932 -0.8326563867681273 -0.6194319733892106
Ni 2.1420113252470006 5.115929237311397 6.709355878924768 -0.45669425590593604 0.4041607047835943 0.5730227899970518
Ni 9.412535317612797 1.400080434392166 0.3415116885392507 -1.2059229730760261 -0.14339556551123692 0.31757520628286595
Ni 4.44182090033373 7.350197410866293 0.6694208470973121 -0.9089489879832797 0.7563848685988974 0.7371830988594659
P -0.02165425592206236 3.6384008989019874 13.145617021014024 0.6586214991044786 0.42986839396234355 -0.053655066321294693
P 3.6762068261862666 3.6872231228783745 13.372092793211571 -0.6216333519159036 -0.652849629617708 0.14236326759198062
P 2.5212111742624583 6.149810536461114 1.5637456967883736 -0.12918276434596462 -0.4963818043035451 1.4865413996288852
P 1.151286461118385 8.515180059033703 9.250349095050252 -0.3833494244651979 -0.8782068217044167 -0.3744307818193293
P 7.042724039050712 1.528854266179456 1.5108285261627992 -0.5100647011072764 -0.2761760745107889 -0.30042054888045033
P 4.740290211469145 0.1922121221324482 9.202060067252145 0.08918951178247865 1.6019021704900926 -0.19105713325325804
P 6.375820805212581 6.421722041429697 9.86259276588196 0.15622485606542127 1.1152645900575051 0.5919651354275096
P 2.5969806694402466 0.9534011316490416 5.645058287872876 1.5440009272979345 1.6675671167880703 1.759340330137325
Ni 4.266876915995931 6.589386738811853 3.883840836389964 -1.7485082725188275 -0.08484151922642807 0.753690866706502
Ni 5.354152016789721 1.070361190721058 6.608476089291964 -1.193609445815996 0.16622824713503628 -0.2291914782311343
Ni 6.062190176659997 5.815955545041959 7.72144290019952 1.1638101030663763 -0.4399165222269649 0.4907366902026257
Ni 3.0016533863119497 4.54823758454133 3.7758894744866205 -0.5027308864500245 -1.4201915114487411 -0.1764956904993154
Ni 4.510042192222482 2.4505047245340728 8.941396683401008 -0.6774843974472525 0.1451004640174856 0.1018730207874181
Ni 3.168084777751302 8.548933695363058 2.420514989574522 1.6986152443431264 -2.1608965074185362 0.8156215427730276
Ni 6.833470039762745 9.089576074184572 10.711245421888142 -0.005599862685280679 0.07769462376900167 -1.709773317842475
Ni 2.0241239684736283 2.1207483889549104 12.826079506103804 2.1214730113155915 -0.8252264128526432 1.9129902263867182
Ni 7.223547090815107 8.368602111380381 3.9559484329450982 -1.266093986138968 -0.015244327753580197 0.609423440113273
Ni 1.021270050411278 7.875595015477517 1.5564024262913363 -0.8799960523943554 0.9047274937027644 1.3781339201570588
Ni 5.838034503311242 8.093853075445649 8.094616241453865 -2.3340392222852193 0.09484696717857213 1.2819124412284633
Ni 6.941184940752243 0.3828107462645372 12.885741840209041 1.3144204411584974 1.6895402786250517 2.009436933952242
Ni 9.028086963607665 0.6644588770973567 3.4051456532098268 -0.8325198611902629 1.7348307750317347 -0.3923755392232081
Ni -0.09277057123444703 1.0166521078585258 9.570659976243402 0.07556446479987632 -0.933229200686883 -0.8191750644522409
Ni 3.1294906474208704 3.2243346563155493 6.101523363258409 1.3352582038394551 -0.45517113439319035 -2.760564153696626
Ni 1.962199027977083 6.929092978726563 10.72795254457347 -0.10497788496498694 0.7362361615651642 0.12685000244772993
Ni 0.43458363152663837 5.734177160759384 2.866977304655529 -0.06388420024847062 -0.9137045003903941 -0.3696981522303504
Ni 1.9665573271734558 4.153097488039565 11.876586934265976 -0.23183842893567816 1.7520630797496213 -0.399071463186145
Ni 1.458101451566003 3.9237860394712714 1.3108271033389618 0.24389715987242516 0.7471270974460553 -0.83054628240366
Ni 5.943802079127893 7.6915171487813625 12.349853716702375 0.42402273381484396 -2.725764786629254 0.48281357870080716
Ni 6.374504042476656 6.14497931543705 3.5234521485442123 1.992094328908737 -1.5956543898081679 -0.1165085113124058
Ni 2.9275344810425747 8.87543521601046 7.4315325468476185 1.5236807276833437 1.5825939570797842 1.0092055562131974
Ni 4.700935697023602 0.40219034092517364 12.055030540128692 -0.33545028679107386 -0.029681843335148884 -0.6692108445845507
Ni 2.8173158762594155 0.45347454029866024 10.066307088702025 -0.4704735690782155 0.13467952579447773 0.36410523152360524
P 7.314895187375674 7.659738656555897 6.675779356456374 1.0395476588401644 -1.063924287912316 -2.417192555175947
P 3.5280802913716793 7.808338113198176 12.351984646820092 -1.1700144321048753 0.8144853722860553 -0.15479198027363664
P 6.200580085610349 2.423956191344254 11.640557213851359 0.3778958575497943 0.33167282202651266 -0.6412238724533214
P 0.8437212868303702 4.218286516444883 4.620444401950509 0.3817728240066973 0.9376635823091528 0.5000618242582937
P 8.445067079834187 2.1199880048397985 7.82262127969216 1.0718360865602252 0.5801655716894202 -0.9410265852441148
P 1.5307830453982765 0.7940227665262021 2.0516563645245856 -0.007281364152761653 -0.5694677256559418 -1.282663974682507
P 6.994782747890612 4.598738217357171 2.0970142042887066 -0.6326037348844783 1.4052341188079605 -0.9225514092580629
P 2.3544274096965907 2.616843386203289 10.000144397710285 -0.9532784060282744 0.6101569758451879 -0.25248233043827484
