# total energy = -381172.59821472235 ev
CRYSTAL
PRIMVEC
9.21575473535929 0.00000000000000 0.00000000000000

0.00000000000000 9.21575473535929 0.00000000000000

0.00000000000000 0.00000000000000 13.48818859795731

PRIMCOORD
 96 1
Ni 5.387603769399091 7.930230418328303 7.090497325135931 -0.8424528040332588 -0.7392587504415721 0.12554799580685475
Ni 2.9980968804262345 2.8269142417750563 5.651659094955847 -0.4543396396308304 0.779940030211018 -0.7585073142585389
Ni 8.81854620418164 0.20920315515289048 7.942708549834828 -0.40415196303284584 -0.6300076920225279 3.252545257829315
Ni 2.759224525441656 6.20674610245481 8.766162012815771 -0.949166697852746 2.0041880268484773 -1.1106805702312483
Ni 3.371113756983171 1.2919934774192898 12.275087240061438 -0.6031226947062258 0.6112579222188506 -0.1673245655230086
Ni 7.75572089232568 3.5060139704192927 0.463126680282562 -0.003863339610148185 0.3515549056624203 0.5996316508338319
Ni 3.9249990301036624 3.2054882182569813 3.3972966369116704 -0.4488066256277432 0.7272203312197992 -0.2531022234104609
Ni 4.599186761633439 3.5435866012554085 10.512141063692422 0.05649356421135432 1.1053905254769028 0.4047970528160125
Ni 2.463601554639368 0.4177335602319432 2.325525592224556 -0.4390359193942245 -2.084352966534843 0.6179906129569938
Ni 5.081447191276301 1.9375847229337444 1.61124472102038 -1.3855386972615622 -0.6981334411561719 -0.20328864232244342
Ni 4.712107400739383 0.05643912331776833 10.52368656085001 -0.47760478080635815 0.36170047873685446 -0.6184045605659608
Ni 0.23150528088833336 6.8993561271024175 8.93545265708121 0.9551234296568132 1.8787331049760614 -0.061205110754410715
Ni 6.932615784862422 3.9402511036954633 11.619224114652468 0.6513563329016331 0.6808013776356274 1.1416556784565242
Ni 3.4917756298154665 6.8569083621695865 1.6928483834014545 -0.3484317866524064 0.859268590039017 -0.4689705021701278
Ni 6.439231939615148 9.06034916907691 5.247916893108842 0.6270087572952041 2.8645467646278795 0.2273819358262213
Ni 9.001313046159039 1.4722628499444956 10.651311857734248 0.31770864653693676 -0.3745662789559291 0.1713725103401371
Ni 6.5045532070584615 0.3728454635244245 8.313755098093319 -1.1871395218209362 -0.5184025315490105 1.2260464832987787
Ni 1.2071255948169368 7.7488367237618885 4.304836486518782 -0.8288984623875919 -0.22301208889329982 -0.9809511893531946
Ni 6.5573041854508896 6.325693844961984 5.912668613671461 1.0796447839713663 -1.9654407308769504 0.10401320705887247
Ni -0.05723628607649388 3.4860618620650636 2.933006928419268 1.4478013027462098 0.19565272304374046 -0.05775134787785538
Ni 3.6942273232684455 9.015910801185873 0.5287087535764183 1.2010003389634285 -0.29195724860444555 -0.49090664012158675
Ni 0.27226471960846427 8.673812780762164 1.958026187848532 -0.10996248266377191 0.4762204988643217 -0.6348457368411196
Ni 0.8906916073469724 2.7102151433502986 12.535989856025592 -0.7575079264597471 1.2557404108187857 -0.10982569997559151
Ni 1.305347105597247 8.125908532270724 6.885652300255887 0.36674986823530387 -1.8738796335385017 0.6091665869074606
P 9.38117722826202 8.355878468469998 10.66165746366425 -1.6362022293235432 0.4709646497820212 0.6936406954921408
Ni 7.967148730599454 2.3580350875734597 8.669883183070597 0.3285805562544341 0.5370651409555203 0.17562022987289755
P 6.269735784025782 0.7633630577555784 3.290537651221726 0.4766686421453339 0.03524596768648769 -1.0243501251641198
Ni 0.4136952166380295 0.6243526178409419 12.908357943470225 1.0322809499754222 -2.1736021279106628 -0.8873964586234846
P 5.768822667404186 4.341182500439448 1.213508426339403 -1.0866885781920252 -1.2086668543697507 0.7103947750220282
P 8.01899656505714 7.045241519826409 1.625569689715906 -0.8515560518861076 0.8041878470147893 0.16305370606179662
P 5.43029114394726 0.5770297188113966 12.477019164964219 0.23234570758939982 -0.7356784892894813 0.29853181649816973
Ni 3.3906603721422104 8.776236675565352 8.1027594787026 1.0206490221634488 0.06305604792022043 -0.3767002945797964
Ni 2.9035801029292503 5.73820793116735 3.6560270995552284 -0.1704497414155516 0.377777329694059 -0.5082248196850602
Ni 0.14647796573423552 1.81391851415527 1.2702489048272327 -0.12120463123649447 0.6280294852502346 1.2480700387577215
Ni -0.0032126119964361126 4.197895950466446 10.717849604763131 -1.3292644481498654 -0.39913522654454486 0.23747582972711356
Ni 1.5525228553287815 1.8620339680663227 3.769840745266033 0.037881091316489604 0.6569821637288427 0.5398599300918379
Ni 4.291011933289138 5.84179301102949 13.118207123009089 0.818559542355429 -0.7563745841862523 0.6787007863528569
Ni 1.5142774744188279 9.088318983790574 9.277378342896963 0.14090390943763476 0.4229228158824459 0.23827055771426706
Ni 5.617601352861673 8.094280063045915 1.9585662310584897 -0.2093165936840782 -0.11034326304195835 1.4313752959797026
Ni 0.9906843861299072 6.470436484135896 11.22612426602831 1.8899012057777387 -0.033688393391380696 -0.5370911090974493
Ni 9.009948208065694 5.186046004126417 12.867610485230863 0.48674556676536174 -0.46279265549419 0.8457772404208015
Ni 4.365530523659713 1.1440898344737842 6.329844620760018 1.2423452204588024 -1.0128652644529716 1.3722265535336884
Ni 6.02753654168976 7.764328406969028 13.162745021048035 -1.1106093506736807 2.2086784027885056 -0.9146601794354442
Ni 0.02313983781368742 5.722789973995699 3.9048847244713576 1.1148544991032798 -0.15462331590625628 0.8597786969062161
Ni 2.8691223970925472 3.7267036419013797 12.424495815706363 1.5268241584083317 0.21974524521656993 0.15074763500093394
Ni 7.584224918023673 5.140732139563948 2.4799115968404375 -1.222949332430694 0.6710319569536894 -2.6205860985073706
Ni 8.061260014901247 2.4086387951822688 4.8676573551405475 -0.4986119791856445 0.31286520240170634 1.4137562973463587
Ni 2.309587866502706 1.7176138802976757 7.538723973646151 -1.099330435325752 -0.6727204003997059 1.2390503517576146
Ni 8.150256555490989 7.988695164471133 6.247539639466354 0.8870285337611047 0.5718999892465182 0.18075780820977902
Ni 7.395550777452714 7.303254996774838 3.7549093799286095 0.3391192510022289 0.29556502056036194 -0.37879985742130245
Ni 7.214995716539987 7.070262293120512 9.085360726616575 -0.7223694308854012 -0.05960639880872315 -1.023598848820392
Ni 5.6550357473812465 2.7461105068790386 4.9072187457839815 -0.10409573947034975 -0.3335787807999739 0.5701123012184762
Ni 7.302075380207013 4.507840203662485 9.471459366595601 -1.5521970899554816 0.9135530624141943 -0.8590099370609917
Ni 4.483390807143423 1.7995788002526465 8.8749576802361 0.8998791644715276 0.2613914600024466 -1.1704106391020295
Ni 1.6107387761018364 5.527922846443658 5.638750587717155 0.6159463288334552 0.258441119124871 1.878632060621823
Ni 5.493520435133572 5.1797608596009725 7.764610409054774 -0.17541788405410436 0.8794044415569435 1.0086417132899275
P 0.9430757987128419 2.845751243842513 9.19638199873323 -1.183678045634897 -0.6991932498792538 -1.6903861715651143
Ni 2.777287404136478 4.209305054458379 7.789468985070801 -0.2734028826410259 -1.2789651856746813 -0.669571313247763
P 8.802169808548632 6.040328008847112 6.458751829086323 -0.23896809800192392 -0.8218258718115266 -0.5013710299880204
Ni 7.418230749120037 1.5819211119800471 12.861270967754246 1.0275928004711337 -0.2817425128549728 -2.0085887270193346
P 1.9135223881010002 3.9338461543623504 4.089875327994195 -1.1609312388566844 0.23720175013012054 0.11240631621857415
P 1.222949045183778 4.084837075043961 0.8258799711239768 -0.3167054020834029 -0.49370528591264645 -0.010567491103201156
P 7.352255163111758 1.366677951369715 6.689130023207117 0.3953793590465385 0.6444050983947806 -0.43896007185096664
Ni 4.41384872416836 4.960766886935135 5.451938951117738 0.07959981121151453 0.48407856145615985 0.23851069874953112
Ni 2.3215959945329883 0.20844838486457112 5.281043844004967 2.17364815065725 0.7735423542147903 0.18937511756514483
Ni 5.790590279382333 6.003630874682429 11.441450368428567 -0.862088061765683 0.010598858561768842 -1.653681102834597
Ni 6.859719167272607 5.758436512154663 0.08030977045824114 0.3950610564751712 -0.43187642553130784 0.024927616479615135
Ni 4.948463854762896 7.237113527186708 9.427110391522596 -0.3889904248010591 0.001393537913416955 -0.13363977167605373
Ni 3.3876007416694143 4.379142192961882 1.4713864316976193 0.8116841553918344 1.6483805165572902 -0.5045376006414601
Ni 0.5944935734678695 3.2018848582724533 6.32222411341678 0.4093407063226369 1.0307238899009474 0.21116855929115247
Ni 7.322829259197185 4.449495262327324 4.507738830363688 -0.9090153224448411 1.379890240726533 1.0820204832923948
Ni 5.189575638075455 5.701916290197857 3.0413436512686784 0.6831048289578235 -1.0360612429534608 -0.5076285808619581
Ni 7.183422541841795 8.81980876253939 10.780286341067935 0.1457236994237813 -0.2575862273237434 0.4337975538134207
Ni 2.576522193745311 1.9427178981546709 10.148175901142656 -0.02137692301387931 -0.7501090628925146 0.5969494760159784
Ni 6.936799737376428 2.77027421501058 2.595977572935433 0.36997660270271765 -0.20765154727682947 1.094212397372896
Ni 2.593239572292457 2.2937736318903017 1.1528300559810132 -0.05409009697618427 -0.35134716052698844 -1.2733660943203489
Ni 7.975654871944005 6.486960331839883 11.271161657957695 -0.6831889040311976 -0.1790552236963755 -0.8128046421495227
Ni 0.9324961126201607 6.494959606690447 1.7329488956794017 0.42088624506839134 -1.341955670464289 0.2811763559388577
Ni 3.3385268492970037 7.578372913956728 11.640927216349564 -0.2156872730971124 0.5790108892596867 0.7487952291770975
Ni 0.023945294751405482 4.8801935459000205 8.207103936730277 0.5153650302742673 -2.4408958123301576 -0.6413868803937469
Ni 6.405916987328525 1.8883080839637392 10.782012451873822 -0.3657607648491572 -0.2607661677136219 -1.9319449131123503
Ni 7.106434129282335 3.6276527132218175 6.791478348823927 -0.13162068436349592 0.31025193314857535 0.37336968754466665
Ni 4.163981974141475 0.9097451796436783 3.930322971441417 0.7933519327415498 -0.37591430834339135 -0.12081562332819193
Ni 7.196840680300804 0.504996617412247 1.2139166842609237 0.43862762821221235 -0.9585769354230522 1.8640114824951706
Ni 2.1351704980444453 4.290173299635449 10.202397713943089 1.5750207727182164 1.3169660903984868 0.18596686321454425
Ni 8.412380258917931 7.934423586596743 13.198717796914037 0.23712513125591422 -0.8075521355013316 -0.2336086334622235
Ni 5.321305631985546 2.6916914769336704 12.869188222390328 -0.903661257221779 1.6408998919095288 0.2440223725963797
Ni 0.37604793819098087 0.9038682930397559 6.096714602364595 -0.08089976096986068 0.9386362306350673 -1.9386362090895966
P 4.690155473672513 3.3381582191195585 7.057316922864075 0.21072812931962417 -1.0024350702585831 -0.11412072780651958
Ni 8.781332987768533 0.7296287886421121 3.8246293269642897 -0.5425739865888914 -2.414386453185719 -1.631606639533061
P 1.8092000478839698 8.134322516070915 13.478975340344961 -0.18478981218730756 -0.49386135187453656 0.4642558703032778
Ni 5.130898929580594 7.499780960125382 4.562973454576653 -1.9975941756810438 -0.9129491102816084 -0.2773423269047482
P 3.2657868995326025 7.0114197010458 6.63388249693794 0.71626486064956 -0.25495573167943186 0.5613150146418204
P 3.321486919344593 8.019457352778947 3.6707566398705005 -1.1897111392028543 0.20125258572902113 -1.0675765399529227
P 3.7015999268173525 5.793631478346256 10.573781558813943 1.0665167312298407 -1.0854935294426595 0.9182826066793798
Ni 2.0118268406712354 5.855920762580083 13.195373399629165 0.5766225915331682 0.7132929225054295 0.3395442543547894
