# total energy = -340852.8007054551 ev
CRYSTAL
PRIMVEC
9.42369377507875 0.00000000000000 0.00000000000000
0.00000000000000 9.42369377507875 0.00000000000000
0.00000000000000 0.00000000000000 13.79252840138812
PRIMCOORD
 96 1
Ni 3.796316103984624 8.42989910985463 0.27298555509826683 -0.2021604422552712 0.1584666009117464 -1.6773838457681758
Ni 6.818522900335061 8.151438388796956 10.780639468846022 1.9634794933855215 0.801248047660175 -0.994216796113849
Ni 7.786835684890854 3.685107096261804 4.517673459798559 -2.0544294395025324 -0.5149821930135519 -0.3437544357813951
Ni 6.217083929833764 5.398033027603345 11.570413782287991 1.2363442656803612 -1.1302034707555244 -0.12497901067726218
Ni 0.8695845165862229 6.9478630944707875 7.5048175195136 -0.18417531853176022 -0.6497416801163456 -0.07163119118374114
Ni 3.2917903980728935 4.683500310666868 8.452515974402953 1.3040946337524575 -0.6817593706735227 0.1062382397346493
Ni 8.634873868517374 7.352874596369894 1.4557599306254705 -0.020112968699791164 4.327679041304205 2.030548776230193
Ni 2.535699192528871 5.523971268363261 6.513907660165964 -2.762662173876236 0.7701348711951382 0.9077061167151141
Ni 4.642686293850705 6.201977749054196 7.20980973493076 1.8310921060593304 1.800709380002415 1.398892749970965
Ni 3.4263324710547343 4.554697267064164 10.85939516068071 0.58742713834784 -0.29698452661570784 0.46807035895336163
Ni 1.1576536355995093 2.790873966795333 10.825079722944766 1.3163184295121588 1.402426474155836 2.2326889067704907
Ni 7.89158946252384 1.115991486362785 5.252028916142286 -0.5737141596371216 -0.09000712258776757 -0.9227421851126302
Ni 4.777991686011052 0.07266987053247635 10.962811716197276 -0.48613955775024653 -0.005086670494288013 -0.5572007353631308
Ni 3.5762163171551875 5.464922404505013 2.8551218823916273 -0.8366197422912495 -0.7462557505846954 -1.333502140380297
Ni 5.0962957834480225 5.634219059342778 9.60965413396463 0.5105884348212304 0.6603994169405079 -0.4392716895541145
Ni 1.4641875397777897 4.929873355146607 9.749137991850281 -0.0992522953351194 1.0065215816231312 0.46627958560152605
Ni 7.8483158616880475 1.225702126809278 12.995071754682092 1.7582771789801332 -0.33383743377799924 0.8396649568754766
Ni 7.405901720042151 5.505010796916916 1.4249472797864482 -2.394157270623038 -1.8979940100882025 -1.7213695073205064
Ni 3.783367949030709 1.916345780566589 10.636121473859658 -1.9896911187838833 2.734482626118226 0.3030021935646975
Ni 2.5816396986426535 1.9788719873491423 6.237022580671824 -0.9461109417455578 -3.3965046662638216 2.2526895182621334
Ni 0.4242188741167702 2.744273802132225 4.813261743904806 0.5752311105022803 -1.1595556986653965 -0.026661568451586338
Ni 5.849870862811044 0.8760764990809481 3.638744408676453 1.1821659798657447 -0.5850426972760634 -0.209524081709194
Ni 6.662928295936156 4.933840730136126 6.226636727997362 -0.6100255924736462 0.8690729777239484 -0.3089854077313259
Ni 6.488957489091739 0.3620705574460452 1.1089124077591594 1.270331164148767 -1.5865393148807774 0.3020663120139895
P 2.40690557261973 7.399182626532586 2.072976048887936 2.5384344674082797 -0.4120051405286775 -0.6703189900470649
P 0.13514707410850815 2.8527216676414366 12.994589261571727 0.8454661369382859 -0.15840566576682397 -0.5483103748520364
P 8.000329462533468 0.7040761865603027 2.829136989764316 -1.4451787775216982 0.1551542487090618 0.37207333733074627
P -0.008701838634967537 4.49289668468587 3.4640903840488044 2.0699301062412934 -2.290003424221243 -3.1938716552475057
P 6.0991840996820645 9.617633175303409 12.518650330079723 0.8367290141756042 -1.1798260188786585 0.845230623888712
P 3.356465206987538 6.28349269836378 13.179119317052145 -0.8824931077845964 -0.7332554816702855 -0.3144186629317553
P 1.414986435691624 3.6718291120332256 6.550567712860084 -1.6577411318365838 0.5727661939015555 2.5240432316836143
P 7.906865269787521 0.41205194335912826 9.30078409615238 0.0920470358359318 0.3272109296004171 0.35529226121766555
Ni 1.1376565578613664 7.6234288385292155 5.283269402669014 0.5932396312645589 -0.6608071939018878 -0.08794149830799049
Ni 4.021608345966613 1.8348779497248147 4.5307215059042285 0.2544050013822845 -0.7807023622983393 -1.6347994354387458
Ni 4.510208009758899 1.2583552250009207 1.4393193548375516 -2.839947735132277 0.9792971986895392 1.2998237742912453
Ni 4.985982026613573 7.379760394101713 11.759412553255414 -2.3623570953933055 -0.8838269961046714 1.0385734678523533
Ni 5.707375192463043 3.5835008322784603 3.0647962370336432 -2.955192292130594 -1.1908452528072975 0.4180922272630219
Ni 5.73267780967648 7.664139194716198 5.323102412985392 0.056579181946625146 0.07449925676015556 -0.06972806062375735
Ni 2.6168371940959827 3.711559404089781 4.931408474827824 1.8204929903872453 2.435014670959032 -4.148910495610313
Ni 5.175973112513055 1.09980158082361 8.071469867600864 1.127027387020388 0.4255108883245962 1.738029998695323
Ni 0.8440170935836993 0.3701683373237013 11.61668788715386 -0.3731609139679702 2.2028067744990776 -0.6991629108619507
Ni 4.0130327848253735 8.666594021046398 6.901077283044511 0.06724257519774227 0.2538619843946208 -0.4513350484765517
Ni 3.4477431028271472 6.617176263693609 4.738464003366075 -0.563887660465003 4.260132047492165 -1.0758701474202825
Ni 5.444510684250151 6.3266532148768295 13.676863733076802 0.6989759916621252 -0.9790619427502817 2.3505199935490615
Ni 1.0085425323711237 6.574468084471525 3.2503054142751306 -0.17745805441258472 -1.7156513738898067 -0.3665475224165107
Ni 1.6552623504368775 9.21919941151044 1.3808943394930946 -0.8021091101088895 -0.08821892033909323 -0.8662738177122564
Ni 5.836508065340409 5.718099355736372 3.5113841325580615 -0.7731721153595652 2.1948088438952653 0.9556816161531282
Ni 7.818244855532338 6.4930662194846835 12.97936245751457 -3.5543367189153625 -0.8392610365688385 -0.7065478904721122
Ni 2.4999928176232054 9.438017576015472 10.076159005831919 0.40250928522310037 -1.3593802936986394 -0.7846078680003326
Ni 2.2213436226942957 4.556864716583378 0.9902030823305017 -0.5143802977634948 1.3685303356290237 0.41978735557725766
Ni 7.368282335343439 3.7315847529086095 13.028642720626655 0.19865114355043206 0.7208823048169133 0.20425280600792567
Ni 5.566208262907256 2.162747096127014 13.381758884450276 -0.1288006984161975 0.84526661933297 -0.3653650720726353
Ni 9.575226554275304 4.750191790003737 7.930551723555109 -1.7296973104599116 -0.9785526072140309 -0.36541495147396424
Ni 1.595271117222449 9.046698700861663 6.899478082247073 1.285858827470721 1.2443244556723603 3.3009249346842826
Ni 4.773081941665353 3.1191012135528804 6.361182570456627 1.1197218544979102 0.040194827051330775 0.830040803522151
Ni 8.05369583917395 5.956226668349536 3.47495872983363 0.04919831610152172 2.6660493730464925 1.6730397098668672
P 7.940357076706163 4.1448891051421 9.666341420216293 0.2416901249187773 1.2856680516161536 0.1622885457609979
P 7.60315847367778 3.045492743141649 6.656839647525876 -0.3409524475562257 -0.17116656497691815 -0.5485728844848036
P 5.06035381620331 7.853951230438005 9.635363854739937 -1.0444270984196529 -1.0343974820977928 -2.085877116488853
P 4.326634459175006 5.049818126801217 5.562912797268694 3.219762406971339 -2.587898892686995 -1.418215875779609
P 6.5725079562106705 7.461576901605274 1.937354020623913 -1.5333321347301785 0.121051650598398 0.06598941951693152
P 0.6410797374690157 0.5902775478466997 5.437179993028425 -0.8508842226300636 0.23976848241603224 -1.99422063122312
P 7.895575684900482 6.775748755258044 5.537961683825111 -0.41005110212610024 0.5092977410342648 1.3805106479193514
P 1.2272004940856047 7.521803727158748 9.594165351226454 -3.4374638822850025 0.1615418974029605 2.5395449268636394
Ni 0.6705146443093027 1.2284349979422007 9.384449532332768 -2.2211621370778136 -2.55798565006733 -0.31302435368738996
Ni 2.2892884532748847 7.914121513830107 12.143644810850748 -0.4377801926102525 -0.4944354792104517 -0.4742325219000155
Ni 0.0773543886020479 1.6448208979704015 1.732217174431905 -0.5872186218814596 0.2571864207821635 -0.32257265949745734
Ni 1.208758325785159 5.08294240967095 12.097205791347546 0.5841050159531423 -0.6359302281545499 0.4633811810078084
Ni 8.81170947820458 1.359952065290703 7.425193905501871 0.7866153853486646 -0.5795258812228922 -1.0428073034280427
Ni 4.470279820137546 8.360908249288679 2.384341480755352 0.7470453363655263 -0.6732546756366211 2.1783838655700225
Ni 0.31906647424612017 5.314199849677558 5.330232379534252 -0.1815967591713066 0.6669505877954643 1.8653266017621681
Ni 8.662984746412228 7.942882626580726 8.762641248197635 2.1231946219923885 1.8346374002084274 2.8284908994455864
Ni 6.1572057809420775 2.5921471169640626 11.018216437755175 -2.242662730153751 0.26679900417126307 0.032759710929524226
Ni 8.300059459960128 2.553707870925474 11.12960449565567 2.013652514695487 -0.094882705512514 -1.14400695229752
Ni 7.447705224682303 6.334248711887643 8.097662081486535 -1.0824125765244907 -2.666418069239821 -0.2338199781420812
Ni 8.911760832750227 6.003788049755948 10.415413858795485 -0.7982082323925866 -1.1024895497800238 -0.941336917395682
Ni 2.0013286491069153 2.179295102021537 0.5649626798316323 -0.08438797662877726 -0.5165806478489232 0.5278716473817102
Ni 8.862653965599678 7.810545697892347 11.67232725868145 1.7774131284786356 1.553887333173711 -0.8953308829792128
Ni 1.943457746943892 1.2149025739874537 3.2600843810842126 0.31901553827381834 0.5576743325654395 0.672678491418177
Ni 1.9564907151398634 2.7883201458400846 8.615185887928059 -0.3150141304239091 1.8866425896311247 -1.0420668257175925
Ni 0.16622830021404197 6.1557168373593125 0.12490351920682989 4.6156125134612385 -1.5789941555436677 -0.6530792291300107
Ni 7.3425085334519125 2.9784525871429928 1.7895669463409607 0.6345377186823975 -1.9772654914260204 -0.22038236457993657
Ni 3.108358202892427 3.5849991995547863 12.941404762216989 1.105031085254955 0.08849531392893147 -1.1881993305440182
Ni 9.099443113727066 4.046703641921691 0.9276504892059755 2.634854692611243 -0.20204679949554236 0.5712767538402226
Ni 7.096003557262307 2.327454412200181 8.69967872440317 -0.48993142069251105 1.051587363613518 0.5735799480521024
Ni 9.196149057058273 8.53462461640693 3.7106038415626146 -0.5325063179402443 1.22484500679151 -0.3080950347065726
Ni 7.216890698273097 8.45956489718718 7.2146648218538 -1.1842395745653218 1.1966857707484746 -2.057101329907741
Ni 2.9827874861814214 7.274884108452425 8.85739648696155 3.7999025247394624 -1.0266648893402253 -1.4177721033739712
P 3.815031559398362 8.969405566267767 4.55551995551211 0.3550798880965433 0.1726310653375866 -0.19206731968532728
P 3.3518099023680077 3.199720911974093 2.584540311520976 -0.12850425022170125 -0.6623318580765303 0.1739418137292101
P 4.837662513644379 3.2380847684641867 9.319500493935475 0.5717110131641637 0.8122788515530398 -0.3970994270614387
P 0.39539368024993166 8.764732365798999 13.264508346784984 0.2388212880114145 -1.0246303754087 3.2835867005161514
P 5.680866342473695 4.063996119607596 0.7813287992718831 0.11632467743637386 0.5771653514105157 -0.05593280661187786
P 3.1697535664475636 1.1735137118640213 8.289516231603184 -1.690067354773115 -1.9623281533898977 -0.3231719836443531
P 3.584782454602865 1.350170271373553 13.01905693953559 -0.5988595485544976 -0.34429359611431676 -0.04465337704331664
P 5.829119889587957 0.5383030507452957 6.209271687871031 0.6345978824963716 -0.544426723526914 -2.558578289346006
