# total energy = -340861.0936165974 ev
CRYSTAL
PRIMVEC
9.38568270661776 0.00000000000000 0.00000000000000
0.00000000000000 9.38568270661776 0.00000000000000
0.00000000000000 0.00000000000000 13.73689536048389
PRIMCOORD
 96 1
Ni 4.793784399578013 0.2655538152528326 8.424151475185175 0.3138375936173046 -0.8018077768183868 0.46507965175615384
Ni 2.8734830919662193 7.521160567973771 2.614721695328916 0.554762044014651 -0.06720786530506491 1.4611414714985418
Ni 0.4266337185349889 4.354196561693636 11.396087563629656 -0.42540778708782867 -0.75936529138346 1.8795697419447437
Ni 1.1745806550490747 5.216881592847932 7.8570506898519685 -0.12064953006397286 0.1340300651359369 1.3175456170510407
Ni 8.28785822151163 4.418901458661243 7.287794013188115 1.1396188505321536 -0.3150627242736574 0.9327676876694323
Ni 7.1926710569541425 0.2570654037620428 12.906816446832906 -0.6222802414712832 0.6420918768805716 -0.8184281589838872
Ni 0.03886705088955079 0.5441556066826843 4.861762084125054 -0.06851218593878523 1.4466126817547473 -1.7449249260429434
Ni 1.732371781649737 9.316472738231687 3.053368149232173 -2.0462327626243533 1.979757661720255 -0.42499152548601643
Ni 4.275675939699 6.334885352202092 11.042334610317058 0.9669795576644509 -0.6867357408421916 0.5162320062602529
Ni 7.514262091143022 6.442107392085752 1.598219402214414 -0.09186860127653855 -0.20121864716729218 -0.29054571296889964
Ni 6.255341690786298 5.586217595251814 8.121555185771905 0.9443165688492964 -0.781001895816629 -2.0518470234873374
Ni 7.521517223918763 3.1093265284330114 11.210460345649343 0.10668689723629368 0.46762272989298176 -0.9254585556025288
Ni 7.636172724550661 9.170009158716235 8.583114907004292 0.6185341441652895 -0.421849380312609 0.25026886772672385
Ni 0.998655417340799 6.4487149127508525 1.6473562671831579 0.2127338468957433 0.5509881787945156 1.3742101596226204
Ni 8.034792057174869 8.000309058703882 4.837544206891878 -1.7226992818755231 -0.4921238003581396 -1.1757040262904848
Ni 0.5246268165578652 1.4554190546813315 8.544115517987786 -0.8791666145145245 -1.32712169077525 -1.1034048625054418
Ni 3.4829611735423125 4.91844503803519 8.781873633738213 -0.9780684684887608 0.5852234458283018 0.7114730956878714
Ni 2.6550876397557057 2.718891511178074 7.664226530329045 -0.3512224620236661 -0.1273554813292387 0.3591530297246524
Ni 0.4748967764385044 9.233625316483344 11.192396660603817 0.9335709002970181 0.6078650944872177 -0.300885661442327
Ni 6.971206486480152 3.6699896739591287 13.678485696530286 2.365326462434275 -0.1724911973256126 -2.1127592855916775
Ni 9.309771360738958 4.5807200151768415 4.249289031179312 0.40415350569474273 0.7326355886980995 1.8078161662505254
Ni 4.5507139873837685 1.1446027843042905 2.997404138621677 -0.6168845243770086 -1.5054048121922914 -1.2426442397564599
Ni 6.775468072459341 9.050745287847741 2.64709948515618 -0.2849864737135673 -0.902424813711517 -0.31385353445690467
Ni 0.9126750546861911 2.078468833532615 0.7909164693393111 0.9510950252237103 0.8724742900960135 1.0603753942187932
P 5.5591586718462995 2.573469742449306 4.864152617524771 -0.9384909633064545 -0.970457231800406 -0.849497626695182
P 7.553588101919679 5.796738459624232 5.712309550330336 0.7823524963072526 1.0437416423168542 0.12175176198921611
P 8.256697754738717 2.492424371791444 4.902492193043046 -0.2250005800782383 0.5174131710525476 -0.013762086781098878
P 6.33131879275218 4.527625207786972 1.6542247098290668 -4.73307233294332 1.8237238386197172 -1.0225179570513874
P 6.365989504878427 7.846158605005593 0.37632739749398453 0.027562740109617047 0.0888796938515437 -0.5694235026815677
P 6.47883356873708 9.225356529969206 6.793086876141904 0.3285324766253181 0.556955452121544 -0.5605169442205572
P 8.699354710886572 3.2884616696462077 9.280000913583235 -0.2730722387744845 -1.337421015818729 -1.0387719570164047
P 2.63604408942973 2.5475558723408684 2.28826418462746 -0.19857966688254833 -1.0071538158904911 0.07356106121660234
Ni 0.3922905667371682 4.240376386827638 1.8688358547495687 -0.06235850763256357 0.08552568977764625 -0.11627608358662556
Ni 6.392870100311446 3.9425592870772483 6.123358342637487 0.6739198200244458 -0.4124527695890574 0.8268138119444213
Ni 7.629668446395954 1.8066594607182924 1.5130912595546795 -0.16890939351162523 -0.1266196316044787 -0.7721935534963797
Ni 5.436487798134863 6.178097521647421 5.931316949056992 2.2088414107289314 0.9161105387287255 1.2099904582771808
Ni 3.257423216749213 6.281734230715645 6.78865026389987 -1.3113001503619608 -1.1625070679842364 -1.589099876519102
Ni 4.6174649631936955 3.3525564972342257 3.126585860465755 1.0432063386386745 1.487799183295386 -0.585013900920657
Ni 5.063369365577523 2.6201541285120973 0.6629164049550859 -1.2977159839196233 -0.016846382133377438 0.2588283272609607
Ni 8.327484574136701 6.908613368134201 8.133560412593964 -0.26621613508459957 -1.1660094247105404 -1.6181482000353102
Ni 5.23387906433159 5.531208108578307 13.52685811435867 1.1247416763100047 -0.8828921429952279 -0.42437857449236593
Ni 9.273242283425652 8.803892445500036 6.7090718754578536 0.47824215728004094 0.44335640114644936 2.8447790950826493
Ni 2.087648031274756 7.817729371916691 13.849400856779711 -1.7376996119390975 0.005832804631693181 -0.6979426653016045
Ni 2.508605288874728 4.2958551576392905 3.716983787553097 -1.497703844003608 0.10278344841682945 0.9265283916279399
Ni 5.817227405095698 6.793864010674675 3.522153907623737 0.03923452002059049 0.09061493137509555 -0.1873827697254644
Ni 0.7097641018979521 6.725752110864125 11.330576436512711 -0.2830272931046674 -0.06420224570952168 1.1530088986858142
Ni 2.4389541370910575 7.313962235299428 10.052329976778848 -0.12695747455987166 1.5008346763231055 -1.5036834586258103
Ni 3.9435072410363037 5.492069811456908 2.2721649229842136 1.695089747688371 -0.964644481773371 0.9531639919375973
Ni 1.4533917472045395 2.0088552244799964 11.587373409747736 2.297193257101463 -0.4945907738413933 0.8489859771660863
Ni 2.737202978248541 1.8710358587891984 4.578767793162154 -0.3685121023420492 -0.2554049034017085 -0.15093918218644975
Ni 8.186849503617026 7.82128654568384 10.895474016420735 -0.2834594955460796 -0.6767760585263184 0.8206161677741417
Ni 4.2394753612823965 7.281178045408529 0.8684356389831418 2.498649474200858 3.8459869778023505 -0.3660597841468147
Ni 1.4141877503037996 3.1703897804886045 9.71249317529884 1.2302268399287135 1.7456854583580517 -1.2877514165077435
Ni 9.239603996403327 5.864812816703731 13.53450932294701 -1.159712793068551 1.985634432216006 -1.401765957753702
Ni 8.418150269626562 5.27195677930078 9.830947061744896 -1.4501602898966897 1.2176724003024706 -0.06544923074274535
Ni 5.271712751548942 3.421794678976327 11.936098452804233 -0.02854284463469923 0.03864882272044956 1.2424136118028926
P 1.8501527146416892 0.9007665003965912 6.468402320914365 -0.28680552920017705 0.5097186306217674 1.0902757813226513
P 7.26568228316694 0.3792623004939514 10.583206719488546 0.1969652712075769 0.4273782805506382 2.073054253692572
P 8.783319028883705 0.21046267313928882 2.3710158724116215 1.6423227403989844 0.9963238151545228 1.8538697660754782
P 1.577789586544354 4.8895840635391945 5.861767162647162 0.4741749291892027 -0.37713609656563435 -0.9720510586500872
P 4.274634128912315 8.791080988528643 10.441207909263417 -1.6591418688388522 -0.6326638986984524 -1.2060618126467357
P 4.74985001856476 3.321668215261438 8.169812612265764 1.082469655014671 -1.1277969181965608 -1.3046823879351273
P 3.990491968947509 1.710606383322513 12.257500834769576 -0.5332830482052687 0.6497802466637648 0.14389564507610703
P 0.03690732032865194 3.90156262476879 13.506252786420946 -0.23085986707249276 -2.9024065157881305 0.11794267265577107
Ni 5.77668125555986 4.298633319737116 9.84567225943165 0.6550108989350849 0.4094548633029981 0.9805686092027951
Ni 2.565613925976737 0.8448672509971595 9.72590062312568 0.4900437779006592 -0.7946251430270185 0.07114422424499361
Ni 0.763597562521264 2.816305512574477 6.010701992434092 -0.25862392455963845 0.15321743669766516 -0.11670160115981836
Ni 4.545636333009027 8.384924952645806 6.314891970780509 0.3065847687096333 -0.20974699635327745 -0.3802275910067645
Ni 3.81840547548927 2.9473765723587317 10.114681883077791 -1.6979197609379983 -0.49088478574471583 0.9109253949833602
Ni 6.544739833098343 7.200498716378423 9.62402748384861 -1.5671411128598236 -0.39488287902609415 0.11000464875561701
Ni 0.3306876379227067 6.750764955427321 5.896755110850795 0.1637471325843954 -2.0330442889585374 -0.2164148952917563
Ni 3.089184853223773 0.4140850606809575 1.123465288153906 -1.235968113287865 1.064124319738264 0.16404949431616264
Ni 8.884928430475135 1.8555964106441858 12.592721757466775 -1.2215555374069609 0.5115181457243513 0.8634803141275195
Ni 5.783936388335602 1.7986159305904652 9.954386622874615 0.73857483700067 -0.21182419059728036 0.5413624827792933
Ni 4.071912766915887 4.1309205544464005 5.802520040206194 -1.1981299593941688 -2.092206144030674 0.6416496471368305
Ni 2.7387328445388976 8.20947838475844 7.7021672143298945 -2.3414704817522836 2.274244104504457 1.2553781423833605
Ni 8.779940183089051 8.704901649399462 0.442719840222367 0.637357961740012 -1.438413947994039 0.5494861403276923
Ni 2.899885017578329 3.8553850655751964 12.591334553554416 0.05180412915548497 0.5796999449069113 0.36589549065480853
Ni 4.289238251291428 1.515937937136675 6.431284761291823 0.8338645481436157 0.21599863368994413 -0.1992152435840182
Ni 6.970324232300436 1.8856118241200217 7.772335517233803 -0.25458857814800023 1.2172170579326071 -0.4232781423393355
Ni 5.827157457458874 8.227301796325234 11.671072112922676 1.0322344130082028 -0.9181046863406187 0.66192742354926
Ni 3.8601717637842885 8.886223654696419 12.784475010586448 0.1303454171954981 1.0336012114487425 -1.3848391000913762
Ni 4.513950268001389 6.938994823237792 8.604132266415311 -0.11515996770431135 1.7690650136242563 0.19854932786524515
Ni 5.918949434880285 0.49058025233535296 4.680517041426753 0.7383064138306317 -1.315223139565451 1.6313384734733387
Ni 7.589356938929189 3.8076025546291423 2.8818767080611036 1.7887763760102549 -1.603428377326632 2.687195668106804
Ni 5.34029393549764 0.2917098359765534 0.8030887613145492 0.8742954024651524 0.061649911601313175 0.004608445306288837
Ni 1.980425991391095 8.517028437533982 5.262357102970859 -1.4243507850327533 -1.1653046853340316 1.5580430072132974
Ni 0.46083420795481317 2.387492438501937 3.2851100423315667 0.04717640057548649 -0.9029230935041741 -0.48759711613237966
P 0.4595164580948984 8.054455062563198 8.857714643304032 1.7280111810067398 1.059947048432123 1.1737078217960624
P 7.001756883873474 5.424539823977659 11.68485029521865 -0.6871604870844359 -0.18858373201210105 -0.36981128076944697
P 3.981106286184583 5.847824730902836 4.605390282319192 -1.3483770006096005 0.7733628912141326 -3.2295907059156708
P 2.3095818858868924 5.218777500766043 10.918166720204935 1.214228150507612 -0.2842377684730008 -0.9505059854894599
P 1.0667391601030605 0.3867455053608318 13.304760010298185 1.430304688623343 -1.2307793699980738 -0.9487658628699016
P 3.710376266887997 8.880301288873014 4.34894996502916 2.3095227252010933 0.7185693404130206 -2.194956168106407
P 8.849037579589709 6.485713274202305 3.2867037312647116 0.4545957215056945 0.08933220800793001 0.4300594269272271
P 3.022152306930959 5.734492611540511 0.41703028793196356 -2.2811189772474196 -1.6173372740982401 -1.7837658101695406
