# total energy = -340888.50340288045 ev
CRYSTAL
PRIMVEC
9.15145981798704 0.00000000000000 0.00000000000000
0.00000000000000 9.15145981798704 0.00000000000000
0.00000000000000 0.00000000000000 13.39408648736443
PRIMCOORD
 96 1
Ni 6.613329976043106 2.4227208972186487 11.401220984390338 0.9885387718924654 -0.9891393815909418 -0.8625464894593403
Ni 5.120186924590726 0.5014908529504287 6.022985768296672 -1.331786700351087 0.48331802914105154 -0.8122282008207624
Ni 3.2457116891278446 1.8405782278655092 4.8431273902198635 0.22588529667603677 0.49451672607034836 0.2869536247422671
Ni 3.5942084348933747 4.4396569094818235 4.82654585996455 0.36132458345467444 0.23221406710754203 -0.734933640703657
Ni 4.194379480317471 2.7257440385696694 2.1446473810870432 -0.41477704684685984 1.5800897026006917 0.5917771877864195
Ni 5.4753276302686995 4.958160326450479 2.3296468891008537 -2.1332954578718164 -0.8774516887059469 1.7601437998752267
Ni 5.677080715984592 3.312343468910908 -0.11731256490030012 0.7691244276527528 -0.12827387937845006 1.8492191546773444
Ni 5.728575981035999 8.354505046100124 12.385832964764685 0.5471793465713867 0.6001165608900504 0.4602120392512074
Ni 2.0859654745490763 6.351799554035089 0.25832192015498334 -0.044118587585769184 1.449363247916691 -1.3544828563970222
Ni 0.8459572957608068 0.29789832378770337 0.11548593349737478 -0.7884853486778678 -1.3104054064618336 0.5208000852469095
Ni 8.19563570163728 0.003915909705970702 6.904477267837132 0.398195745449411 -0.22149308114561206 0.02927560903566571
Ni 8.924860635057632 2.6190014098937118 1.4119641109574432 0.5597384141833198 -0.6804627633492861 0.0704867931666528
Ni 7.136912453275407 0.6490050659265515 4.597708113426525 -0.25415354749311064 0.7388381179643857 0.4239543424707537
Ni 0.8163065655730409 7.638211125567213 2.1711280455534996 0.10167478873368296 -0.17981318490832257 0.3463023990142294
Ni 7.88712168432556 4.1337602097113715 3.7263289771136825 0.7251421085345318 -0.21192086407614472 0.24619675453987921
Ni 8.074067707867439 4.14747824815318 12.740200372078194 -1.6866393029281728 -0.4815719929842222 -0.4512409461008487
Ni 8.568539391048109 7.625783442976167 9.166859096127455 0.042579011012791185 -0.4982139724162774 0.11038877156791312
Ni 7.179576559490027 0.9958252642320818 0.3117097071208442 -0.41352929048268783 0.03484024760763677 -0.3104149410890009
Ni 2.183995913367394 6.727338863907053 9.490996485839345 0.18412595335106355 0.22084259204580675 -1.5343124963655768
Ni 0.3316049810184379 4.967439906824059 1.2384240610736084 -2.035504320463256 0.6288404111873042 0.6187578301403214
Ni 6.873972706437478 2.112193558721341 6.6803946198810715 -0.4294544463533765 -0.5233717026288277 1.6012054015333845
Ni 3.6634483807577687 4.334039910377809 0.03729677496303715 -0.7549275673270804 0.3007355090177079 0.9215126835809033
Ni 6.358983450083668 5.974814313493474 4.689993265697966 -0.7757036235321673 -0.22574542866406286 0.2587673921160383
Ni 5.711416993658819 3.3372903486923433 8.962465814220462 -0.8908754183110206 -0.9871511475163193 0.38386750175219697
P 0.07541626617418545 6.124275957143657 12.58849936618204 1.266101956558768 -0.8102775048522949 -0.6548247510662077
P 4.375614992860223 6.4106617443337655 12.75042072253304 -0.15434255144104386 -0.792442533553403 -1.2688124135113956
P 2.641751939290868 8.486350129376403 1.10776775244282 -0.7644198230882319 0.43424698264601347 1.4506773387424243
P 6.577154254922045 8.041250572542337 5.667734329953491 0.34984897871490717 -1.522723248866081 0.26256439726462527
P 4.994573985529838 1.38291371654138 12.604545536031184 -0.1329813121564484 -0.9539538348287442 0.0060878580652927415
P 4.2261991065097115 6.4914874384752315 8.121116278536674 0.4690319515356825 0.08225653210807125 -0.09390594342154149
P 5.028306266848389 1.235062729839668 3.537083191690266 0.12678058266237519 -0.2547024780180452 1.082041052117685
P 0.25607157615709086 5.75341304329822 3.514755459742083 1.737490838362401 0.579317364756512 0.22340675322855716
Ni 1.0610111133454947 0.15250267378641635 4.164221759249333 -2.0983929895676767 -0.27672140549129765 1.230133765994275
Ni 2.162334407702443 6.537610796545089 5.047923336363975 -1.0539273246006042 0.6963853481168136 -2.140942432894113
Ni 6.671203808668857 6.179788713106308 9.186132985895496 -0.38881610400672395 -1.2986624069932924 0.014756589483884263
Ni 8.934396456309376 2.672070726053852 10.141252556338943 -0.05225381509839388 -1.0899091420118519 0.08477184233075723
Ni 2.7471493033564545 5.414223332286072 6.978332294946493 -1.1004231541692986 -0.0046058742031275515 0.9215376232815679
Ni 0.8007033263847257 0.3367718952974541 9.148709920785363 0.13147644547614779 0.21444671582179195 0.47500642395156256
Ni 1.6272393938725458 1.554833042870816 11.45336417280511 0.007093930732303911 0.07925579760853446 -0.7999205870980031
Ni 4.379001033035986 7.035880335598575 1.452039269156593 -0.25220156597306237 0.7450285630458137 0.09333541563005215
Ni 5.94793647566586 8.263081961354512 7.835473589893247 -0.7012012814482181 -0.2195688675397057 0.7728188457852045
Ni 5.683203042680769 3.0425492785820407 4.83203765107124 -1.4499620578429544 -0.36691107640351645 -1.0708405554161753
Ni 0.9660830194449709 7.615369081570711 7.063653186207783 0.08103140145171851 0.3476931087141689 -0.1591631127581388
Ni 5.244912172037968 4.8735825337358705 6.887172772246995 0.28978286666094605 0.2274251303593309 0.3043093424118953
Ni 1.15345916160377 7.961632871112224 11.266784207660612 -0.6608164498732684 -0.8357939039558444 0.9998120308134394
Ni 4.844014166687516 0.7588106882425849 10.227322952168869 0.8266042670367764 -1.2055650755159755 0.6989801054271833
Ni 8.59610358837081 7.528521726792347 4.645336886655607 0.0036831052785420444 -0.10169381489707649 0.15417620106650867
Ni 7.60441478402912 6.429824901436599 6.833770342945239 0.147528613843004 0.02218990583347791 0.6994277344875631
Ni 2.3364500844161578 5.194094115021713 2.1899059261930915 1.8761015808904853 0.571765520551183 2.586201450379914
Ni 2.921072799411545 5.462131225043158 11.380794925816547 -0.5854183354479272 0.724486477228404 0.40785589424699437
Ni 1.5423046942204912 3.1209223814610616 3.5349536469635088 -1.1056844025682377 0.9219456573532638 1.0068164871557306
Ni 1.9969309208463677 1.172750439145687 2.2833432472702855 -0.18003018601513512 -0.6474796235550462 -0.4911658073202444
Ni 1.2397940346258023 3.685704731318463 8.276581279903887 0.04135722279054813 -0.28509394582570896 -0.35169837321882014
Ni 3.5856335169347524 3.114671934325801 7.211349513236602 0.8989916196602517 -0.7914421173133466 -0.3982093722961658
Ni 4.272176041220619 7.251964607571887 5.804193579328743 0.761972904209636 0.09747951970541277 0.474309397884538
Ni 8.24349783709469 7.682824492747879 13.607856694489683 -0.05037870956286807 0.8567424811830535 1.2540864201551305
P 0.6130279314860687 5.789414886680526 8.098720825784977 -0.8486537906376482 0.0012372148412107724 0.29469470214026666
P 8.920586903268223 1.8527771239581918 7.95792286925478 -1.5859543889115848 0.7694789827786942 0.273133173919407
P 2.073464580278555 3.556174967405611 10.5467043281528 -1.3981666704382179 -0.09192825086988039 -0.28382253531245316
P 4.1380339415007805 6.265638558751813 3.559666249370621 -0.839222212911103 -0.2617840674551749 1.3041103174817412
P 7.294802591525262 4.163392636979268 10.285118082239181 -0.9271338864224226 1.1793879028999752 0.011198182708664586
P 6.466769345192159 8.31492498188343 10.124469693965072 1.5017327626573427 -0.9781376311637994 0.7789092749536585
P 2.448894072631306 8.747139283129727 5.788669957841858 0.5140285708510309 -0.8066437647544494 0.8163831035294006
P 7.168695473627912 4.114011359172729 1.5135718554641553 1.5805800119735487 -0.5814362108717277 -1.0077798795102644
Ni 2.7987635373870106 1.5773547857696097 0.08727198251932461 2.0223248456585043 0.6822244832353992 -0.5178250617789856
Ni 1.5157380060306505 1.2544638249007989 6.909044761490439 0.4722831114831285 0.7783274343082596 -0.8021304502651282
Ni 7.235592645749075 0.9841937586553379 9.325405394054613 -0.014277335854620573 0.4396349864308041 -1.0924316513233896
Ni 3.155899261330704 1.934032936716579 9.242268041133693 -1.367142968363194 0.8191490963103117 0.04799066894666574
Ni 6.849794549290541 2.2587175837325515 2.6968592855784204 -1.1110032436779897 -0.1612907006241029 -0.8020646300241994
Ni 4.6577453511807905 7.064634222712761 10.160633518188217 -0.820840882190438 0.7400917878658286 0.8176938519210241
Ni 7.343964234293372 6.770918116115122 11.681398421160887 0.06957070911028664 -1.0832381577495795 -2.0081069022869094
Ni 7.685862777446132 4.010178894755941 7.991809810246223 2.0282417253635714 0.6804465653993701 0.0007034538249278208
Ni 3.366346233984367 8.346241277779274 12.500085281462889 -0.6003672434482757 0.4745739643998343 -0.9155466958054554
Ni 0.1799332597940737 4.961894122103755 10.391695069490325 0.6149744518384893 2.076677452267456 0.01581999775139211
Ni 8.90564256919519 2.666662213232565 5.5860575500381175 0.5946074581463631 -0.20731113321827524 0.5079911064076993
Ni 3.9763184929983075 2.9244222337475705 11.361828525102304 0.2828892248649063 -0.581456779697018 0.534727493961279
Ni 1.1923162604856385 4.068610966437697 12.621046533439072 1.8043320643566667 -1.0619095714751325 -0.45506417650168074
Ni 3.072071888330724 9.021683081164596 8.111083533010486 1.0873961457820112 -1.5401926092954377 -0.812365240619259
Ni 5.5534902495692275 8.005358546679243 3.4769974511983475 0.22132698788139302 0.919964365257177 0.5187480878138873
Ni 3.1992039697407377 8.919122669678703 3.8104299787657046 2.5108763552843527 -1.853554034607272 -1.3517924540490527
Ni 3.633349229033213 4.4201002396018065 9.364823477430466 0.052068181450149034 1.1109109410744995 -1.3724191291604686
Ni 5.321418377090351 4.893258172595036 11.277740335494189 1.214977627079127 0.26214556455965177 -0.005027278011262309
Ni 7.980347606678268 0.08350432646429273 2.4939659279546906 1.288464126304052 -1.0703721004201887 -0.8594213135667973
Ni 4.8316139384762735 0.6786676930122324 1.3962666117318028 0.33128818499358426 -2.3442071639571562 -0.7258877284513047
Ni 6.208460237081083 5.68727544235162 0.2855914404677936 0.7225447801210008 1.543749987629393 -1.0308100218568503
Ni 8.30022773722863 0.14671986625380853 11.508293065623938 -0.6890422774881811 -0.4472012288138363 -0.7106652550745953
Ni 0.1722213245072742 5.05407677802393 5.766863859109941 0.5319645865041613 0.2990223829813431 0.19513104621231553
Ni 7.503556544091043 6.246713339607275 2.579996057360904 0.2688538298177628 0.9945695514675774 -0.9250875454163552
P 8.863875306054153 1.7358397689152059 3.6610461225249638 0.0023024228809315184 0.7423633575088248 -1.2981389303896547
P 2.1783769169676135 3.1942347269963065 1.4166386766919836 -0.7052104026076113 0.639711292463537 -0.910482908129303
P 5.013480901754507 1.412893899286788 7.976995426904263 0.12993738312380204 0.33249840325160157 0.5465874786236586
P 8.911060233476412 1.8937207557051257 12.557063186161052 -0.9013750322907637 1.6471191333463635 0.12317203937551044
P 6.509634783525336 7.956260964130675 1.4823900860293482 -0.4154401343521555 0.2661737118824384 -0.9906463051537713
P 1.9342434202950722 3.355391936442776 5.8847593720080695 -0.4946578796339029 0.5183313119914429 -0.35363801344369417
P 7.086350637137318 4.195834562447056 5.8585331181277915 1.2316712856847238 1.1120365700385106 0.42647916577513645
P 2.6939518667572315 9.105775846502677 10.305303457416699 0.40536552372497286 -0.5509817510366123 -0.17561097390151692
