# total energy = -381172.9704585623 ev
CRYSTAL
PRIMVEC
9.20391232850099 0.00000000000000 0.00000000000000

0.00000000000000 9.20391232850099 0.00000000000000

0.00000000000000 0.00000000000000 13.47085603847284

PRIMCOORD
 96 1
Ni 1.120309434455027 3.9258552492282854 3.729190648701525 -0.3351654085608034 0.2529574703024805 -0.7253362268232089
Ni 2.811077366190906 6.53363659593001 11.71854013637618 -0.4319581866118367 0.28379502450862737 -1.5071817015870559
Ni 7.712271223951813 8.835102530434186 10.008819508002663 0.060226291780909186 0.8570929225439368 -1.0325270045479573
Ni 8.993777982081845 3.5049235145615785 12.11417951946935 -0.6779397398171164 1.3446422161575164 -2.016452703148443
Ni 8.564958494395299 4.097673887938175 8.953135345226524 -0.1044829476064394 0.4147050559583439 0.507848410182248
Ni 6.078944910181888 3.4184435526311034 9.576634149511735 2.7383179407039164 0.0002576245367608467 -1.7377425493618912
Ni 2.626446881269094 6.964287662205761 0.4892155615677496 -0.9549424239942585 -0.582586522426087 0.6806280852825568
Ni 0.760083025129811 8.980027336794048 4.004238529324977 1.1388146094633032 0.24953995998049927 -0.5133040339801805
Ni 4.89546902418058 1.5278126607717377 13.07715727350297 2.6692421689521773 1.0052717683764298 0.7747294325443561
Ni 5.548035624950338 3.706397159374064 5.346987200895749 1.710495283610164 0.5434731013643931 1.4497322012203355
Ni 1.4623636389233325 8.833031650119759 8.673911649497937 -1.3021459946665186 1.3852581899066658 -0.22218265101346896
Ni 0.47390945506600624 1.0273131024684874 11.098678718314353 -0.8096362717238701 -0.18023407449582507 -0.5602220386879577
Ni 3.726286814305073 1.0195818159612928 1.6179033175793234 -2.421623851474423 -1.1131177189178314 -1.2147128034535144
Ni 1.4119538101139226 7.507622229323872 6.413474916174441 -0.43570531235909477 0.3434711002130214 -0.9061637119286586
Ni 7.849759269004755 3.0972270060821883 3.6587245741447014 -0.06639179716167276 -0.4619045964622819 -0.9611197564495642
Ni 2.186536679009727 9.054790718101122 12.578897027113053 -0.08098717847734441 0.12801136974568275 -0.9096475567122011
Ni 9.173521189461608 8.633454011284039 13.13661730948205 0.11197925598348459 -0.24087379966506903 -0.9658788684011044
Ni 3.463782025648294 3.7899134614767824 4.576050001744588 -1.437866045910369 0.5205879692361034 -1.457396916854445
Ni 3.070250338519585 8.575947965930526 10.341899897775118 -0.44753367245259057 -1.1418341130159173 -1.4283182543209336
Ni 0.43654341106373445 7.77847496662592 10.79190679205638 1.5002548925602357 -0.3859158996407935 -0.2966525971975859
Ni 3.3456682164258806 8.178007604710213 7.505960923116077 1.1849875084749397 -0.4808114606691139 0.17116862185944715
Ni 2.7192407271804453 1.5875552568648323 3.603965896674995 -1.4864421550468594 -0.6451288639346825 1.5402525159990956
Ni 7.743536914743409 5.0533161237024675 4.752370274062416 -0.312108783851656 -1.2193870690007322 0.05025143995638442
Ni 0.3912960567803786 2.1857819581840245 5.111233583945114 0.40292066172890606 -1.0872341662828502 0.6429192578778734
P 6.152962774575767 6.414105384181278 3.3990334215417906 0.1948528528502644 -1.6111568563191412 -0.6966604561550712
Ni 0.6025240080694412 2.151377733227009 8.334378396665729 0.024304381073319434 -1.242056228463474 -0.1634627685747572
P 4.452107354730501 3.0159380508065436 1.6224031104047605 -0.10452588502923289 1.3401160461523887 -1.251257692457084
Ni 8.490268744388295 7.942820028378854 7.762324861347141 0.25152716561385713 0.37209159216319143 0.10223066123715298
P 0.1793741304881703 0.5814498095985801 6.774911639994534 0.82584759137641 -0.2766172758132655 -0.175939046664897
P 7.698999182114463 2.3310657171317213 13.190729872293657 -1.5219305777614562 -1.5701037950325734 0.7882873737344488
P 3.3222994825666343 -0.3051971368277575 4.801349814867995 0.008485668873507967 -0.024429593797274055 0.08569332570376209
Ni 4.822896174050546 6.380032500074571 1.683251096390134 0.006162677167286161 2.2340310226206817 -0.06230348602491205
Ni 2.2834262659873894 2.9842765917770797 1.5273524651463095 -0.5117330899486348 -0.26890139522624656 -0.5800488436058978
Ni 3.075956764274895 7.691691275582662 2.7721807115384602 -0.22435189075064588 0.7557791166940983 1.025140225165583
Ni 0.5721667434424416 1.9439123413714476 2.5574552734961427 -0.8399367224796244 -1.4493529635040459 0.5842055460867487
Ni 5.912197627264217 1.3315760421766256 10.495588669625636 -0.6250588326576848 -0.9141685845110061 0.42653881536847826
Ni 5.712813270591176 0.23415489734789766 1.5713480873285002 2.350814127750713 -1.12463574685976 -0.2970881420731077
Ni 6.620595161310931 5.175958257879095 7.315308318239911 -1.0090258361022235 -1.1778264719501266 -0.5229194455827575
Ni 6.024715457681423 3.4464418544821576 11.971779346310587 1.5625743194247477 -0.28037751418664614 0.717038762701107
Ni 7.6344429397793885 7.8891336067163955 2.9805618926886237 -0.898656090697704 -1.1382631078352072 1.982486373505328
Ni 4.08975852318081 3.18193981681102 10.552866457948937 -0.3147289950833225 -1.5127072593909754 1.3575473542549588
Ni 8.76504234841899 3.6041785070539425 1.235892167737585 0.9824599126882371 0.062478063929563364 -0.5091072222900135
Ni 5.641519764299833 8.99433021683236 8.532898505954215 -0.695016749904061 -1.0916346093433908 1.389079620535285
Ni 3.3847940484997903 3.311558516669139 6.813653668916836 -0.8268117550618922 -0.4704388591855382 -0.7686626575249859
Ni 8.33105026190263 3.491890774449451 6.756240583079659 -0.06543020457935184 -1.0601061997178067 -0.9655636511535308
Ni 9.268063778749587 6.700825666648092 4.505557235841489 -1.0998150882716544 0.5367668929888111 -0.26833498119981525
Ni 7.903362855454637 5.50524663569802 2.0574444429470975 -0.439084770354289 0.8116836411712021 1.453728466863922
Ni 1.7280253695705496 4.531205778829107 12.81291294538207 0.3342698933297275 -0.7261461243190139 1.5921839147610644
Ni 7.396135237107626 1.0760202074638128 7.68427476288326 0.09459114241402418 0.5803195807687811 0.9084602212723193
Ni 2.6051398238117667 1.0045242150972806 6.5750035806997555 -2.804631833439802 -0.8065023540805787 -0.5418191107007378
Ni 7.389913392251836 6.356645358390307 9.172170975496604 0.017053613048177083 0.4630821617101509 0.5324813782395796
Ni 3.5086326913025307 5.752629396103228 6.686569726563575 -1.2489043617335587 0.41739648674757795 0.7511773562560289
Ni 6.765584395058354 6.9773296062303976 5.314832412155827 -1.3503248683645908 -0.8259386084283195 2.3053498247703264
Ni 1.6360874875224949 9.131910301010388 1.3472070467899213 0.04915512156841212 1.1077631394741374 0.8578786516700257
Ni 4.518145426979453 1.6118996054499866 5.701930564441049 0.7952589199562755 0.08289853656744434 -1.135873010336476
Ni 6.635459480012264 2.538475885512231 1.6681769284836065 0.38551557887858123 -1.0771099333646545 -0.4931175317299766
P 8.038614349767998 1.9680265921438875 9.755243434870444 0.1393638186440245 -0.6064756703388586 -0.09712856412389724
Ni 4.379083512887546 8.437429082676625 -0.3144875661139029 0.6241309215267767 -0.6969743878510641 0.071065034267626
P 5.398867814924028 6.892331474213801 7.314890460612022 -0.7901123427583296 0.6707884734843157 0.10891578656681243
Ni 4.186629702333454 6.6995831384594355 9.239228841251505 -0.5254254998340628 0.8975937108714606 -0.6646538213414875
P 1.2897166480876725 4.141116354978601 6.003044845680007 0.008071207043908681 0.1311026070764968 0.14589699177685195
P 1.1342165462554685 5.298821285955927 1.6514193649792623 -2.615530281251018 0.5049536051329562 -1.2328740477435736
P 5.522881332064431 6.592099848184414 13.050404261014323 0.27576032712960896 -0.9285148259303493 -1.3249596501269245
Ni 2.0733469629793957 5.941033485153551 4.253692170044611 1.2986760338400474 0.39068683866687554 0.7601222241541425
Ni 5.570704861458934 7.747669471459753 10.751400373106188 -0.525329597686147 2.4371206615584415 0.6742340088307549
Ni 3.3011212798844265 1.7620338262896968 8.663660331745898 0.39751003223629605 -0.4933453314700665 0.9143339064442769
Ni 5.421141283194754 8.85329866546362 6.321657605380249 0.6517615387598517 -0.8560925063038805 -1.3230662897589536
Ni 7.589831575850374 7.052332289262694 11.640853592456386 -0.06459665293446294 -1.0747805139005298 0.5072313454235393
Ni 1.4493216948986962 6.493756043030399 8.702887406857402 0.2729601386766525 0.20748339713008138 -0.3218535219432457
Ni 4.347293199082963 6.407092002849752 4.747021880503689 0.5868224148843054 0.19120625723661264 -1.3746940412375743
Ni 0.2820069588711774 6.152659045462984 12.794996609292898 -1.0052681688320042 1.4042164761767235 0.843672792483289
Ni 1.9664619270174317 4.102137785504829 8.431059054829445 -0.8006741774345759 0.7367149009737957 -0.21303929395130408
Ni 0.273948013078678 7.382200513569659 1.954176544600999 2.146995581066728 -1.4104922818831063 -0.7285431637962808
Ni 7.120588504426211 1.8084675648954067 5.472010387238342 -0.6943636897010945 -0.6293448616275483 -0.6283272189963114
Ni 4.9637528510816225 1.8825682645018627 3.35897155156576 2.0611914408167147 0.08166209305718194 1.7775866779420224
Ni 2.916268882251294 2.5609702476831635 12.74794252698411 -0.19088898310650995 -0.9981783518647582 -0.8635613038770998
Ni 5.444528424879018 8.457180678920004 3.7581397147147144 -2.1880792384809156 0.4129402507484372 0.7341880207868839
Ni 4.402912442372221 4.532439103105255 8.426222398806194 1.0864155270362967 -0.42673473342936824 -0.0682591893877147
Ni 7.244583613741597 7.541326956930237 0.5680930917661507 -0.47171721167732955 -0.8576487950474068 0.09355910160508403
Ni 5.972013854657381 4.631270715622224 0.8806570401657636 0.3477177913045173 -0.45767718864449564 -2.304926364079663
Ni 3.0432276513944383 5.007756756785071 2.144412212240527 1.8508523194053932 0.4767858844494886 1.194733275007794
Ni 3.9350131421743075 4.716867101951878 12.687270335727652 2.298602221633848 0.49253389131236464 0.5098474428901477
Ni 8.06514922953019 8.673371379833684 5.380906379663563 0.8649265596557427 2.2132914760804847 0.2256099315274631
Ni 5.6276218564119 5.503829233171701 10.779568026947398 0.13552516162422465 -0.7633139916185628 0.8939116340341831
Ni 5.382871414984142 4.344725307493074 3.1125763709727226 0.39103393759364913 0.4529653849911231 0.7696440476016487
Ni 8.770868425036912 5.694838029461949 6.9375180826746 2.12062634704458 1.282945510478668 -0.4520068777325957
Ni 6.983367372836017 0.07231882214479778 12.25943566667952 -0.27955707516787986 0.9889642894656581 1.3444421843315686
Ni 8.292301790241572 0.2631150080560971 1.657238998858428 0.3526296267838379 2.5699459077529996 -0.9115067214081269
P 7.93316512415737 4.971557768888886 10.841345608096137 -1.3480062475337429 0.5646659333919243 0.768029137706045
Ni 0.7775373248110534 1.9067745543993884 -0.15142092780840785 -0.2224338477923266 -1.8029413546567272 1.3590964439096336
P 3.1897815502683167 4.981332323972982 10.116450981269072 -1.4836077709218578 1.2550431276414449 0.9646195420727065
Ni 1.758545543448951 2.9122651803100683 10.481470788228748 -0.3959833111791245 -0.2871001776224604 0.14743014059192674
P 6.992378003181901 0.6832699325070809 3.528583092056096 0.8366323406967398 1.6699111915402143 -0.13418510265656244
P 3.885256791153006 0.8094997517795466 11.440690584785122 0.3460432318155718 1.6216680402631103 -0.2547225326227033
P 5.5191077279359195 2.6490885060401643 7.423856501192173 0.5259649172773007 0.061950473560867504 -0.02105862044251212
Ni 0.8916336262234781 5.137946099218722 10.576346559149538 0.4661471737887198 0.6665068153898264 0.32115675298653723
