# total energy = -340893.0121184349 ev
CRYSTAL
PRIMVEC
9.06380124770247 0.00000000000000 0.00000000000000

0.00000000000000 9.06380124770247 0.00000000000000

0.00000000000000 0.00000000000000 13.26578930908596

PRIMCOORD
 96 1
Ni 6.531411400468645 1.8043671602390425 11.44295022051973 0.3480947150279618 0.36653106735627844 0.17572384533029736
Ni 4.2901599585520245 0.3678706865747911 6.254514086545829 1.146179791579123 -0.4671380769470793 -0.5694872660399677
Ni 2.7499029015017733 1.544952106072242 4.897503523891715 0.10064274792474281 0.7596897646024142 -1.5190136612249774
Ni 3.7377484667696277 4.478360726684495 5.061296381770673 -0.9321547366757816 -0.10227591265279161 -0.28503429623236715
Ni 5.041449376281381 4.736017403418349 2.8781194332876496 -0.028327129079467345 -0.24496802433910067 -0.7593866315396987
Ni 7.162813919715619 6.109165157730286 2.608280101359861 -0.036512493103737116 -0.12235571412180218 -0.31534246029760526
Ni 5.088200462874874 4.505669959702369 11.259670190059147 -0.02862846236997005 1.8267096607209186 1.8801096736086136
Ni 5.5427954120987275 7.692348377267312 12.239335674743321 1.941822320127062 1.2021642773645425 0.27075027550952724
Ni 1.8212439580748478 6.510374317881693 0.22797635332186267 0.5819784565284428 -0.16295780391388065 0.2732439884656584
Ni 2.7292374347640527 1.506820694420667 0.40809855544410073 0.3761814459618489 0.7136932432676418 0.1672561741789184
Ni 0.41526077115293714 -0.1159078897552512 4.497089259105615 0.28795789763706536 1.0252628667863761 0.5627034103489148
Ni 8.446039702314868 2.476602103895417 1.3592919214163428 1.3851041808273048 -0.35299060966768236 0.1885888742184236
Ni 6.824063413638613 0.932492931334845 4.856022131316342 0.6664469086861684 -1.5155213318010028 -0.6157272708441138
Ni 0.707310041543055 7.539704901245401 2.324989182070033 0.8464632107442326 -1.087779754373675 0.6141835805060778
Ni 7.800107909743084 3.981591910473531 3.746855774216146 0.1809714668824819 -0.8209488685232119 -0.6410243548480057
Ni 7.475225019503232 3.755105646069073 12.822274048969861 1.2779038342897022 -0.08152376770710475 -1.3919919090860735
Ni 7.890582773329018 8.761106495854303 7.089516772165355 -0.32249526929230266 0.2363861962073606 -0.8122215159525432
Ni 7.044694462467383 0.481996633013974 0.4220631539541035 -0.8972173013686484 0.08913346173356262 -0.4672825729447436
Ni 1.6816976747880283 6.632554358067867 9.397657254183306 0.84245537513642 -0.5555891679016367 -1.2559545837121209
Ni 0.07420443405045872 4.928278754488758 1.3902810577217233 0.06655197688862087 -0.07056315493054299 0.22140232120401868
Ni 6.436993783360383 1.8314588620280983 6.93368283812078 -0.2268044660561965 1.2243683242654075 0.6094267825473827
Ni 3.339702573237284 4.356316643516333 0.3479747365590145 0.1583850969415337 -0.22732794265983428 0.23298051295992134
Ni 6.211395771473598 5.527921714328288 4.870945679993384 -0.7468746151156169 0.1927255220946165 0.7157005035056578
Ni 5.216562015479963 2.9981876077940472 9.69709261617192 0.7611622353828826 -1.7488384021647365 -2.299087903021015
P 0.17781002643592553 5.513455887611884 12.34283522065474 0.8740377779283915 0.2557658862855531 1.2022264980610458
P 4.149453508711509 6.198244195931303 12.631365923418723 -1.9857035948910444 -1.5471680121720064 -1.08439438284121
P 2.757561813516411 8.527532338910854 1.459873829721238 -1.666275651670156 -0.010248931421517832 -0.4669457584306151
P 6.203918135482976 7.82936586001912 5.997781917534452 -0.17383254184485544 0.27203274176637665 -0.3444607178198003
P 4.937922638966361 0.8884455766395374 12.578979871618722 -0.4499823911033992 0.3752273095786957 1.0394227032265262
P 3.9586423658332204 6.145674148966926 8.20153460112331 -0.475235252132917 0.6546180343720404 0.07236961201166246
P 4.816331745858236 1.2029476953641647 3.9430834446920047 0.1255593086607644 -1.1001770995967635 0.1534742899034776
P 0.09118455921995257 5.787309577091486 3.5884758184142784 0.04058769161437526 -1.013553548769248 -0.735901661043881
Ni 1.4557008556484103 1.0415667149847272 2.406361270110048 -0.02866317226264741 0.5291253172831533 0.7784066242856271
Ni 1.6823955874804866 6.76601883074898 4.604024892052239 0.874750744835016 -0.08982843091805821 0.8055307341959289
Ni 6.112437189963758 5.650980943230935 9.162839543715114 -0.6287748480566913 0.1557042076752609 0.60707396604449
Ni 8.640304153450645 2.336330716512537 10.155691046386144 1.3155149597742568 -0.7869753397912446 0.6024295252939431
Ni 2.1500061552286227 5.452365867518798 6.926572286078788 1.0769320130258937 -0.8389692163600325 0.08554960103704622
Ni 0.597182137813525 8.827816072691858 9.230747355071408 -0.6587264001134591 1.4602611257761173 -0.6137660333526849
Ni 1.6298889871245146 1.0805410601479724 11.504105499981462 -0.9147532533698826 0.9668818557443218 0.07268740036239739
Ni 4.217785505963998 6.785306599704185 1.4873734025643277 0.34238198091390065 1.0390702049831138 0.5349090138444659
Ni 5.4379000408023925 8.083659866507494 8.117230373394849 -0.34617075853237156 -0.947141439892601 -0.14190406856737497
Ni 5.637629964062223 3.0390472236070494 4.698968209630145 -0.6685238458198551 0.6029697140681293 0.05350105724193366
Ni 0.6267972018568709 7.3413979947740895 7.130441647347004 0.8927780346503721 -0.155970316852454 -0.712223857810967
Ni 4.969645943169003 4.448250779095589 7.375473355388326 1.4430051669091473 -0.0031812259414590372 -1.060043207690355
Ni 8.122625147869538 7.000472176408902 9.154363076832167 0.7373674469561301 0.4370176034126151 0.7874715627013729
Ni 4.579666832705331 0.36531922653677873 10.45564395142332 0.4280107719283145 0.010638196440136517 -0.6287630209821494
Ni 7.989550418640058 7.140734499990581 4.814460070910281 0.4764632110027472 0.894287272206047 0.2143143040089857
Ni 7.368371867147536 6.308577847948091 7.056418489320561 -0.5121881752081825 -1.4279562429958246 -0.08903935935785956
Ni 2.345022901864061 5.356769956254436 2.5452005769032087 -0.6991364284993895 -0.4847874145977264 -0.1642605818857042
Ni 2.4755778943597315 5.3199165405721685 11.281811243632351 -0.445911049247503 -0.8986517198223297 1.1526378884996407
Ni 1.2911566086499096 3.3140338882367466 3.710109311388046 -0.9451850874971786 0.08483149192409907 0.10426826049247204
Ni 3.7175996367003497 2.6413729459239366 2.795592616974658 -0.5506837601802193 0.8307157181019885 -0.7830160980331805
Ni 1.0429262851648404 3.3121848727917924 8.146481072629925 0.49886060486134093 -0.4578281124000631 -0.005082813839546086
Ni 3.528936614706641 2.6761870063360353 7.069764030208551 0.07199885893580503 0.26335861103114644 -0.2069357521567275
Ni 4.180959281685332 6.780928783724222 5.903554640251405 -0.11839364415026063 0.8125907263665038 0.5135706573780059
Ni 0.8157665803311657 7.601329685609333 11.383665709625832 0.4461205941551478 -1.007365160570349 0.9678940990589201
P 0.30452831188331686 5.318239737350029 8.10990772840476 -0.7778039577046216 1.7035070252177889 -0.4357410506930367
P 8.738809544900446 1.4479784970253675 7.984161082446089 -0.15277212163013043 1.1251191142540817 0.22566726712795973
P 1.892657647735594 3.1546197527178728 10.463789589562438 -0.5972376966803585 0.24505132808152633 0.49527340173071477
P 3.766217866341198 6.400484792123743 3.741032281944661 1.018865962121097 -0.9314499972992732 0.6079653675105078
P 7.150160853239365 3.8574450254267942 10.605056182317162 -1.3683045927714628 0.7129607359769915 -0.9102034292156711
P 6.326216005084759 7.789566708946607 10.110295904452284 0.2536665805543631 -0.3513556451674207 0.8437378413932695
P 2.2687691423621117 8.605707624267364 5.657832270558585 -0.231416253796595 -0.7002108925104908 1.1319353658449667
P 6.732020512444948 3.8683215868676997 1.5887773976381312 0.1378494388820271 1.0658258758104031 1.4881655654958692
Ni 5.345186418319872 2.8615689322950715 0.305238007517336 -0.8498136152737041 -0.5552068448615535 0.10359643123642803
Ni 1.6189489790752034 1.1890619519246084 6.948739624675474 -1.3551857960013176 -0.40372618834933693 0.10964957940904341
Ni 6.93992598438786 0.7826184465797655 9.087396994420633 -0.3468747265779316 -0.1882345762027984 1.183821770301613
Ni 2.681670606062492 1.5379548515452595 9.107773325900048 0.5384993022988854 0.4538058786145475 0.9493358764407587
Ni 6.448649831704554 1.8444563529499807 2.511134280090172 0.3822330514725675 0.9984231208857128 0.7117949978036644
Ni 3.990184394011847 6.940324791640694 10.32569260808762 0.8641796541873892 0.23504819412222744 -0.34005436122198857
Ni 8.120558601195766 6.9344695760650055 0.2743793899492465 0.09562292611264822 1.2633102527462436 0.3824418250492639
Ni 7.635328003913363 3.6772113385497867 8.352074368886525 -0.3332435089477422 0.3855616016251682 -0.5259739161383652
Ni 3.2416050528415155 8.386236741992288 12.510714040114998 -0.3030829262039619 -0.21105697341395266 -0.11960926172491661
Ni 0.17114722617325076 4.902111560422179 10.307823324020331 -0.14737794719775263 -1.3900116454312512 -0.44095139124938254
Ni 8.706778071456979 2.398961582809752 5.738156583179793 0.22391377477196278 -0.014240311969098056 0.12164840364213245
Ni 3.729482280074539 2.639315463051365 11.689123967512346 -0.5919954744448127 -0.2999829471223995 -0.38279458040299236
Ni 0.9404781401927098 3.26687493058922 12.726296551674949 0.439102768076418 0.28302600755308677 -0.6621158854109823
Ni 2.8653938564017896 8.426180913884014 8.019408392555585 0.5088616819381108 -1.268317733263164 -0.18672790975028486
Ni 5.707058681260005 7.907350805550414 3.8726151094964973 -0.3116346724287149 -0.18776997786155403 -0.6916863999792474
Ni 3.353198573225207 8.563125886226217 3.6036114600394185 -0.5131705937261097 0.08909772339962074 0.10891013013985758
Ni 3.288709627681838 4.242964745699695 9.181278940877927 -0.3039061934362056 0.419276220268794 -0.3555398584520974
Ni 7.259597188937278 6.009834960371215 11.445298651410846 -0.03605329407913146 0.0011780794685011969 -0.8009688258568594
Ni 0.6988217917185481 8.81066736082003 0.42598324797342996 0.09952303249800279 0.4420106857518323 -1.0951943016701913
Ni 4.703369591493231 0.6283144821778773 1.6375025801331482 -0.3633840370868645 -1.5130978099611747 -0.42733637156910914
Ni 6.060882288733866 5.513292739190271 0.251531359882384 -0.8435144125285537 0.5973212575331003 0.9073075957251148
Ni 8.030736331296287 8.935920029613259 11.317787283358388 -0.8864878307662861 -0.8210758810193794 -0.9091775590543181
Ni 9.043797391504642 4.943641897524038 5.789535646666392 0.1001660653986404 -0.3339976135049474 -0.1756449124632459
Ni 7.854916715604047 8.813051140535828 2.6687719105736982 -0.06911305274757774 0.2341321100658613 0.37090117139951606
P 8.697968056689845 1.7306875202781076 3.428662875642571 -1.2349440428987248 -0.5496098103897502 1.4505521260184697
P 1.7184967076630924 3.341062143417397 1.624382727895056 1.1906714462335946 -0.614007974160162 -1.5052569737605173
P 4.843097150804065 1.1530605335552107 8.302845239044746 -0.7241838583863206 0.8003520182084668 -0.08925404647182693
P 8.721651769227417 1.336620635472895 12.631737539267954 0.3375305663588703 1.7236413340738186 -0.18586067665398312
P 6.34807789358098 7.791678574626382 1.484746712976349 -0.5777412785186437 -0.5972302404811908 -0.376887470889938
P 1.8073944698400946 3.354213718959692 5.776667768101681 0.4383437784232063 0.47309737985430783 1.6543308206034542
P 6.963364974293012 3.9526240018359196 6.168220354453803 0.12369988685452245 0.01358493777328628 0.2614554804711626
P 2.491158568623829 8.665691860613958 10.264006189875523 0.04099572568607133 -1.2859285043663917 -0.18302783519087834
