# total energy = -340895.3640373907 ev
CRYSTAL
PRIMVEC
9.03360571294589 0.00000000000000 0.00000000000000
0.00000000000000 9.03360571294589 0.00000000000000
0.00000000000000 0.00000000000000 13.22159509176199
PRIMCOORD
 96 1
Ni 6.0385589784541205 2.0647661142640357 11.292075027129707 1.4106447483005706 -0.307184092856529 1.4499448314517738
Ni 4.552088174367611 0.40572182139384205 5.801238926676255 -0.2832622919336089 -1.3847989908820604 2.1951968233623034
Ni 2.5840990792539733 1.5271129966709984 4.768236164184982 0.40968523414624924 -0.542609210702201 -0.23561435103834263
Ni 3.3433104131900198 4.165305307575545 4.928997309998345 1.305637552759545 1.0392738363534875 -1.28943188953396
Ni 5.073191726098283 4.523261938195772 2.742647895002002 0.7867758221859288 0.1744552630305189 -0.7080537855936773
Ni 7.276650790517836 5.986805450710946 2.5086657605746527 -0.19881286593927697 0.35887020837691097 -0.521449031684818
Ni 4.880026132847751 4.646850699420134 11.037969632377573 1.6812842092638465 0.23834871925037018 1.2226919650042491
Ni 5.350324685446356 7.758412988902108 12.414059710309244 0.19385629326495002 0.6569405118576299 -0.32048466662017705
Ni 1.9791817327247037 6.403552788008183 0.5487527090641561 0.4610633315079091 0.3915725837059385 -0.7316678254681915
Ni 2.846696966837555 1.572488798705204 0.4306798675535282 -0.48289276867817477 -0.7355679318535461 0.9297078177971859
Ni 0.46602204360338356 -0.07070693611426086 4.736464972515798 0.3775811545228529 0.5071930359864363 0.1544885901006049
Ni 8.647861817946087 2.377735387900321 1.2674709049117434 -0.5055400737640455 0.5641357719200671 0.7764366450434499
Ni 6.883598601286641 0.5930074406160913 4.731136048442541 -0.09404812542636061 -0.25564324466475974 -0.1500629502290835
Ni 0.9516000370860523 7.612167944281014 2.560123889407511 -0.056924481101185836 -1.1373848189953122 0.3021107920986797
Ni 7.669296467487129 3.9069351475157554 3.811772433725404 -0.3678017065385859 -0.5137159247066185 -0.7425716168648889
Ni 7.73370607698422 3.843952847738235 12.452204110884484 -0.13071848426420069 -0.11114673277986019 0.14501844582664056
Ni 8.012338614898423 -0.17003323882708185 6.947406572636115 -0.3906135622267789 -0.019013564988025318 0.009027657419907034
Ni 6.878955327895125 0.5465593495710434 0.5305283126827492 0.2797316530725312 1.2054424338951821 -1.8974551068655967
Ni 1.7271350967389627 6.723152728316397 9.22981031831725 -0.7873890302898955 -1.6482905279466449 -0.8816729258761461
Ni 0.17453378124664015 4.928726301823742 1.3323927198588323 -0.36906926039709986 -0.6797796212393324 0.2314573914471756
Ni 6.349522791598351 1.872720688135192 6.853929529691788 0.5293232922265723 0.4333080157715118 1.0377921096016387
Ni 3.5743177812208202 4.24475587076305 0.7531868222146421 -0.08308751264979883 0.34415912741898147 -0.814560448498365
Ni 6.00302077315797 5.508981904464225 4.68647390126812 -0.21366227224728365 1.0169360920882358 1.319945741852101
Ni 5.333106632753304 2.775286312829911 9.21508192738821 -0.09606849829049907 -0.5940662409309124 -1.367910699767154
P 0.33618473723328013 5.703574807434327 12.41605613719548 -0.6593077265382259 -0.6473063312019756 0.19744581038842124
P 3.893538310084593 5.932341841221751 12.543948508232521 0.36714221857771606 1.000699318514399 0.2997358641085999
P 2.556510447079483 8.455102736957457 1.3718722873742792 -0.1374671158419439 0.4397054346574234 -0.056896713187043944
P 6.343985191230648 7.659043324881351 5.856915749427086 0.2684951609267634 0.2084467894846152 -0.9378957529246169
P 4.652135358824875 0.9973823513821612 12.551419300245717 0.29793969144012555 -0.8176583706973982 0.5334709958463586
P 4.11885450644875 6.1391391456547675 8.194480498966726 -0.4660875241953779 -0.14186524490963953 0.2747424273880559
P 4.749318890237174 0.865609143284817 3.8219135596190132 0.48687129370994864 0.7851246597357511 -2.255733704405096
P 0.3036014244008738 5.520183575681109 3.5590681512359623 0.1796902861772131 0.5509722379549156 -0.10712861275940261
Ni 1.2310998011589824 1.0371934522312045 2.6588494573332975 0.9212817985170199 0.30865270698225555 -0.7127591614891468
Ni 2.0231663594626186 6.606845053383012 4.728240777777208 -0.49125322482772815 -0.6412200157985796 0.14263786140960596
Ni 6.240731076707261 5.795907292521251 9.108317353643145 -0.4718164562593552 0.06166122445522283 1.4332234049320347
Ni 8.500505639809123 2.4612330064952173 10.330679851252954 0.44867781335936274 -0.5630769916382496 -0.1696925515345529
Ni 2.4850636586485586 4.864217322662631 7.085942338050363 -0.8465390582874903 1.2835571759207376 0.43689830422593146
Ni 0.5435132176885162 9.450597064723224 9.212292349910973 0.26124105046751134 -0.3882286069343701 0.25888797685430254
Ni 1.531909841361455 1.2587878029974933 11.382087682242037 -0.38516616595896247 0.15725972508783884 0.25366375234088573
Ni 4.285885878061824 6.742159434961822 1.64147392955016 -0.3561317263998254 0.4220039036126022 -0.5092866852906712
Ni 5.566995721040707 7.977622467731899 7.884327903625137 0.1443458452396482 -0.22023606881005942 0.19183592040081157
Ni 5.241758810700768 2.6770729503541224 4.830496678857478 0.3508861617301699 1.0737019361243703 0.24635153495018863
Ni 0.4869646519760492 7.134217927552811 6.5557690460763425 1.2292606193607023 0.6230505439784044 0.614042169832207
Ni 5.3694036609383415 4.539007513140152 7.264922460081641 -0.7536744116462697 -0.5725576774351752 -0.6821298666390639
Ni 8.265622854881514 7.50276194419416 9.396719736251752 -0.4087436961685864 -1.355144401240421 -1.2530695488548418
Ni 4.43898742950035 0.3863582873185245 10.405488044409527 0.803155806205849 -1.1099035828559078 0.05597805802751649
Ni 8.15749059321529 7.076890665018654 4.56886809717839 -0.9739269355165613 -0.07759203675286637 0.026355607175393325
Ni 7.316019244681696 6.109743792316263 7.061177611055227 0.4163683025933797 0.01830034097108461 -0.7812908878119575
Ni 2.341646132649146 5.206410311126839 2.6765661650676162 0.08804974175108062 0.05465393989945425 0.4584750019554427
Ni 2.2183283795993862 5.291235869777285 11.35990204970853 -0.1971604179375185 0.23207882708125838 0.021431173290582445
Ni 0.971763045276446 3.2683585857009088 3.7445542761788535 0.1901533904920661 0.1955280245404181 0.1626742112351908
Ni 3.83669886226472 2.6331515588569476 2.776111984401865 -1.221288399788503 -1.0371755590635623 -0.1266869945073044
Ni 0.9840668164033797 3.2041838499551396 8.329525679092098 0.5436633629983282 0.7092598900866366 0.42231320732290495
Ni 3.7353508385693677 2.738049789639587 7.130128414198065 -0.14456130368456394 -0.24678733693602656 -0.8886935801683534
Ni 4.05454426661568 6.865847565850205 6.106657912568127 0.4646536199623288 0.04602197525606913 -0.5422150605875758
Ni 0.6442912208566223 7.558165048688641 11.266928178608383 -0.010633054233813945 -0.16813472012912978 1.0808809703713127
P 0.35822402535250203 5.524591975321304 7.921692704018106 -0.1596876178030411 -0.5613055015601236 1.0232412083706572
P 8.327141710516182 1.6932952093369849 8.041651762423964 0.046185754527443036 0.6394878635988213 -0.7431287749199396
P 1.9101288498360973 3.352759564877812 10.538272112998136 -1.456179499507576 -0.5576136545308332 -1.4184048518619639
P 4.054002250266476 6.183765158405908 3.8030992687775558 -0.9030717032668962 -0.45700201695434195 0.44757712409601624
P 6.8478345558449885 3.82754781956899 10.264784213598462 0.22198827561447573 2.4023680885686045 0.6842353430178411
P 6.266187777908215 7.688492879854776 10.239768352361528 -0.5179700719972821 -0.1472149392573271 0.6524397957737988
P 2.2903442851969746 8.529819690695247 5.931128627960116 0.13348730525858946 -0.34988343149726836 -0.008558688203288487
P 6.929940999143594 4.102277839768924 1.3470958166915763 0.3953423351610159 -0.6871417180313585 0.9274879273277318
Ni 5.349430358470168 2.679792065705963 0.6563953492949325 -0.7441800990025894 0.3072722816949611 -2.2312676009429313
Ni 1.4985577686737608 1.2406663897224353 7.066942858289594 0.3507231537897444 -0.8240827861665033 -0.1444646302056996
Ni 6.848846319696836 0.5193663893314722 9.213627516851178 -0.721497312693093 1.1920495575280439 -0.3119766291491659
Ni 2.8879624782236295 1.7561149042097435 9.26122468255654 -0.8905373182453116 -0.17624012284508359 -0.17726316479295923
Ni 6.278861926873772 2.100105580232145 2.5338261595047085 1.5344361664276347 -0.4208224817099913 1.8047969198082272
Ni 3.8446123009631004 6.912000257984937 10.322456559874947 1.3866599553501988 -0.2751309210757261 -0.13183305748461813
Ni 8.352986856767398 7.3088465616605625 0.4081916092250489 -0.3884165545754601 -0.5187956532223711 -0.0071216986464458
Ni 7.703434463881169 3.8868805425952027 8.182739521482382 -0.419180318120878 -0.10554532743268275 -0.6167523696745185
Ni 2.8165698914276254 8.234619519707037 12.20896614393389 1.0018000077777458 0.2170389020290004 1.7548892363445068
Ni -0.039540092674441335 4.939440158326343 10.199601327443174 0.49869554003838634 -0.14098207097373783 -0.6477544744829877
Ni 8.69689623033742 2.173693333242426 5.755492746803427 -0.3931214162502971 0.7568504953814061 -0.3102624746715366
Ni 3.5885005423583287 2.747264067576057 11.675633800004594 0.5505660036554325 0.3073044204844772 0.10412479293607228
Ni 1.1618662461539748 3.2675816956003825 12.809623241958418 0.5517618237357464 0.756526279272768 -0.3253422518227945
Ni 3.1215805583364302 8.260609203651375 8.117173610440322 0.08788133449401639 0.9534090180688675 -0.7819501186625114
Ni 5.572966934487773 7.763760883547588 3.5501835999119242 0.7647077866422959 0.2680117935324416 0.3495003371262368
Ni 3.13081290348454 8.452275218335776 3.654079100448536 0.062363392728570013 -0.3444288361406004 -0.5622704365765542
Ni 3.589259365247214 4.227221641866296 9.274750700550927 -1.7223910066064854 0.983881475626112 -0.9482025341672639
Ni 7.379290619845459 6.073473864948687 11.54267718954482 -0.8045681131723434 1.0079613993934513 -0.7524423390113816
Ni 0.6312882486392152 0.19825783685130494 0.2866878042239589 0.3328768696369428 -0.06874435655424935 0.026157375121658177
Ni 4.739580663163141 0.27710224508828385 1.6091345240748953 -1.0025258302001767 -0.4628579615144867 0.038257500819301855
Ni 5.89947758324834 5.553129136106901 0.17115521266993441 -0.019869999451049652 0.07174997614979256 0.33579198640120883
Ni 7.771150373108405 8.966531296854836 11.366393598850834 0.13671301128473873 0.36909060055333853 0.8575698621803554
Ni 0.07623730959730701 4.810611905726343 5.719424268845638 0.2065904530021668 -0.7173609219272161 0.23274654257224434
Ni 7.921243733808849 8.716959868863793 2.4973475558426887 -0.06743746481736773 -0.22703149446533805 0.7561213305248655
P 8.298956860357567 1.653429906853021 3.36771198923119 0.14027167517027453 0.04729544265185403 1.434555236369581
P 1.94327314958993 3.208637417624433 1.7917506724487513 -0.5703182465816952 -0.6020587722180857 -1.1620661237920762
P 4.626714792047201 1.0040672196890121 8.101082951753616 0.6800261900324999 -0.3103990002494009 0.07552924068656669
P 8.482284856870045 1.7583100704240204 12.417458152818755 -0.03382980406525141 -1.0212084942113444 -0.1293005208707515
P 6.3584931621776795 7.672367893465952 1.2905969358111198 -0.38047081736582217 -1.0919775945051067 0.2510836503185353
P 1.8344272330639204 3.119493795391994 5.880846674605031 -1.6633623346781032 0.3061718495419308 1.4818272819826672
P 6.925884910130383 3.9207113963913605 5.863063118187644 0.2880247463192588 -0.5275595154579301 0.7760995734190053
P 2.3022415440620057 8.583687082200317 10.19459038629478 0.1737034724661589 0.8236917213756717 -0.804119455670699
