# total energy = -340862.16418563726 ev
CRYSTAL
PRIMVEC
9.38404481128988 0.00000000000000 0.00000000000000
0.00000000000000 9.38404481128988 0.00000000000000
0.00000000000000 0.00000000000000 13.73449813511325
PRIMCOORD
 96 1
Ni 1.948672008192717 4.110671510448966 7.785290850148458 0.989881916183921 -1.134976980884768 0.042503677690165505
Ni 5.615628336778309 1.8371801700293056 0.1854869094777898 -0.11124057804524713 -0.6867704507348689 -0.04203496558386308
Ni 1.7483789525778821 2.281298865825936 5.8965631827523115 -0.6157419261321331 -1.1353773016469801 -1.2070182630227342
Ni 2.7918847520704615 7.795438756367624 13.770894543498661 -0.4633858089934986 -0.2364036797088574 -0.3693271420441769
Ni 1.718087255448727 7.32573915401149 5.516790883242737 -0.49605347442984893 0.36915076436731264 -0.03920803765802925
Ni 5.209139661269136 3.122540960262193 2.7696304894490886 0.4270846605696193 2.0130596183064946 0.7120523652301091
Ni 6.048908460646757 3.704764645727279 6.429942914203379 -0.16703017421104138 0.7281559556601912 -0.9527922104204752
Ni 4.261520033172377 9.043788873280379 4.684534950259664 -0.39389274719868295 2.4271434957410714 0.0908509586453016
Ni 5.346812984869456 6.206860705404482 6.390881827059604 -0.01832656622332973 -0.8781474292213909 -0.8204883839470257
Ni 5.439180139405477 7.6015080832353075 10.924790656461399 1.962450023679743 2.0540928820987205 3.791923620299044
Ni 6.487668866771533 5.69095406566794 12.85171326365156 1.0802862742101071 0.5254882347511982 -1.0286592940624348
Ni 6.014881913623735 3.7659861550428335 9.898535546817804 -0.21166169687748707 0.3088167433639456 0.5538153638306655
Ni 5.92996569078553 6.309325092316888 9.243647447613592 -1.2036773715749591 -0.5320131803539095 -2.362847918986795
Ni 9.374876747540245 2.923739967795913 13.472196638820884 0.18359759165141928 0.48108965403116505 -0.6502155344289705
Ni 8.032479732043726 6.9477779751790925 8.08143347938377 0.4851252575531193 -1.1030724188666874 1.2510049530163294
Ni 4.8655240869883825 1.7784735847628883 11.02495689076323 -0.383957490362842 -0.04853291460338093 -0.48278323968350406
Ni 0.015489304610093992 1.8596361896173068 3.001894047836327 1.412185353314813 -0.3826215451602378 0.28093390091074844
Ni 6.448959681313736 5.3064897436786325 4.0489573387730395 -0.7062555560426739 0.07249662450782998 1.0399976018933896
Ni 0.29502874309862415 4.393703690471409 10.857217087112781 0.7123382719016442 -1.4303414553985496 0.9203065790879441
Ni 1.694167324847049 -0.07684312895957632 4.081096754354714 -0.35366835246099737 0.2783792528096948 0.7691293127487592
Ni 0.7553123947424303 6.504879205227193 1.946824289740198 0.18164895256548072 -0.1339434189594016 0.04493054196410327
Ni 7.6679752736832025 5.667090439336018 10.576593791431433 -0.2770330231944455 -0.4172759020093136 -0.8985126231413041
Ni 3.1247649789175864 3.6003577615082647 1.2479015595636926 0.3612808747009326 -1.6474004120322079 -1.3099130402064472
Ni 7.738458835373749 8.89117615010459 3.622130622623217 -1.340906403264168 -0.8458165782991691 2.456354570087389
P 4.565572473904022 4.575040975268124 4.765211461585182 -0.6291957376441937 -0.9991792823254471 -0.48515945322516446
P 5.887287054309881 7.792079268272135 4.964018084478438 1.0205430927132038 -0.051469114413569425 -0.595817162183748
P 7.272259481787495 1.9412867648096173 6.142548091679281 0.7141755822206991 -1.5823694997738038 -0.9150075354725339
P 0.37241426985685766 7.471623516951344 3.774967624473538 -0.6647571796885713 0.4712513277845045 0.9715412088932042
P 0.07266816735711006 3.809387362980362 8.399881983487733 -1.9082177446987394 1.1262182608555313 0.9774076949763101
P 3.385960486319353 6.6473008555770035 1.6838636434815555 0.8885454846262633 -0.48501290034497113 1.350669653298519
P 6.3653009205001005 9.301249530788278 9.25659836806215 0.8580208336748448 -0.35951709793229053 -0.00833731622110177
P 3.1435612209713963 3.533740426341018 12.730396330415589 0.28163246963966976 0.46908645892270184 -0.32061759265361556
Ni 0.45344362127285154 1.8360728527240884 7.886720176901834 -0.9155011872795007 -1.4374081324373438 -1.454640180044914
Ni 5.868265595177044 0.9119611956552861 2.780920433939822 -0.7102615918782735 0.6105961202651355 1.1183784530961385
Ni 2.833502991465692 4.923883462591299 3.050404868254285 -0.3580142881345189 0.2654869702280589 0.6818357324374128
Ni 2.5571804035892662 0.9316498603847411 13.605366559245157 -1.1558602520916803 1.2564700898959589 1.7088896296859408
Ni 6.153925307788136 8.17344685542482 7.292880920585921 -0.0409504742704327 1.00607935187939 0.29376216302366825
Ni 7.471961342569884 3.2134535878294965 1.7722031659209734 0.33698240716488415 -0.9659909684989363 -0.932035180378782
Ni 8.529045855118811 8.219043929882863 9.878167477233283 0.35489296889671784 0.6174177711726593 0.27863379202266203
Ni 5.404825150808873 3.606654455676066 12.601951276628407 -0.4006886870745938 0.3387310144248747 -1.5837139296168403
Ni 1.581877842862083 8.136952304577457 8.826681485907175 -0.0667044433060851 0.8360391871974311 -0.9785708620464759
Ni 2.896000730895733 0.45645871491832785 10.649372690519064 -0.12397396645151552 -1.1791619029320983 0.45411672498674693
Ni 4.316651297309237 8.51324312340707 9.082431432018963 -0.3826372288895217 -0.12995538084593103 -0.11832628124743493
Ni 3.0272647517887386 4.0188298624306755 10.473543840113555 1.375892946641682 1.4540238866171538 0.6871738568208746
Ni 4.537758164644167 0.8649086558240295 7.174489932568311 2.291236525297396 0.3168835795324801 0.09662745611776262
Ni 8.128253294900032 7.323242998052272 5.93650355490879 0.27944368951846715 1.9972912997286438 -2.9118854018128433
Ni 7.401975135262189 4.667717803287807 8.139448460536675 0.8846332940560507 -0.6441564727190843 1.2266578916305326
Ni 4.273015488247721 4.697164936370609 7.865527249765377 0.27928890910815773 2.07275086351954 1.969384288905731
Ni 8.490299133481177 2.611448335589856 9.925111162143011 -0.2107381566219532 -1.3687275392414944 -0.4109075365891246
Ni 9.042109129232635 0.6901261264315021 5.2801318381964855 0.0067244632080271285 0.6230281753809012 0.9219963080855412
Ni 7.5217718532147275 2.4389789732798373 3.9883880205821693 -1.562393313762193 0.10606443316094635 1.1604082764736787
Ni 1.0995660840804273 6.297979781960894 9.920991566405805 0.7170212791996102 -0.42667328406381355 -1.1143983854024677
Ni -0.030771221826583796 0.4927956138103707 12.425271293345077 1.0764697286774945 0.8186875832928611 0.1458838791507294
Ni 0.7865180978506373 4.03421031211924 1.7480035907795033 -0.44928870747048427 -0.5823222130211068 0.8207364954020898
Ni 8.999205275677959 3.41886094794724 5.834250309007972 -1.1409311415856735 -0.6540271948655768 -0.47974111042307055
Ni 5.602847267543517 7.049885768383039 2.3325845483384073 0.2459355304586926 0.07304941168750645 0.0367174100256916
P 3.8703836552168887 6.60923916922141 10.248874789312014 -1.7726349903637022 -2.1107394269481716 -0.6827353614335467
P 2.338391395359325 6.112100619403799 7.48776032066364 0.1453200362274594 2.525442940244618 -0.04251601898533968
P 6.8862843285597135 9.007932437490261 1.6540317645554143 0.7029776566223507 -1.6206581109413574 -2.0999603340547965
P 8.484208888302483 6.859718097279467 12.062707455482169 -2.4866570777256722 2.2941590982608298 1.23414674380841
P 0.5299526782318709 1.241734365216332 1.0629870768284304 1.0774043246766218 0.1210562785840883 -1.3797542293693013
P 7.553480541132762 5.354526669826137 6.158521613009283 0.284558127926897 -0.7325674544643255 -1.1463332864378517
P 3.876032850282487 9.148833872556638 12.587626531997783 1.8640911866931702 -0.07144967130055437 -2.5519461287414695
P 6.8331706340891385 1.7169236338737532 11.93885026127567 -0.10356506377786034 -1.560877648448615 0.8494595743683951
Ni 6.799378688190103 2.088738263257701 8.203574331767184 -0.6696677296163112 -0.9984377761737321 0.4555639989562348
Ni 8.79758906972384 5.28562901173374 13.773367239345479 -0.3224569598551995 -0.320962377587544 0.36154338433369987
Ni 0.539644519866007 7.922742710287735 13.5817431644642 -0.6663931726300975 -0.5664721333627277 -0.44853588846485976
Ni 2.65722370690213 5.056358025284076 5.535304665543268 -0.02319469294890844 -0.5971135123976684 -0.07905756555479933
Ni 7.514602442865695 7.329821213568858 0.5101579737943741 0.41300992764410804 -0.14388150400871993 0.302235490602002
Ni 3.5673728434757432 8.128272062989952 6.859818506560533 -0.5716752748302218 -1.0604648686088058 -0.025299397996737073
Ni 0.4219939329956984 5.481886928016005 6.391966622656918 -0.4640658657796588 0.8734729065638569 0.9426026714819831
Ni 7.450678328601816 8.86534187433118 11.841953428237716 -1.0950184382139594 -0.09840743083632085 0.7747340605300463
Ni 7.791394232990095 1.3013418187988577 0.3917285111924298 0.30014852616598636 -1.7531843378382581 0.1775783820405329
Ni 5.180687236952036 7.906780449811684 13.743013607519591 0.7808298890151391 -0.5938430691765128 -0.1989123676316187
Ni 8.775724244968284 5.198573226644778 3.648486651296372 1.4593987777758222 -0.20722731525521731 1.0552391014334923
Ni 9.243509502152687 8.775283194855188 1.9977655778026573 0.8334284890474615 0.45503820835975184 -1.1002256934465118
Ni 3.7077300039344707 7.014282701806826 4.030375052944306 0.0625719091949503 -1.3837186133336878 -0.6382647898249976
Ni 2.968877224050943 9.083539687728676 2.17448685088381 0.8909823762025301 0.07256475874160406 -0.2565945528344355
Ni 2.6792668285119148 0.7285847578888801 8.304550409149018 -0.43409888710392336 0.5182732050599977 -0.5599091354332293
Ni 5.251255255047218 1.7696244303661122 5.072479814524438 0.7409515647629626 0.5215927563515339 -0.2714537293344551
Ni 8.513515260710895 9.248839639689663 7.5867310276376365 -0.2604172690146354 0.12812244140225032 0.07396523863355649
Ni 5.067271669571935 4.900667335361581 0.7912908231170215 0.4699773461680874 0.7500974929282888 2.16953721381267
Ni 1.850055079713692 5.534099754170471 0.10365709902675345 1.0754919381452575 -0.9582244371796399 0.09798756969008286
Ni 1.5984688343504183 2.1228211145504803 11.76339208064606 0.11031395246591968 1.5379788894735706 1.4914349802757605
Ni 4.130293548459209 5.686083746333977 12.580855005155033 -1.0456172620730122 0.5633410439329136 -1.3902499866943026
Ni 1.8313995983342746 2.430477028546561 9.533733614232064 -0.1211447245328365 0.4001029897744529 -0.2667786924562889
Ni 3.2294533844853848 2.132618057488162 3.7080265397551897 -0.8792465758228406 -0.23953348358709065 -0.2107947208915015
Ni 3.7365953262297866 2.980982642048654 6.577945256090584 0.634436674328159 -0.6435599767856659 -1.181298489659127
P 1.0495866606263133 6.145901949347794 12.003182581495286 1.8629401038078626 -0.10209079322517901 0.4310282185983996
P 7.660580646255143 3.657759964525316 11.638174199920439 0.2659286857511678 1.9507072813215178 0.9806961359195948
P 0.5957273261617575 0.7479027528424362 10.318714605518341 -0.1147889575181378 -1.0746604433828977 -0.777016685916636
P 7.33769442728985 5.1915633450600565 2.085473554016303 -0.653083857115701 2.548019025772921 -1.809081149005878
P 4.4202136174819 2.752209009981841 8.7778966513764 -0.5051212410590721 -1.023866757769798 0.12440334067945027
P 1.1114838211789486 3.582087025972185 3.9843500660361113 0.5648718787551432 -0.02980628472815512 0.35902010369121395
P 1.5661407994650591 -0.08615397836835814 6.610908590819699 -0.9566290676680622 0.7383619496589156 -0.654951249341743
P 4.184129814391663 1.5833136017408815 1.607678336073638 -3.3385306608521987 -0.3449481989791801 1.5088272076102789
