# total energy = -340890.47739707574 ev
CRYSTAL
PRIMVEC
9.07368593108013 0.00000000000000 0.00000000000000
0.00000000000000 9.07368593108013 0.00000000000000
0.00000000000000 0.00000000000000 13.28025654236547
PRIMCOORD
 96 1
Ni 6.38376435446507 2.2640660563205075 11.218934565990304 0.25890597457643155 -1.0155386975200766 0.7176596841145575
Ni 4.768711815339324 0.3851144422427513 5.839580942920684 0.05534788064268533 -0.7211882660931064 1.0706965736391432
Ni 3.3204426930989066 1.6656837053419546 4.597452349297282 -2.504357837439545 0.34288026070655786 -0.18508831726433286
Ni 3.576257114090587 4.567393950672832 4.719284727215748 -0.8754829950153502 -1.28396546710275 -0.012588635298287996
Ni 3.8736199419109445 2.7814929834673374 2.45601080365701 -0.4767372905997403 0.14247845301360626 -0.3880236900124156
Ni 5.337123782444734 4.529302618096551 2.6669277204274673 -1.8156760286145763 -0.12979751511182808 -0.49464810944189
Ni 5.250315831335331 4.6302292241580005 11.033210737570975 -2.2938012007007784 0.16464701869084547 1.2381810617787836
Ni 5.614597091206681 8.032126393802232 12.298632389759545 -0.4050657330963669 -0.25788987460709134 1.0746745844502845
Ni 2.106211146165779 6.720298283460225 0.21654804611701298 0.5234087265143502 -0.670796958124748 0.22113338381334816
Ni 2.5787686975170616 1.513327448722535 0.23734584111417645 1.298719485483473 -0.9854557620917674 0.4615963211932437
Ni 8.153777298006661 8.871133815907603 6.84674190845236 -0.6605891643538107 1.1851001227934042 0.04615130174508181
Ni 8.587826127239378 2.306304063262524 0.9919035630240493 1.0780483860185242 0.7457543854682447 0.27568576513793164
Ni 6.98624801138085 0.8236057479950851 4.758687207375942 -0.5888546148229858 0.4138187966986486 -0.9410978048016824
Ni 0.6129646712699632 7.501361148673713 2.399914556542589 1.0242279977639586 -0.3128474617898934 -0.2967824379072308
Ni 7.492160431372058 3.927989466636307 3.7265191640500244 1.6898187290974187 -0.8763098617920199 -0.0012678109688300746
Ni 8.001856578300927 4.160293967974547 12.403785518620905 -0.02606095875310996 -1.2869849706553642 0.7113095735268136
Ni 8.474867813937303 7.58372299378922 9.18188940382386 -1.0835438619154565 -2.2300406705143656 0.1960684704249204
Ni 6.840279629495517 0.8986986634948562 0.05031267984807464 -0.682729705006592 -0.3026466099974917 0.8587335434711533
Ni 2.084270974138755 6.801353517834669 9.082539804337388 -0.19152764513177337 -0.8845651598222767 -0.46406766555187173
Ni 0.41473730395351416 4.888684087688914 1.0257511327975841 0.030999276594991774 -0.17254056250630928 1.1929687269082034
Ni 6.680183518972437 2.2257388079159797 6.826091107163567 -1.4466116533134827 -1.0263219041785099 1.3785864343134453
Ni 3.622823269112376 4.606855409790088 0.7605726681616156 -0.3498199252491846 0.809537798472793 -0.44632062598109584
Ni 6.160442801971641 5.634885852435971 4.503720268628813 0.2632745359577724 1.0243832923949003 3.1888202088665274
Ni 5.487456607152645 2.9798800476521383 9.088263485278102 -0.23966435273800016 0.43582486865609454 -0.5049433207203111
P 0.4973804333257777 5.860376015812138 12.333161393329288 0.013001040245358255 -0.7401678925194026 -1.5345855475213055
P 4.238164338667649 6.05043343652266 12.403732891243838 -0.21915440571010644 0.4525594078019561 1.2722551206443573
P 2.5587521468588257 8.527086875151332 1.3632577608999759 -1.678078043621723 1.1992494177105928 0.36951688945747974
P 6.455909229480316 8.074990485057675 5.780072082613806 0.021955678335484768 -1.553003387906861 0.4309084051910837
P 4.750700549221191 1.2573043329597124 12.446441822473778 0.12980445709036356 -0.4676296718715172 0.8431063784568577
P 4.129289183931395 6.181094510629005 8.067463862768006 -0.19741495715048582 0.28676079200517063 0.0590986059343692
P 5.043871334247305 1.2632022286659017 3.406970267320123 0.2939017739253261 -1.5252359879856054 2.037570716073981
P 0.12569686065887448 5.579454706483496 3.2973546998306014 0.12968824322747344 0.6165819055349253 0.7591963699057634
Ni 0.5355724838133484 0.12370609401589308 4.646522841572777 0.9935480521815987 0.31345964145259564 0.2552076997892379
Ni 1.7056986592870231 6.727647968878708 4.700280799881836 -0.5586356680374444 -0.2729287712180848 0.5500386703970528
Ni 6.115146962948107 5.779674655180066 9.059989880631202 0.33513969752919054 -0.25162615308556663 0.4004405756195297
Ni 8.652811864235883 2.5539612408082597 10.212490421629074 0.652402000557328 0.17004916354302327 -0.4713071207231044
Ni 2.4872424298427074 5.495160166313499 6.765281080327045 -1.3513725929028146 -0.8359705387430247 0.5660013643738961
Ni 0.8506516829665284 0.10615577113141436 8.783854033141704 0.8293324646012168 0.9542842215849694 1.5576786818953432
Ni 1.6381269218654984 1.2531758059653801 11.12388770826364 -0.7646823327209992 -0.7220642409401565 0.25888437730987673
Ni 4.309492581969731 7.376325759702501 1.7057431203469622 0.8508202021613476 -3.616984732763887 -0.9468015400546791
Ni 5.565490304188379 7.899677803612626 8.110863301479858 -0.2578428234192398 1.0787317852387937 -0.9011986546138995
Ni 5.4135151423684365 2.9358635983125634 4.751502663037234 0.2296203382384368 0.3074347754147544 -0.09064424195113421
Ni 0.9073041470144713 7.620407905081716 6.946038880561763 1.1480348425099907 -1.0248309214552802 -0.6970350658856704
Ni 5.038000659598221 4.479642336250438 6.871709062029514 0.416652666603018 1.6387388797024678 0.6643278054606365
Ni 1.0866555259654043 7.765160413083003 11.169784225280633 -0.9066481077642451 -0.6788565952044309 0.14323487156365655
Ni 4.843007153865904 0.36805591312331176 10.37296944168877 0.2035552657202688 0.4599557002660272 -0.5138784184264118
Ni 8.168404079358009 7.46087436307215 4.391050498532055 -0.24816647667174038 -1.2519218084036439 0.51283120810882
Ni 7.273602563872089 6.352060896622877 6.943701499124971 0.41608265303216085 -0.4705645861301251 -0.6301110503696116
Ni 2.412484333345333 5.8050083856595736 2.614949111884537 0.1517079420316742 -0.6919748777539437 -0.3491784350104438
Ni 2.604392785939028 5.311227483451712 11.133409634039138 -1.1379134378052724 -0.06462544928986934 1.8952910093347421
Ni 0.9086933282954214 3.4958007429724645 3.2057476763535004 -0.03462941714841133 0.701024903771354 1.4796786110707807
Ni 1.5806814176872155 1.2306004759392282 2.6151614361299598 0.19366757429291165 -0.8388517169455617 -0.6701937773231103
Ni 1.4602191663097264 3.1187346599472363 7.937131256084068 -0.6897017654490508 2.8516264570217857 1.5619184310083036
Ni 3.8034440566929955 2.6614299742607286 6.752851038284109 -1.03415991216569 -0.8820202819132359 0.6157784357970234
Ni 4.304193549519862 6.747519340565714 5.706432771563469 0.13414653610914315 1.9137281329940075 1.9738104429978844
Ni 0.5846084960831757 8.952225345024853 0.306186987165387 0.4966623116584414 0.8667229894345332 -0.30472560401370746
P 0.2496942199857963 5.727555404508757 7.8618586816074005 0.6608707001499715 0.46330353369233757 0.25799863227081377
P 8.664707466190979 1.735451274703322 7.960982346319898 -0.12105293614997861 0.4830532055154391 -0.12431566606165041
P 1.7558489201610348 3.2888934879136453 10.3613224587219 0.3277611456769323 0.7111859034647559 -1.1924028271024045
P 4.297297548386472 6.275596947213559 3.713784246167507 -0.8600548333857381 0.1733823416813143 -2.4482723072998867
P 7.065325182272295 4.103701390252237 10.362663549468632 2.048413058105124 0.6979642625681592 -1.6884503879949824
P 6.456499019050935 7.924095091836249 10.180458496364473 0.43362323301908545 -1.6904753888448112 0.2786864996374684
P 2.5184286875998954 8.686801890874936 5.566990184434892 -0.5657787068401289 0.28156356407494737 1.86569838327929
P 7.010429383776225 4.032164452179012 1.4986897789483435 1.0667170201661047 0.4110980553333759 -2.1428535338738968
Ni 5.425982386522751 3.247698954827339 0.10262157055055177 0.3289785630238012 -0.5509519262399414 0.04137470629204487
Ni 1.5218748606536585 1.263347407637131 6.895335124859939 0.6708491515189221 -1.7803390438761788 -2.887236235805595
Ni 7.1489754907574605 0.6098188244371389 9.105182279637733 -0.6160612571447648 0.9752711082492816 -0.0648164822547529
Ni 3.151853612758914 1.666164610684152 9.11607251721707 -0.3758081217828302 0.9243362690726273 0.12052071779559244
Ni 6.60605150678849 2.0096036144984 2.2189979668080904 -0.18981863286046666 0.5182822039210623 0.6107403591524837
Ni 4.189193656934874 7.005411635583114 10.463274391267658 0.8827777289045506 -0.055898610939832755 -1.167144823866564
Ni 8.279012308063312 7.057639770482845 0.2519236245627358 -0.20908673706145922 0.36515449872372596 0.8139701232125337
Ni 7.906709910031544 3.9977025938834636 7.994780918190641 0.4441812110405899 0.22665225674904835 0.7065931418877508
Ni 3.067604441017427 8.573689324915927 12.268672894309244 1.4996789654521077 0.04294256499979701 0.5180839718673271
Ni 0.32023396000038934 5.124001052680161 10.15717814095929 -0.5477190211249405 -0.362553313655453 -0.4652123206792762
Ni 8.599131939623858 2.270835025854072 5.630775472813044 2.0070877169937758 1.3615459338913907 -0.17569427764394258
Ni 3.577636314317265 2.8105469250845956 11.458178622153302 0.8597038778042226 0.473591545881907 -0.0051162381806428014
Ni 1.2676483346597982 3.14747102256493 12.63159582343103 -0.860478551186718 1.2826390349818428 -0.78328709230638
Ni 3.146981043537031 8.69644721877598 7.8895479408951035 0.7357024005488814 -0.5361811956886701 -1.1475633021902105
Ni 5.8857278936630495 8.015957085881572 3.6181131188645566 -1.0117733169403738 0.4838075671829603 -0.5204740693660584
Ni 3.2239894140884586 8.271590033159216 3.676533136887216 0.4889544014912225 0.6716760182955916 -1.467174565066499
Ni 3.2998726476128595 4.4446814252412885 9.139843759018722 0.8875080445006843 -0.8172125414092313 -1.0071147351224399
Ni 7.402793700894739 6.165006865879661 11.417063030132603 -0.21994450571156957 1.2359732554941874 -1.5404800586288696
Ni 8.073702021688014 0.04804244368547689 2.3794497658106826 -0.6656969178940212 -0.3113821900982766 -0.5755075040921186
Ni 4.547368326328894 0.4999891179650537 1.510947420962945 0.6176111181303879 1.2472246600382906 -1.5534669578068407
Ni 6.164471518423253 5.776943475783815 0.19440462353026813 -0.8899662762331899 -0.528812928249057 0.32323960365749493
Ni 7.905630141433026 8.698343619087662 11.671300444549306 0.5733104964407997 -0.5915666144375102 -1.0542841937193907
Ni 0.05615522607148268 4.86981989511481 5.552461398889123 0.304282860049334 0.038170083311818134 0.3358374949271636
Ni 7.025292080955822 6.132622881609832 2.5146567564536446 2.4222871960900347 -0.23304299076674057 -1.2584230998572716
P 8.594821938915489 1.7649679742913735 3.4864122003767815 0.33416293543821807 0.5063078051680054 -0.4599744693191046
P 2.0502083580140873 3.2037460212876767 1.4546397569716714 -0.6409179111771285 0.526621577024693 -0.7481781644183889
P 5.055766936202403 1.1398817662923362 8.022628966978127 -0.2892632467120502 -0.36019021273991514 -0.11947093637483942
P 8.701392377483478 1.5266748403899262 12.209270196125077 -0.08122423418881496 0.5922795813441347 0.3135522011664019
P 6.519497618878738 7.814766252814906 1.3299509827942702 -0.7791391315762776 1.408158234433291 -1.0218047330344466
P 1.8116974556557959 3.224125519373986 5.598132888500711 0.35824594452935077 0.38933443840403914 0.2988313500164595
P 6.935535181993323 4.211188271076109 5.976381272772888 1.0076096724809873 -0.11780409019537776 -0.4132888923371075
P 2.7861659316037795 8.683489995593767 10.10182593607242 -1.1800844147463676 0.4157057293087163 -0.44767328335424833
