# total energy = -381164.513808496 ev
CRYSTAL
PRIMVEC
9.28775706493669 0.00000000000000 0.00000000000000

0.00000000000000 9.28775706493669 0.00000000000000

0.00000000000000 0.00000000000000 13.59357128540409

PRIMCOORD
 96 1
Ni 7.253942495316195 8.380696015398573 4.5006956192880025 -1.6561385632361543 -0.12803476678445044 3.1345390789254597
Ni 4.053910858353692 0.29495686957506134 9.43527066125193 0.6654750316912024 0.6159075051757199 -0.19132941307803822
Ni 3.7648201360575064 5.4307093705859755 11.372667036651052 -0.3171982825594215 -0.7264459149476199 1.6550990662280463
Ni 1.0481419454015677 8.727621600116477 10.235198231395085 -0.05761096564524917 -0.5699793751850377 -0.39947589771341524
Ni 3.7722131905761644 7.131390542585418 4.01110915930371 -2.046551322306037 -1.0229409035214188 -3.1555935856029143
Ni 5.950136464820265 7.63534423376935 8.986343214793179 0.5476609141934955 0.5522799010227456 -0.004083168930438129
Ni 0.20082916816200067 7.216447820577723 12.309427414585148 -0.8281839528190705 1.2556131412123022 0.7225710053732458
Ni 7.7615741382455905 4.920672198610936 2.88386245932819 -1.2976457928033198 -1.505128161492137 -0.052473387308367696
Ni 6.5805151033760305 0.2326954621990827 2.813882925940898 -1.1911743540119422 1.3462722955617716 -1.7776111034220545
Ni 6.8910419686735525 1.8204560854072565 12.51299089838822 -0.8932400618884553 1.0832715820906762 -0.8799600569500974
Ni 3.1230918585296297 5.050208544555321 2.267760960729814 -0.19608235438199134 1.2474028374873678 0.1408213770261575
Ni 1.4385063692950555 2.4917472932528337 13.239540544882301 0.39777562719285686 0.8729484015189548 -0.03605972183703468
Ni 0.41573578950733137 0.17081949673582297 6.427040492712563 0.7438646246446996 -0.4168511557670692 0.5938484684931515
Ni 6.120966178088714 2.403253545195324 4.08697527303513 0.8835626866996912 -0.22697030221009942 -1.1547968438241727
Ni 7.381166189784265 6.087149455095704 4.984952764344146 -0.35802431543684793 -0.9013436648321961 -0.12242281991431174
Ni 3.5309637042418003 1.0250340061522936 11.989964798342395 0.5268126099895766 0.8504625617116127 -1.0485030682612395
Ni 1.9795739371832075 4.948600483708431 8.04309812496847 -0.30239104234325986 1.4265079405850725 0.9387827835152606
Ni 5.097269608934771 6.6647550587582325 5.509162124623232 2.581497360036025 1.2270281304857575 2.100579198585718
Ni 0.07708188111394776 8.768329838753763 4.2525313979170285 2.794384958900813 -0.9841159602344214 -1.9283708226078464
Ni 1.3598576435865126 7.541612190801635 2.6170883593905874 0.1924100477367267 -1.262468987791871 1.938636723310229
Ni 8.3970331798437 1.34576811631917 4.763037601617183 -1.385348692737943 0.4447856773938082 -0.10006219283092445
Ni 5.298460999617159 4.9761944095563395 3.8626675841222284 0.1563904351090081 0.7494346625333093 0.6907803432252103
Ni 4.818293253938609 2.416897260129883 0.37625074845811923 0.6103719200694714 -2.1683645336608075 -0.4216768592904867
Ni 1.5015981021408435 1.7586646385320868 10.694103515126944 0.1224269336793698 0.9630442271657864 -0.12287096319532387
P 2.7844973917806173 7.825362452861352 9.27224266380719 -0.983273409728468 0.4578419963571341 0.6979465219563464
Ni 3.60385402065189 4.142952584070249 9.114326647778366 -1.2495077996455126 -3.014125576131693 1.5937623149917777
P 7.959644842598493 7.367884697370093 9.774769755526213 1.1552300747068491 -0.17991062971813532 0.14909158745474968
Ni 0.17622218494374212 7.140576134192143 5.84628262434698 -0.00938195543553223 -0.26834629405372495 0.9032768772991668
P 8.240423022439655 7.0151821278398705 3.132421410368816 0.6249385050297366 0.289964643654449 -0.6867956475458494
P 1.6287010557687849 6.356819477645013 0.8609230562491678 0.5181089115679915 1.6641367509502822 2.291075060018867
P 6.0666885265723325 8.440128372012765 6.639616815843406 -0.27833888649006255 0.4317902935754047 0.5744718637387525
Ni 2.5357155345735993 0.3731319196800218 2.9608700383866737 1.7707727403439828 -2.092623434073751 0.3235193396814428
Ni 8.204024303019274 8.586401255950394 7.877814131364708 -2.308732368089314 -1.4094263025124372 -0.19996574859679755
Ni 3.479128732798794 4.97411395200335 5.36710866866026 -0.9329278673963802 0.13771856973111768 0.3793660143374176
Ni 5.646287496757561 3.8861089538453975 5.878607733576551 0.8035661542703901 -1.3109157704393486 -0.9023543654848977
Ni 6.1150034381377365 0.28914923516486396 10.654328696061423 -0.14576560840531025 -0.7193028761449354 1.9367569897890127
Ni 5.196704334659341 2.7803086134038395 7.9956841258255675 0.8872121105268204 0.7545159337109586 -0.7429264291011463
Ni 4.822825679321908 8.991412472527204 13.43309925691716 1.1078320450388597 -0.5514836303736954 0.09411266011570889
Ni 6.8728751161126285 4.78059424854761 10.61763926984904 -0.4187494012310466 -0.7179700162661248 1.527486474582679
Ni 3.0018216162556044 2.6976011379155813 2.112576474014983 0.08193283022006534 -0.42991827336367244 0.28901642080856677
Ni 1.7650174642742507 6.391072725213873 10.653675766749034 0.23603112686078703 1.463041773845048 -0.8308579001068078
Ni 8.67631603081865 5.449879300895662 0.8581692363185368 0.6851959071588974 0.03613942603503453 -0.8039680176944992
Ni 8.526569525788084 0.626635672511771 11.059389137749978 -1.3699110180266343 -0.3369237860128068 0.38141595488791086
Ni 8.04365260405737 5.158457351609297 6.969641469270351 0.10704505190666082 0.8895921807232228 -0.8612036022782007
Ni 8.918159933596726 5.3728187816226605 11.153266998501541 -0.6586677789613817 2.2283877082919754 3.0838690633744177
Ni 1.7743423722349705 3.8059091727290455 3.9302545913235827 0.6262754786736053 -1.09184852512641 1.2283864442858652
Ni 9.09335489262368 5.0709388180297505 9.106414407647154 -0.395310453481816 -1.021309281455267 -2.2817291000275928
Ni 5.560180702231829 5.853330174307731 1.1443593921245507 0.23278485200934748 -1.3740774906994981 -1.5649320210236466
Ni 2.133713551243077 1.0670796817879302 8.503064070542079 -0.2784967522241656 0.004505344069521273 -1.088005497231236
Ni 0.49804110512039157 5.607984787165918 4.017743404080943 -0.5721792110498339 1.1979929195956722 -1.0519984830090077
Ni 4.48570796592524 9.292958076870525 4.471945367701938 0.8449763417860608 1.062128372354158 0.13066654798034272
Ni 6.1001616025588214 6.986538685458536 11.701278093472796 1.0282923976413194 -0.3614554526055839 0.7334873951754336
Ni 0.9493294993915078 4.918313108349958 6.168939300198985 -0.5648664794385047 -1.3299560749002513 -1.5791077983033965
Ni 7.633254488459427 7.567877967408124 0.5062505534734597 -0.2542656475909427 0.08087970636520263 0.7700217426560415
Ni 4.09281727214598 0.5906985546109602 7.0163356672509485 -0.07041351672655614 -0.45401259530871485 -0.3069943454432261
Ni 6.283418334603608 0.8730807300744492 8.50336313631532 0.8727643105326065 -0.6124228890612292 -0.81031170052434
P 7.2203115274618455 5.047059994955037 12.84209142000033 0.23507596203636935 -0.12694281927185233 0.1653774690989668
Ni 8.800196132790845 3.2791168872468957 12.013997798182196 -0.5242525625718842 -0.4307957908726194 0.6927210118913489
P 2.4306245648768394 6.4864394134017935 6.414397997975379 -0.9115841116132816 -1.2202157355496146 1.2139437864979739
Ni 0.6008621470227291 1.291388299476525 2.6158920962976184 -0.42938759767118306 0.48805065873003045 -0.05329691165092756
P 3.346592441365054 3.1510108558701915 11.519015151419836 -0.20231393711399998 0.47274385316963097 -0.005802979835022264
P 7.984926116970087 2.3668083869902783 2.580684996091741 -0.28086062447065174 0.1659140583287272 1.157183341778478
P 7.035280833842857 9.11595200524164 12.806938188784665 -0.09218253297253157 -1.0173279282100158 -0.4319741274514367
Ni 6.144696397052499 1.3925412602336977 6.146740632353449 0.31235046754881685 -0.7495272222471155 -0.37847641264361265
Ni 7.193674240578036 3.174276686987327 0.7677473499217383 0.23680142936790832 1.4413437200463242 -0.12268995753276936
Ni 2.4285348195669174 8.14433188921096 5.37185285490163 -1.260035438649714 3.5538147849736212 -0.5116395017935641
Ni 3.7536469644671215 2.8456572711843435 4.746426448342534 0.7055266482964494 -1.7309520088026191 -0.3206846984461251
Ni 4.120336895938423 7.904512717444277 11.04436897723795 -0.0008597768971340031 -0.3743695895640907 -0.2142942494043277
Ni 5.105489273820465 2.5208086846961533 10.277215114984228 -0.13110852061376777 -0.1808529390267466 1.2419310157395194
Ni 7.917255519956336 2.794741787677703 6.977538848990471 -1.710545677232125 -0.649682544743636 1.3575640664255073
Ni 0.7467523753747188 2.398256731965376 6.310665827117916 0.6414221045070566 1.8453360175728544 2.7368752947201185
Ni 8.639490074579353 3.5169113280021893 4.857811730912781 -0.5479013123390758 2.423498185679 -1.2653437382365047
Ni 2.3627403494536297 8.29595452114199 12.447905084128918 -0.056650915724825016 -0.7380089371948709 0.8316220319663419
Ni 0.7213605766956228 3.543204967879478 1.950024938500906 -1.059019137301215 0.684789415749098 -1.063158356280569
Ni 0.6698432465397246 7.06058997148525 8.243209349519551 0.7371062228749434 0.5180307500318885 0.2506995275062392
Ni 9.096252672786772 1.1624277944619856 8.698199843704156 0.06868342140932687 1.0039509926824774 -0.005712991224377258
Ni 7.601759704699664 2.5237714791577766 9.980196363370045 -0.5932540294422621 0.5494876829895892 -0.508520496548608
Ni 3.068433408978995 2.9287641202207206 7.188090441109923 -0.6998437389790592 -0.3051907165755841 -1.2790004097879908
Ni 2.6978147563250396 0.8341232336190307 0.6538701621663718 0.4153676292430072 -0.8976379338458348 0.11742973757509453
Ni 5.474111058733828 5.38596095768284 7.385590877187141 1.1905845429467432 -0.07292728428734538 0.5628440496918371
Ni 3.4687171572769144 4.129838271280869 -0.02027703093609952 -0.4706635736018346 1.035169584377127 0.050987546791460565
Ni 5.256517489307784 3.6367698312224004 2.262418642941959 -0.019003280575380175 -1.0303901607106125 -1.4696222552760432
Ni 4.013722734104653 6.982266317269361 7.821618558041664 -0.9980863063715845 0.917447255262278 -0.7233325661296188
Ni 1.3421273156014386 5.185735493721483 12.948175250913227 -0.22295295352059025 -2.2013862400024666 -2.451889078116868
Ni 0.8008043343976294 8.558185050387976 0.7617279546534688 0.15793592521925703 0.4472097134542685 -1.470065770571365
Ni 1.6641617117389333 1.3732413013269484 4.743095858706364 1.4487994049934212 -0.6824389132390505 -0.6159422150683972
Ni 5.090220201422634 5.38692688440387 9.579512312748314 1.8039075752247384 3.095578895612178 0.4113916753143947
Ni 5.902406681941639 7.030636955376363 2.9596329091631994 0.9767600340899824 1.2779485714847088 0.6975366881124374
P 0.8572989734939158 0.59976154782617 12.383063537876955 0.5522513617776554 -1.1268988318623236 1.4238090535966705
Ni 1.4500696266766255 4.187988917438308 10.642515598018354 1.7652163293021277 -2.109468530655548 -0.08226295986597446
P 4.202208473302712 6.604765436728062 13.260447285738458 0.09795800200372806 0.4319250193810561 -0.7795929312842445
Ni 3.7708014515223507 7.666885456313777 1.7099893619976831 -0.4215146226810095 -0.03131732205604284 -0.846118168699988
P 1.0362629042842761 3.055802059550131 8.707661281691792 0.19525934426006375 -0.5788103432131063 -0.5093761596806841
P 6.9896593717880195 4.285306034582157 8.541533959758514 -0.27775190363834096 -1.3050683105196363 0.11763696848989416
P 4.495497261732609 0.8461072263896653 2.220767696975974 0.3418798444665015 0.2024314365284707 -0.6046357889166426
Ni 8.347780204828064 0.6781985126766407 1.0676610953719354 -1.7583273154917785 0.8606173907574275 -1.213068325871556
