# total energy = -340870.53599455435 ev
CRYSTAL
PRIMVEC
9.28505110267139 0.00000000000000 0.00000000000000
0.00000000000000 9.28505110267139 0.00000000000000
0.00000000000000 0.00000000000000 13.58961083610877
PRIMCOORD
 96 1
Ni 6.950947211562663 2.5151811078350503 11.32492965576817 0.01536619804342515 -1.3216881784645043 -1.632682646206059
Ni 2.6815042308748986 3.165979634993315 6.975534027272455 2.099175376259656 1.4914347231654443 3.0760364547038765
Ni 8.206249000347082 4.021773523647352 2.9993900309825943 -1.5779757415814823 0.3098045611985116 0.4465072880706052
Ni 1.8242061639183744 1.5747168368329771 11.611887878667503 0.5103004712671663 0.9321863612446656 1.4429480884189665
Ni 1.3761653009046508 6.641290752377773 4.23073174501659 -0.2081878793962737 -0.19728228822736346 -1.047090504184429
Ni 2.548542296976019 6.023305596336732 11.159095854929193 -0.8588284171778048 0.691577385205209 -0.961413633540899
Ni 6.789378034762774 6.01041794520184 2.8683185335181993 0.5228220007729447 -0.4423549564651285 -0.3366489350848654
Ni 7.556926796337555 7.549665886260117 11.55823606703008 -0.2861072175815718 1.4447442610874408 0.5673380809074486
Ni 8.722488564791481 5.528161668332155 5.1668654681157 0.10177994685297956 -0.8953231696697289 -0.3800895227670035
Ni 0.6240891487327397 6.963751297236305 6.743898925235532 -0.6412380135207086 -0.43671472746021567 -1.0230663733556897
Ni 7.416555391541238 1.9881987390944922 -0.03520891433970323 0.7371972399268529 0.6629815758453873 -1.0308339331162504
Ni -0.209523680990359 7.39620255920141 0.5076843182227209 1.066529329635331 -0.4891305220577705 -0.3822669900342965
Ni 5.881495008596677 5.626573926530075 9.14674576902853 -0.012432312226081816 0.45918514064858984 0.22735982433903426
Ni 6.873147767139568 2.1887465610415515 8.088223928393951 0.7287881899275512 -0.0009937313718369981 -0.5363544880417408
Ni 5.287548850241683 4.040659317889692 11.08230105305134 -0.0727899873785327 -0.0951956087672425 -1.0379479184532125
Ni 0.44431291493688 2.8318199255598815 4.399256353707795 0.2538090196694983 -1.8958815917308893 -0.3420024860872949
Ni 4.84767883232789 5.385051173417111 1.1734466339753593 -0.5515926451477339 1.080433598421249 0.5572061346797693
Ni 8.421123656372771 5.936471797047464 10.12025089490345 0.5253326830099404 -0.5991210297460005 -0.9830348113551004
Ni 1.662544136605987 1.550083595866935 2.2848895527139916 0.14472251185277657 1.4224260572062148 -0.20699283064690804
Ni 4.5924699136725415 8.38094723961436 5.443332511607745 -0.7130116438195849 -1.21063271984687 -0.1135067483716045
Ni 5.477391008097583 8.14715893419258 8.020669609520022 -0.003314923305845904 -1.572350424974905 -0.3989125690107775
Ni 5.103361288596986 2.717530229724595 13.338339166016452 0.2504043648633236 0.1126927371107414 -0.19523029079434118
Ni 6.771736437387923 1.8686815594054995 2.073530217091523 -1.1449253503467314 -0.6946313415401842 1.2505886914145172
Ni 4.0100000786624515 1.5625534196955797 11.122879512528874 1.4946527158821097 0.643676447758872 1.1173032177540885
P 7.704067003495065 7.878598111839843 6.916052131955207 0.7082522747577286 -0.066068352383983 0.6002402309521082
P 7.2701858436374724 3.8568988686024914 9.43742729747908 -0.11775549634562946 1.3081019551396376 0.1419848012066393
P 2.8850046991194334 3.817604531712823 11.055597245656568 3.2941601051566236 -1.7216309885120091 -0.47769759763048053
P 6.926156124725372 4.3956453972767005 4.774084587615886 -0.8999064181650371 1.600359251483005 0.2439457537221734
P 3.0634076738354294 1.5411142363595103 0.05026741045682631 -0.0635484141756067 0.22729194721557627 -0.37732378709640824
P 6.041680712760327 5.960705780809759 11.723797815867435 -1.1257724315673643 0.2269664455553575 -0.7461678188565796
P 3.072943421469099 2.9560539112838344 3.7453371208244315 -0.6286581199731689 -0.3861598973307995 -1.252879801441539
P 3.490120774128083 7.254809798767602 1.8076899147550136 -0.5983782380427048 -0.29791038086408694 -0.24520122339582934
Ni 2.027455935779161 4.307883092862441 5.235343649588998 0.03557018379512583 1.9985292859008033 -3.084956897121958
Ni 9.450975115757842 1.201225650304875 9.945543370584922 -0.7493729560574385 -0.5202940921447684 -0.29974897673472245
Ni 6.501931418167698 6.712720651643421 5.509364082076688 -0.5575187808241817 -1.1363234676103333 0.1789588073278273
Ni 3.925348266416915 4.793379852618348 12.746389293680188 -0.5621663068985222 -1.0051136455320109 -0.7486034248812655
Ni 7.795404052640545 5.688217381778306 7.565567465030732 1.2387006817276796 0.7396354170547004 0.20465955452804108
Ni 5.660993611513536 3.9365088980193206 2.891828283283001 -0.27116550867007494 -0.9201448566990992 0.44237012597378006
Ni 7.660204421390435 8.401959310592932 2.3972479578892947 -0.629943928664128 -0.5500983199903945 -0.7944346242827672
Ni 0.5578876618259228 2.862637010658372 0.20479294737852388 0.375291844268044 0.33549810930987384 -0.2131159128255104
Ni 2.8054875202151037 9.144689130176673 9.720893412603317 -1.9233438017069007 -0.11626888449777396 0.281376901985438
Ni 4.854243363561585 1.462757688861421 9.026028960718048 -0.04071856076528471 -0.4680644454160906 -1.1390791759785996
Ni 2.126657423333325 8.594104161158812 0.5801095749823605 1.4310446521131612 0.4455904326832906 -2.0045721496607736
Ni 3.3121727669233327 9.360538716583603 2.817493091481252 0.7532432376461221 -2.573303768481639 0.7129229407605205
Ni 6.143305598690721 4.266954586952785 6.934126412718304 -0.5530828565400152 -0.6999139300953624 0.1914343140870187
Ni 4.30206136572874 1.837892329460759 1.8888468337100794 0.45420054294980483 0.5061532818680121 0.4722422309428641
Ni 3.869080855842389 6.980863646689911 12.875259305493229 0.8880091525068191 2.3018592951185646 1.310332644242369
Ni 9.610677997256495 3.9886258906851313 8.872412430313718 -0.5349064427413046 -0.4942968967500584 -0.2815661351781086
Ni 3.4401950535572534 5.004679763912818 3.168241473477796 -0.44880276897300125 1.4662708223053071 -0.6827209632558435
Ni 0.5180417928920086 8.899907324074986 8.035360417607649 0.08878636280678903 0.2905043182080029 -0.07549478790420545
Ni 5.401754980615721 8.22437342038693 1.2142627907648904 -0.577313961173238 -0.030640607703992392 0.968111614386365
Ni 3.644345475389283 4.524066941114368 9.15268448780798 -0.3637799869737025 0.19934354163176637 -0.16123053681012878
Ni 7.8095451856941756 4.664679757243183 12.094617693150935 0.31960432089775276 -0.006665327835317553 0.7883189983033326
Ni 3.469331544379508 9.036397577448835 7.632536825675918 -0.5777932148025017 0.3326580687579174 -1.0021712750742353
Ni 2.0060910328530914 1.3017270450340281 6.267270317928425 -1.2850967524937158 -0.4648623935390252 0.05857950020610556
Ni -0.1426313862705478 0.438857018822426 0.6155645431801866 -0.3131791340976994 1.5057333991763036 1.824442976173929
P 2.487706641186532 8.393222077366756 11.75887302546914 0.44737092162248115 -0.5828796281864735 0.773481676180184
P 8.994568421567937 1.9567317004085074 11.871544336871564 -0.397168075515845 1.0858144031171881 1.9453179919851464
P 0.44857753897596914 1.839777194864493 7.964653823834369 0.7754128317646258 1.0269646799688312 -0.9984318626364611
P 8.837270368343013 6.259498730032241 2.8223036765338367 2.451517810820378 0.7833698818281735 -0.2784214189015399
P 6.537753145889895 4.184466191648481 0.6626703936864147 0.7464434411154693 -0.5882758595013804 0.31059800363408446
P 6.185469016416614 0.4649210861860813 10.783832152117482 -0.2929674350365148 0.5995509181945675 -0.8362718720335275
P 5.9639926889522314 0.12967502575640702 3.569243338354291 -0.7648504828677473 -0.12402513140442512 0.09358892640175495
P 3.7428505840997026 6.912980637001732 8.965990890830929 0.20824881454119618 0.08042127867154536 -0.004128163235760632
Ni 8.584484848063894 5.151810686019076 0.8248245287150479 0.7736837648886611 -1.316611021051913 0.1512142902247073
Ni 1.1287372551967363 4.317325989983611 2.56502511995488 0.9741413655202127 0.31550855356182433 -0.43484502124132846
Ni 4.2923677722238205 1.4023491454294301 4.680139367574303 0.009948883682595768 -0.20626623689352863 -0.14650120101975414
Ni 1.0530919426636238 8.534874819235561 2.4713519519149196 -1.7003137150914718 -0.7551862203051058 2.596489205459167
Ni 6.763064199520496 6.5316435821674474 0.06664624086168826 -0.7368874219959181 -0.4657052011552947 0.5053462125856845
Ni 2.3542525995714065 8.470232292433607 5.696941615932732 -1.6937234634684635 -1.5027663461281797 -1.120345089904206
Ni 1.5102321559022707 6.771597161619174 8.888719765823955 0.22161752253861833 -0.22050166376662023 0.9926803048646645
Ni 4.0609564399220215 5.717075321063063 7.02180608017644 0.11192783392025885 1.1834880411112778 0.665846298987692
Ni 8.470250862536107 1.1186629745905712 6.312781925135042 1.0521620051700655 -0.49612803642152625 0.2103632897810377
Ni 4.535023301589276 8.323240646096096 10.878415255179934 1.1725842497145806 -1.1933855027306481 -0.19864368735126436
Ni 2.362349164261339 2.1893872295777963 9.318138530050836 -0.10219800822700464 0.8854874145262298 -0.6728085892381381
Ni 1.946202452291096 5.910148676753935 0.6021485726291748 0.4265683830548331 -0.2031333476915018 0.7583551049513907
Ni 5.080910034674675 7.1951069192306045 3.4374243942642773 -1.887522164022601 1.1283597326785666 0.3389241042722873
Ni 7.3118107283908715 9.011235088561547 8.952958392896539 0.23278099535460556 1.064747812254876 0.1622255537335464
Ni 0.9313463506746501 4.006620320007479 11.172875799489203 -3.0618174828910174 -0.025176756375943736 0.9988838625722152
Ni 5.517929541854741 0.3589043710144749 12.877216594296712 0.20175446506610414 0.055427327730369055 -0.1154240199989754
Ni 8.792358575447142 3.4599072173608376 6.4691709718425985 -2.0410501899821494 -1.0040623214493611 0.19240490553040412
Ni 6.449062336350643 0.10842061494021116 5.948213672858115 0.3422485406598299 0.35796440873318996 0.1972897444265312
Ni 0.50541690870749 9.054039174823686 12.206053164231994 -1.0360018504704351 -1.4456945408158521 -1.812738800363123
Ni 8.455255504767484 7.824215566669052 4.494478268296243 0.8779612813525137 0.724198770784656 1.2324418453021613
Ni 6.490139403080297 2.4283658786482825 5.229051170356926 0.06663939439610458 -0.4505840292431401 0.13262315748608128
Ni 8.051560046523386 0.9634447728456293 3.8827150250977738 0.264983291118763 0.2310269887779763 0.2869651947064929
Ni 3.0554503849142463 3.6008728654371494 0.9000947251776634 -1.0218805805777047 -0.09959913715157685 1.0323166883093642
Ni 4.4253854164302 4.266536759646539 5.24643278629678 1.0252235289080087 -1.0359064625431516 -0.5161227343758983
P 1.0057846065452727 4.723621262577686 6.943231333973977 0.22101665572982582 2.965725330451434 1.7394883284084042
P 0.6829730867494934 0.4383426269831804 4.7873343557495245 0.4697888843063652 -0.8256642717210103 -0.9908044279981905
P 0.6482943488361608 5.8549954723294 12.451847969425048 -1.0932456625842528 -0.21052989726588905 -0.027519288466191318
P -0.29244661669316 8.320009448261123 10.022569370238898 1.248246930655218 -1.7018782313651142 0.8677529733609441
P 4.760900743346122 2.240287880529867 6.660662154800484 0.4250874276339324 0.2180341760627342 1.4144355828015704
P 8.898533136489997 2.2295079360287082 2.155053895570961 0.5927570352011856 -0.37735284056213075 -0.6758826001777715
P 7.2947076639885156 8.651346502114581 0.24426927127269113 0.04264354570213946 1.0110364387743491 -1.3269424848849083
P 3.3007150136809296 6.4947262183977585 5.113662124453649 1.301732304167868 -0.3123918623097136 -0.3533729327077656
