# total energy = -340885.65824330575 ev
CRYSTAL
PRIMVEC
9.15298885424740 0.00000000000000 0.00000000000000

0.00000000000000 9.15298885424740 0.00000000000000

0.00000000000000 0.00000000000000 13.39632438648398

PRIMCOORD
 96 1
Ni 5.25407181324102 3.4125453992103214 9.931498929560544 0.08285765602717989 -0.24476722118220423 0.24413755801800538
Ni 4.764213009536591 0.5073721323355334 6.494524203436655 -1.1027875406364167 -0.8068049729226621 -0.16451717798120052
Ni 3.7310968658917854 2.6878849756806016 2.850121700874664 -1.0871485485475791 1.23376287810643 -0.8771781233295862
Ni 4.807534105183614 4.6752185001395885 3.4440875136639892 0.9017691824053888 0.7068299404889054 -0.7709869347827883
Ni 4.719866779152093 4.911923941620189 11.79512889606916 2.8616254772160263 2.8772765534897218 1.2906081692302482
Ni 5.805328865329188 5.8127793981533324 5.586950453177562 0.1446736608927121 -0.4060543222618814 -0.6079746234818884
Ni 3.4439035385905674 2.6068627194652088 7.356618583306792 1.069808771717551 0.5153516605378285 0.11234949483870973
Ni 5.776048454390073 7.816972727848284 12.874121649813693 -1.3006694101209921 1.3299337063027483 0.3759806428049525
Ni 2.1447100126387726 5.357235149188116 12.33694280968722 0.2668684239566178 -0.5342140446599702 -0.11944702511543945
Ni 8.37675121244171 7.440308935736236 9.486580385209024 0.34317850867326705 0.030585586096340874 1.1619907904694504
Ni 7.625739334365658 9.148576986883981 7.379257585625268 1.0307562858007797 -0.4020122909820238 0.05370237461946235
Ni 8.69430500335188 2.603677479388056 1.5978866682901816 -1.2174618269535615 -1.0744395856213433 2.5108416453916758
Ni 1.4254040875146115 1.7096318464681353 3.0147620009085547 -0.18080665916984348 -1.382303478153716 0.8688292371442585
Ni 1.55214552242362 6.987464818445617 1.025326950237745 0.9738788558874454 -1.2068771094591795 0.06405029351268969
Ni 7.849831957379831 3.9917007609397595 4.201101006448629 -0.2416029645216097 -0.45085116686159776 0.849351330925305
Ni 7.638123328113899 4.278097778221689 13.157253796016542 1.425831483343338 -0.08735940055227535 -0.1067779142882032
Ni 4.527965217492364 0.39278220526108815 10.985347507971897 0.3776942830619495 -0.4135783985530683 -0.6250927712194138
Ni 0.4888126170928817 0.18464964869097042 0.5798583112637057 -0.29066064128020913 -0.9520005677571152 0.6227561526664371
Ni 3.417103587596592 4.95166621867478 9.89866441309856 -1.0464592983583332 -0.2100287892597544 -0.5763523685909171
Ni -0.02569243935795387 5.051708385465815 2.271949370134555 0.5873998846543304 -0.049877087336101196 -1.1030243392375714
Ni 6.342069277295619 2.0121472768991056 7.416620085610721 -0.04859307841735502 1.5593504131708111 1.7529524243331103
Ni 3.4446632366549457 4.664921387821207 1.2960970698652983 -0.018759282885374148 -0.050788029186144786 -0.26312952573947584
Ni 0.7386544279951192 0.20858196831663553 4.99725725552621 0.5262402824258744 0.978110891690922 0.10007324857451798
Ni 7.103295890791504 0.5727244718495307 0.9716858598005208 0.08593140985649718 0.3171203781336345 -1.7783947756656147
P 0.08465965393568169 5.905554091894772 13.25493906821026 -0.759423141204589 -1.0719175905304377 -0.23871638700243406
P 3.832026872589383 6.297283703452204 13.299897633540624 0.7222424183892335 1.1157993795150525 0.23532150238827215
P 2.1085740131427975 9.063069766192138 1.974792099304634 1.8262643456533838 -0.19614997439513315 -0.17115602345395683
P 6.264955347266849 7.774090975660178 6.228406547979264 -0.14339505129060465 1.8403581047422886 0.050082775589004064
P 4.862058459033038 1.2303172857777291 12.921250388771337 -1.0595189597557688 -0.2084269919902733 1.5675244643411714
P 4.102726514203735 6.50966050089524 8.516846857904067 -0.32875179172497576 -0.08094989748150576 0.17538651659553664
P 4.712773212888319 1.3015183850885672 3.948955388283692 1.0660572750949189 -1.6034196355758836 2.07182706615369
P 0.1543550866008544 6.0743901219613265 4.2421338549137895 -0.6764189322972157 -0.6589837675399037 -0.035062133810455746
Ni 2.962794992109581 1.8060219707569174 5.164189463937455 -0.7379089212818969 0.29078945354858954 -0.14666857983555387
Ni 1.6556383659649039 6.948784288083411 5.641258796493018 -1.0601406525001678 -0.16068237761614262 -1.494675341589929
Ni 6.680729860211292 1.2770982111637292 9.99586823808521 -0.8158148897307562 -0.6229906372747464 -0.7093953872232363
Ni 8.555518235277546 2.3841338917714254 10.952686898295735 -0.11156685103641431 1.3637763658838062 -0.8445037730250166
Ni 3.5926121464454575 4.718823338437163 5.406435209494781 -2.1442380729262487 -0.8237454574317425 1.55727244759586
Ni 1.6667867062349386 6.792844819133835 9.825748043700196 -0.22956608796173364 -0.2170777256867358 -0.06970080693024769
Ni 1.30983845184182 1.4779147838439954 11.980627026815167 0.8375065157715771 -1.4696942461645592 0.5188308773356807
Ni 3.906083704383186 7.437682027971458 1.9439538496841073 -0.4625910810063453 -0.8337802159599255 -0.22044355683517522
Ni 5.536935776874154 8.367643988657894 8.514301411738963 -0.43967792385359766 0.038957097989487745 0.5265819820360093
Ni 6.681041061828025 1.2443488174969106 5.292914351503703 0.7338964576883942 -1.505408154626401 -1.968840500587119
Ni 8.499309731502272 7.7026793576086074 5.587941721856745 -1.803996792504435 -1.1882052440812891 -0.18651965039422072
Ni 5.063726259664957 4.429286846021718 7.74998749514531 -0.09937339429401595 1.0006160147719736 -0.16910634001377972
Ni 0.7762732116649411 7.931906807298882 7.673213140998326 0.07009341438297605 0.16696589663200923 0.04255201442959768
Ni 6.404675720191382 2.528714501710236 12.215451529112277 0.3502906942380161 -0.5848269817208315 -0.8859702676999193
Ni 0.6382012920102214 7.878874390612031 3.016316178394476 -0.30463638673401083 0.26493392593806636 1.3631986390034652
Ni 7.115496824765196 6.519243680092881 7.818322793685582 0.49452443937983226 -1.2959864028230261 -1.790030817242646
Ni 2.171555728576385 5.850764301372253 3.260075828287322 -1.0180671203688854 -0.8497318541931752 -1.566940052592611
Ni 1.275349990316786 1.6018554042024042 7.705592753920555 -0.4280454818209919 -0.8076938032855185 -0.4479226803608931
Ni 1.2067300338270888 3.8432667427466924 4.344802929469603 0.4394493527825593 -0.37769556861353015 -0.24319319182686505
Ni 0.9257424328830823 7.531747293123467 12.136694637606926 -0.48531037698073193 0.6179412477762971 -1.0865309695682384
Ni 2.1693040933494325 5.557960191981108 7.626099046822647 0.2862092903770748 -0.5614386847038783 0.025565250063614035
Ni 6.4812313179077785 2.2457223962349175 2.957760848309483 0.10233736201834634 -0.46605358563364896 0.4257132341433894
Ni 3.7174314537217015 7.265120731492831 6.371064114986438 2.0256760215189242 1.1653540505147284 2.0634216156988137
Ni 8.283692776049717 7.330271705254825 1.3293562850042355 -1.3677862583741478 -0.47412325001566086 -1.049433550495309
P 9.195824714695082 5.530574449708576 8.331026541954856 -0.30220900823944086 2.0425877096725986 1.5507415884558777
P 8.338885298076244 1.712084847447092 8.593393302631737 0.24107485993228162 0.4221609980157568 0.12026977812705093
P 1.611969456746237 3.461934926383645 11.065337307058833 1.4048553953123033 -0.47366096566726174 0.010537923416846368
P 3.6445095925301025 6.537732717322331 4.392507391418203 2.4359940041531662 1.2284887741916843 -0.4891132956665899
P 7.016726923407276 4.299680525641017 10.93946540607893 -0.24345364457710325 0.7553260883170798 0.8061683677799277
P 6.514639726762973 8.144137156922278 10.64236122258363 -0.9030323653885287 0.6700068581232849 -0.0428561759335778
P 2.332959531796249 0.1286562401507913 6.563609131753707 0.6678093362513338 -1.4653125721570959 -0.6862878546714956
P 7.095790440034995 4.035543576944248 1.9750062792408563 -1.3943424115961214 1.3891089311113238 -0.17514534711900806
Ni 2.7053488781725776 1.8587065738721233 0.5875706195654555 0.7249929845511771 0.020948834337525212 0.8791966964215117
Ni 0.6693388443621356 3.511004098951508 8.864762943020938 0.6935396511379024 0.49990318719324234 0.4678456445370652
Ni 0.7186871830861856 0.37476820814659256 9.72366842161843 -1.3757813607644822 -0.7817115202891439 0.21301975356727829
Ni 2.6387700381691017 1.7466099209270356 10.082917737377631 0.7777435367803316 1.0720528305567214 -1.5049561546906467
Ni 5.3054475389682 2.9092774670201775 0.9302731623031705 -0.19638445900344242 0.9821845475396634 -0.09625413193874391
Ni 3.80338717086119 7.15224607450591 11.189293487498079 0.12634838022096304 -0.4029890530729962 0.023197264052069726
Ni 7.263381663634616 6.416830889221436 11.784277112633896 1.7468193148521787 -0.8741573342253912 0.7081861974064836
Ni 7.404950940282094 3.9394829602496535 8.824305817546733 0.32375382428975213 0.11515019751229845 -0.6503893410026734
Ni 2.794489835389219 8.674140969185306 13.290292487170037 1.6384128638216169 0.029949238063922617 -1.139653817535147
Ni 0.22798630441883083 5.00986092100391 10.94384602648389 -1.7648877423181153 0.7200667508941534 -0.3533407939182495
Ni 8.83022688595452 2.326900253258677 5.8706574070724935 -0.10781149775904013 0.44277918848674064 0.5019549275159484
Ni 3.804229245824116 3.0611804679409476 11.920317068791123 -1.975595559922765 -2.9634391055204192 0.5908353926984405
Ni 0.7950359232573422 3.3774253814630937 13.391608749991935 1.5520317680222109 2.0633485963690332 -2.116881021069535
Ni 2.937221541605084 8.622701172537035 8.807842336722668 1.0121690097168956 0.046343877371862116 -1.1547523637394823
Ni 5.34810046643812 8.17339010889521 3.986169609851761 0.35713162841924945 -0.4040339493977429 1.0524677093359422
Ni 3.0352683568535346 8.69441483921661 4.044270036396998 -0.8827491896594604 0.24194389280079623 -0.03106946771129488
Ni 5.274007022689408 3.159739850558136 5.387867456562275 -0.026840260121295714 -0.4916471178320372 -0.30746202910826403
Ni 5.950714938276014 6.1488679912365924 9.840658262337215 -0.916247578527222 -0.5915524733701232 -0.6165698213500671
Ni 7.510796101926333 8.86452313471628 3.050236239319535 0.8460605759891752 0.16510133261944468 1.8133862041391349
Ni 4.882725907579621 0.6109436915798735 1.8123485165653315 -0.9796880063700547 -0.5882324078579546 -0.3377182568896442
Ni 6.194275968313475 5.758795070638829 0.7096998634547018 -1.8054494657905615 0.5001497559864096 0.9810157240425428
Ni 8.18918816743879 9.059527559554615 11.618966813825157 0.3598014619419287 0.12041247435250228 0.4289309697497387
Ni 0.06899156783203174 4.932811061896231 6.208767895365647 -1.0426445525979333 0.4945010423410645 0.3872168778404041
Ni 6.949397538328149 5.928912519127227 3.18947699563475 -0.021945136812523497 1.458449269378359 -0.0689281904302813
P 8.468912655938409 1.6067614061603177 3.803940011380328 -0.02345925946420476 0.007390636037116305 0.49178929983685626
P 1.7124418140074626 3.4795178177290778 1.9723006557730218 0.4740597437675772 1.4202771291840122 0.28126248789476077
P 4.512304453779695 1.6772760313165973 8.920544917521513 1.3656998081587641 -1.8051275636747688 0.19596511207783668
P 8.538173321639027 1.6714455774972112 13.032761250437868 -1.8656551887461807 0.5112924028667903 -0.9101311812168391
P 6.060321978287234 7.704729627083556 1.9193982115261028 1.0535138912122695 -0.12156767100286806 -0.820596884500432
P 1.7157643489155272 3.5028213270291673 6.557125154539181 -0.42066461597588845 0.2355773271528201 -0.8101682329679403
P 6.909755944149561 4.070498840894381 6.51147096206553 0.589394546486856 -0.1343439968319299 -0.3636496320434253
P 2.4045175976674584 8.780956347634655 10.90910951896434 -0.7642506445002193 0.35939857007655523 0.8587199166243985
