# total energy = -340892.69805443834 ev
CRYSTAL
PRIMVEC
9.04051371617653 0.00000000000000 0.00000000000000

0.00000000000000 9.04051371617653 0.00000000000000

0.00000000000000 0.00000000000000 13.23170565275421

PRIMCOORD
 96 1
Ni 6.200083740662656 1.9003792631985708 11.455124614175066 1.4100845049217263 0.2508540508062325 0.9298453718163148
Ni 4.591197760672121 0.5819803572413338 6.075575977892514 0.27033838478308925 -1.7886755887663324 -0.5806340266854064
Ni 3.0224426209929858 1.8093955333283456 4.667100105589096 0.3497217091084235 -1.4033443579844154 0.87298722517669
Ni 3.3840541284531542 4.403968721958651 5.156991078134775 0.06049754316442484 -0.07232847436108189 -0.26164162834003973
Ni 5.0480872420097045 4.549267858134551 2.423625211037989 1.0373205692818588 0.4037351872104014 0.7583401925530552
Ni 7.490698435867691 6.106297451545633 2.705010295878785 -0.7154320803356196 -0.3923865949668016 -0.5106609399303785
Ni 4.966026499160734 4.453320886243384 11.787861624930889 0.5834360149105758 -0.6466471003514218 -1.6540909366785062
Ni 5.712781971240471 8.042404824884024 12.518768172444302 -1.209379821276375 -0.8750549063389961 -1.3207186154623836
Ni 1.7616254589409976 6.441384091811918 0.5827280077242697 0.7023091698004162 -0.7816264167745054 -1.9101674122259424
Ni 2.5473636260923174 1.5180649793668985 0.3497982682092321 1.1109479649600222 -0.8114938937578993 0.4019793808615593
Ni 0.5391138574845115 -0.0910506296716003 4.7837778794442345 -0.06241172946800219 0.30982898667854386 0.06856437933295934
Ni 8.837888665803238 2.2672704306591576 1.3808869366471215 0.21416389447405051 -0.2752121679356228 -0.38757169007666153
Ni 6.889712206676221 0.9861030722699402 4.781951695676966 -0.26013907565258426 -0.7664106282660156 -0.34250333698311336
Ni 0.8601452111024224 7.10476794655628 2.541386942485679 -1.1891192712551262 1.4812760374648877 0.9121476974262355
Ni 7.503020656039901 3.847317171948777 3.8174265215046272 1.297897760913126 -0.11260686226515446 -0.5669421310206108
Ni 7.659050881976925 3.823540620919495 12.663840391726348 0.39048217885523717 -0.208906245619537 -0.3057221635990219
Ni 7.802849292878734 8.922652522248313 6.823828559040861 0.4474215723547585 0.6420322272872298 0.696555812256407
Ni 6.975759816066603 0.6529022831613386 0.27119190564478257 1.3873672658298688 0.907955770832075 0.7468399052229395
Ni 1.8489568212766867 6.441085754859841 9.284383364489313 0.7532938883783995 0.03668552834649166 -0.8404198327636301
Ni 0.21280193981481205 4.696619190920202 1.5218710356343232 -0.20694269413526295 0.009484542451667535 -0.4757060211217485
Ni 6.372106635333825 2.0282844510169276 6.9561328608253215 -0.12376056488912879 -0.043628535323228086 0.3211978906371178
Ni 3.4809503542827525 4.3340313079805055 0.6680189261180163 -0.08557839739245261 0.6855298934595484 -1.4962303447818748
Ni 5.8580449453615735 5.731586239735112 4.941062928682729 0.6856443075502257 -0.8047478332833173 -0.7821270105600079
Ni 5.324311097579543 2.864342117418811 9.610690761902163 0.3249596716723952 0.04257978234373957 -2.3055953651222296
P 0.23022572186756293 5.558577929070713 12.469017321505428 -0.110040644199875 -0.16010079408105976 0.24632119593288546
P 3.985835922850167 6.15131920976838 12.559257017098195 -1.1666218614835586 0.7238370165698631 0.9666525133423352
P 2.2321118728823985 8.38853897289091 1.448646490875095 1.1669381071723965 0.6891487211590583 -0.00685738924146561
P 6.291980562416516 7.640364140160376 5.954730527221976 -1.8554283688118496 0.9775956426174004 -0.02990655775144527
P 4.624087149510344 0.9541538968564489 12.665295914431944 -0.4230261742295295 0.6331192410683161 -0.8207143839149026
P 4.035088641484208 5.8891804745421235 8.348253539795252 -0.67259261657259 0.8317845256861353 -1.3386080941482947
P 5.006392392828317 1.0208186448754315 3.720200316925003 -0.5456338564611377 -0.034308800584198974 -0.559922762279984
P 0.27806902441587555 5.393995377174108 3.654002059412907 0.4285532746953458 -0.22361192726082776 1.3599284528926254
Ni 1.5719464410150046 0.8850608668578218 2.827588813025487 -0.5688694299503106 0.6220488421867674 -1.1697830328203596
Ni 1.7058454894160284 6.689934934948057 4.882605159000012 0.4322870307061652 -0.9137284116497941 -0.9165052030639829
Ni 6.067305715960352 5.862402472964659 9.127270085011105 -0.4752231679480591 -1.9616146722626409 1.0002483470199095
Ni 8.488807310330364 2.6076186498984626 10.204224895651262 0.5790466275936286 -0.4588588676574227 0.49848985178548344
Ni 2.2097998850724108 5.302008150283255 7.065994991402522 0.4501135173646248 -0.1532503468181296 0.2739042477574767
Ni 0.38201323472548415 9.152796879492582 9.035389536181906 0.7648821074366311 0.25613741069235885 0.5118950694477958
Ni 1.542492447382533 1.0997242484433294 11.343435395779226 -0.5833902492743049 0.17620669850398685 -1.0132049071805778
Ni 4.105875863750093 6.921742746713006 1.4851132109841496 -0.9469102977184014 0.5240008515723944 0.82114092992936
Ni 5.884172029952685 7.983749972002661 8.155600192862172 -1.711609342609949 1.2630294882810313 -1.1415790595823179
Ni 5.235596536647854 3.081558540073014 4.621610048756723 0.38884695724465934 -0.5465969917053555 0.1865834137526206
Ni 0.6060073305000875 7.452773480898931 6.832561695274431 0.2815566220964119 -0.5880061507797615 1.1785281260028413
Ni 5.150335451949315 4.319928106609524 7.2106178971537105 -0.3641036888617084 0.5672547771650231 -0.07360065620528614
Ni 8.08576312858609 7.245736676670194 9.139628467238113 0.8474086053766373 -0.45783119772385666 -0.7923085790787
Ni 4.607163307865167 0.5073500126018567 10.27909029364692 0.027172960870366105 -2.175529169730047 0.11152211384140795
Ni 7.97822621813236 7.154237637519105 4.898734339491018 1.3350134348185008 -0.10028922124006599 -1.163337791415648
Ni 7.281076044720939 6.062243028288718 7.062899519511865 0.5929506392692304 -0.18711871743080033 -0.262493949038006
Ni 2.3920385602238414 5.06018344933943 2.760160141598909 -0.1736044849944494 0.6499741078421257 -0.05622462682068381
Ni 2.186601926919887 5.289007891583595 11.423539771463657 0.34346672933764716 -0.29649653123569586 0.8615514725359227
Ni 1.3969401768230512 3.1650205625453824 3.7784456345357835 -2.31732576618528 0.5001181314175258 -0.15250292712914382
Ni 3.794656179650082 2.6044092675351944 2.518297470497547 0.14644206564704457 -0.8672690917459903 -0.1993419989698696
Ni 0.998226401140764 3.2888213571442364 8.051056596494298 0.0033216081740652472 0.3305996435669919 0.46280114013462237
Ni 3.4809322732553536 2.62204730976262 7.071724868985168 0.3916947111060996 0.4648811625921026 0.016327276405113816
Ni 3.9550800952449894 6.773451200502623 5.8974245189845576 0.3904508113966695 0.816595990871155 0.9954699517946598
Ni 0.5069278206120973 7.415463280861728 10.999583073430054 0.20241369591665784 -0.2675261121452748 1.5477462532729795
P 0.3323862388242904 5.508855103724307 8.150479645902863 -1.8267248302295702 0.39078196948384314 -1.4805124198259858
P 8.408391940974674 1.8618124317571578 8.049799061038717 -0.2076129807294102 -1.2756875433646737 -0.629611999246006
P 1.667423306193805 3.178735021827291 10.42174146336028 0.21487531871877832 0.4287543349625583 -0.2663380053744446
P 4.034826466586927 5.962273027801341 3.778472756076882 0.11353863005080446 1.6861484793346833 -0.49906475045234694
P 6.873104783010521 4.074089417583189 10.47310695004586 -0.33158617584997735 0.7377166027654327 -0.04721085335784773
P 6.3576598944422695 7.73010931965379 10.2554321733471 -1.209089543729466 0.8240853572696647 0.8936936044861061
P 2.5686269143131804 8.51791776444226 5.767528610049605 -0.7925147815522351 0.2759413327921635 -0.013220098234699815
P 7.028863793536565 4.176608842933781 1.5536140873354696 -0.3930553388990521 -0.8924219368625341 -0.19227300793823016
Ni 5.365861298541741 2.8900171763249554 0.2805108671660691 0.27284752435818815 -0.3784774410848772 1.0286508094220026
Ni 1.444728332237798 0.9025090582975609 6.991513815239084 0.3002272019227216 0.551848469912282 -0.2830280644356158
Ni 7.018883066412486 0.8560842123486758 9.330429412914196 -1.4338409839113757 -0.21306551920354916 -1.2509357903412908
Ni 2.659800494971092 1.6182790737241564 9.091901787316521 -0.3592623016090071 -0.5838353072315237 0.529176739346379
Ni 6.569587616582354 2.013060225947228 2.4156858319072225 -0.22292724248897736 0.36639814132284 0.06059293109170854
Ni 3.9312402606198122 6.660743116212867 10.445822679701232 1.1010708150556265 1.3846215847639316 -0.09835832276594028
Ni 8.148260199789673 7.258302990712285 0.019050170467263355 0.9601990444075076 0.22075080366294886 -0.00668795354313687
Ni 7.4315915573013624 3.877982594416961 8.059551063166204 1.1292801876103067 0.16389728500901452 1.2798848692754732
Ni 2.951781965918892 8.273191058600945 12.465682276001738 0.9048231387403642 -0.2369585237710629 -0.28765502168466583
Ni 0.06557717422095112 4.981766033511297 10.28739942978799 -0.5297737495004295 -0.7105282152760989 -0.3462224377059134
Ni 8.810694800595602 2.1001113323582374 5.830220052297724 -0.18902364776299704 1.2344707028067319 -0.4533813894826192
Ni 3.624586035937972 2.4284085468363132 11.238878238640803 -0.3208047689637572 0.5240414750023427 1.6884419033545501
Ni 1.2580417243462887 3.376179841021023 12.666526328346425 -1.0006725790415216 0.17501679196094375 -0.3030448738771749
Ni 3.0101927249303713 8.335995507270306 8.012737475128246 0.8376566681961961 -0.47100115944691145 0.23757815963293277
Ni 5.721189648980864 7.774923146061452 3.4515967103523435 -0.03941244035935148 0.13175875260325698 0.5237313999610916
Ni 3.386241932768396 8.520629918552064 3.6238727394070938 -0.18592135468858947 -0.7168019640999526 0.037129300752129606
Ni 3.419149402634018 4.136025976937414 9.495905167564297 -0.7523616063721172 0.7336565737634461 -0.7711895377118976
Ni 7.137937591319183 6.071500514316848 11.418618115805733 -0.03343256862683274 -0.5481329687339076 0.15164726399706785
Ni 0.6196829155730891 9.074686841130225 0.008581255603419883 -0.19697169896548014 -0.8002540591780217 1.1705271100752357
Ni 4.923346233986119 0.28331342641286655 1.406173253464194 -0.7658354724888359 -0.32900093162130434 1.7517476053917314
Ni 5.840822766764318 5.799489538130905 0.3926032924728989 1.6790416930865728 -1.06933466029461 0.09568668947104811
Ni 7.845439152916357 9.027061414962066 11.28055862300027 0.34368964398173063 -1.0790410889490964 0.17200140217338764
Ni 9.060674044896238 4.764766583185878 5.819197857995481 -0.024628340071641455 -0.22081019614597452 -0.08439594704857722
Ni 7.922844031210163 -0.29446670816375065 2.6086971831827945 0.9954061884362599 0.560330539241364 0.501924074278013
P 8.571573213247882 1.7272353448286828 3.5664473963888437 0.1250448309181911 -0.9164933759894408 -0.19232622977366876
P 1.9310537261804541 3.1736904151830556 1.5771402161352794 -0.7298528837466398 -0.2518765785334759 0.2631382674902243
P 4.660077434547444 1.0908103019357736 8.185093060703553 0.608211936303675 0.1504470730413796 0.19229331965320431
P 8.576129632152353 1.6537450089666936 12.289846092652184 -0.19306799303569977 1.5477202851310505 1.208222053522848
P 6.615558628743532 7.601092148650413 1.3557995111314343 -2.089652267260569 1.0872673335136307 0.5979714895225895
P 1.752512621132056 3.1531232465170422 5.9463282737898036 -0.2889012353869411 0.32865100448105333 0.3527013605620377
P 6.865998939242834 4.00780437113958 5.840302937226606 0.04856813871669055 -0.19143842785207676 1.471015278968828
P 2.3021848945660346 8.361896579018934 10.227631689670238 0.451141701518823 0.9597681275176762 -0.312242738326359
