# total energy = -381167.8383877557 ev
CRYSTAL
PRIMVEC
9.24431902485788 0.00000000000000 0.00000000000000

0.00000000000000 9.24431902485788 0.00000000000000

0.00000000000000 0.00000000000000 13.52999532296412

PRIMCOORD
 96 1
Ni 4.282467704301772 0.3062975644619435 2.872404010647185 0.23859837336733103 -0.6099055219560141 -0.12649750420431763
Ni 6.680675133030907 7.1477535894016055 12.687915501209645 0.33174969801103504 0.764126203107213 -1.4254571307230548
Ni 1.3751386568781059 7.112144473027067 9.756384826924986 -0.8418030862644019 0.41854165609561467 -0.10513420803719313
Ni 4.227510228484889 4.121450157829365 5.465144263994078 0.18568121365332538 1.5789715298358482 -4.103190367865379
Ni 6.7045994303251195 7.875429395356478 2.8899931762042548 -0.012620516977487941 0.7790270314784454 -0.19096483064976788
Ni 8.730094409939865 0.534138594481855 8.19679612404535 0.10902608689243158 0.560502288932538 -0.45872722717556486
Ni 4.597698978541585 4.410797339169721 11.56140834754105 0.6275178357211387 -0.1788276810666017 -1.4804856803531083
Ni -0.12498411586069497 9.41977606524589 5.721172146749608 1.0367220164659114 -1.4269663682787295 2.225539954430535
Ni 1.065879212642953 5.261441075034799 11.184624700386328 -0.6043295705301335 -0.4828534307998071 0.7316416002159464
Ni 3.1522110548903126 -0.103764706274476 12.76057122554653 1.1940411340367758 1.0986040986826886 0.17513994780236936
Ni 2.634898969656883 7.298805760107722 0.8764353855756073 0.37451897065776146 0.23634531566709618 1.5422595191267954
Ni 7.856663428004371 5.80843666823257 11.349013649958888 -0.40581675232977854 -0.05737108172030119 -1.108258333943001
Ni 8.009924990925834 5.90792402815541 8.988909454841531 -0.35357502141624264 1.5270509297071573 0.06349467811953581
Ni 7.760097272851612 1.191463284799782 4.297275254304039 0.14256098542508353 0.23863256903937613 -0.13857037620845167
Ni 1.281392018987609 0.20062298190424335 11.06986295235714 1.1382651647177364 -0.7441862696501764 0.7939219463124069
Ni 3.45791143635179 3.8803583211087105 7.350616469773541 -0.6525992041697987 0.9136193968757556 3.0007722947532387
Ni 0.861799779904743 0.32375268739507007 13.571667765188796 -0.15303668814542673 0.671418907979463 -0.41498582042355625
Ni 6.559130828230173 2.541198553360849 12.022659185281812 -0.18340013092863253 0.4974961204136464 -0.8807324163397477
Ni 5.145942554789865 0.3934631717327536 9.4216526619811 -1.0725732218365656 0.2621131686598196 -0.2970421193265207
Ni 6.512280620082155 0.82092972164839 2.209867373337574 1.1223667483199251 0.8714139671522992 -0.06252074424204071
Ni 0.3249405823727773 6.256758401570054 5.217219951179856 0.6298454554130507 -0.028032223546867848 -0.639797167309124
Ni 0.1324831073464233 7.517563322383702 7.640252998295238 -1.1560515421668802 -1.10646061861263 -0.21206021786748638
Ni 2.293478539994155 9.376789982395005 1.8972300549790422 -0.19378713058991143 -0.2210688491239999 -1.5700022364577026
Ni 4.420420675136984 1.5989436172694806 11.584936987986655 -1.1647608970154197 1.0715370672625673 -0.7254519264654667
P 7.855859172260709 0.6148562893250324 0.35823677016037137 -0.3236581792521523 0.6386088034279775 -0.7040210102852005
Ni 9.07106186797685 1.0296599712214989 2.293915796277778 -0.4988145821147538 -0.5767668304205164 0.25378896506484033
P 8.388988287119487 8.089065604965922 9.493753727184426 0.16730939601435701 -0.035799011976480284 1.7254544760231576
Ni 2.9732872627228173 1.92870696080856 8.419418736050355 0.45014797014698604 -0.20133897479524035 0.6090696563182801
P 8.712789044972798 8.398001498039832 3.908057998238686 -0.4317345006368048 -0.9867616253873843 -1.12499570130234
P 4.255381849946269 7.1050078588419305 2.401533534666716 -0.011727572849573351 1.783214565651761 0.48641646556071716
P 3.1728813519343073 1.9170313860471266 0.8039063084075508 -2.3234061680514047 -1.6803668396558995 -0.06136914713610076
Ni 1.591659093982062 7.52849010731483 12.506978296387327 -2.0099293002076286 -1.3123103367940303 -2.1481816309550292
Ni 2.7100460379353417 3.930980211364934 9.607946949601716 0.38511371545447226 -0.5100384758550313 1.0775151392228735
Ni 1.0923549419515404 6.659625818912313 2.568303820786027 -0.43855178066895445 -0.981714035661148 0.21713583261818087
Ni 5.197738473545456 1.159015725486534 0.387240820686102 -0.44823635494657 1.415250108283066 -0.5599279044863067
Ni 7.4603872100325805 2.916841451564216 0.5808168582984682 -0.2196565421575056 -1.2368392030389086 1.2943691789345773
Ni 1.433368621582991 1.7104763247094614 4.906788327309113 -1.8423080293798078 1.1579713848974122 -0.6235449671163197
Ni 7.365568231150535 3.2303070608955307 3.1164993265760654 -0.30461967456346245 -0.36059567570844997 0.253156473687164
Ni 8.78020786265699 8.010267030724863 1.2260582993917952 0.23587094713383894 0.45020813396096016 0.5417592039970798
Ni 4.280119647303035 4.949399090812954 3.0639352049204938 0.046454434807797415 0.205585151666104 -0.08878404881394387
Ni 5.345471933769106 8.233545064939355 0.5712730234736828 -0.7655531653617268 -1.3081973430669211 1.7421969855888189
Ni 9.083024016623957 4.636340231512917 1.8227069782258383 -0.5154812441371573 0.3269880149563336 0.5986967977243882
Ni 5.101135341117127 2.8130462390373947 9.511220867732114 0.5253044008751662 0.9302197244365981 -0.03029325166690267
Ni 6.132690397711622 0.23013731883284896 11.948014083519224 0.7765957963291334 -1.3636113010608515 0.5311251213220013
Ni 1.6302263924022526 8.485443510445533 3.8295838995907583 -0.6508156299068146 0.39039553267870186 1.2713364654848298
Ni 4.459514899734057 7.048996530671285 12.119019192123266 -0.06156429386604236 0.7481498822836147 0.6329541762453615
Ni 5.5319575787907995 5.8604359620038 8.052647610688277 -0.1851587654909521 -0.3982523097189593 -0.17477176582967321
Ni 5.08444934551587 6.633371953257151 4.477697550564035 0.7421916078176508 -1.4932900312066282 -1.6374816102565994
Ni 7.073456998461271 5.735489747850565 3.3156607816633787 1.8953640286645228 -0.5443822434422237 2.1563302282040926
Ni 3.6232460797470702 8.218384381955389 4.963695429980458 0.11132876688367924 1.555218907500941 0.0965904322322401
Ni 1.7563281464170706 -0.028366192522136856 8.803981477553252 0.27137196825392623 0.14956878420148437 -1.1706343250770612
Ni 5.692586863869716 0.008080459144076855 4.706652521010513 0.43489232953949614 -0.29730411473865576 0.9096156750330012
Ni 4.3460501296455085 0.5089034527686631 6.857691822210846 1.5668624052771403 -2.073635065896706 1.4147731686466474
Ni 4.4760067646385675 2.7458677736444113 2.302453849207042 0.8523813760008804 -0.35532311445560094 1.558406046979671
Ni 0.6555987759806667 4.717154067272578 9.07930317826966 0.4089195596248183 1.2122723123328218 -1.6435977504566661
Ni 8.343413794978657 2.725604226631694 6.149193355798803 0.8967174789140944 0.4886623241721003 -0.9732311950011174
P 5.388652147316736 7.215070719577979 6.372316085455901 0.5026031026229086 1.7207478145761077 1.7154168892814974
Ni 7.4453651918320025 7.014616908709471 5.192041199811909 -0.7244653941824813 1.4773288798916815 1.329735217138697
P 2.3328038725635443 0.937475623223862 6.626585698758046 -1.333696258668974 -1.093537739903375 0.37354426544931796
Ni 8.296554342511747 3.3174902323722373 10.332397412694938 -0.4027147163656871 1.2073985291802882 -0.9558459096451345
P 1.2708997170444363 2.048725952992006 10.167060920435878 -0.17777532854268738 2.0095647177793583 -0.9156266571137714
P 5.895194601040213 2.1823248496287735 4.550800699935326 -1.1265165088222404 0.9005574214854748 0.2565601000520743
P 2.7056180091857565 5.888316827784072 7.444906673614927 -0.6337365629373408 0.3004349470581536 0.07771364993239518
Ni 1.385584737226815 4.152437114757571 6.249057883932465 -0.8052803087480197 0.2672990837361332 0.18523152771041648
Ni 6.335593953086685 4.7181339650752 13.118561172392468 0.13172250004868283 0.4646721319050901 -0.15341078365539385
Ni 3.737247020331392 7.6277925808598175 8.53367944199556 0.19303559713586754 -0.4290973201242739 -0.7000167742218137
Ni 6.847572066319048 8.14615851844701 7.885281066000388 -0.7095614804874554 -0.21546204446018374 -0.8220292460715843
Ni 2.5311592230434177 3.1687953629837504 12.00801988188339 -1.0944926476174763 -1.0762146752438948 -0.3358112696749184
Ni 8.378301854479567 5.1045002731940565 6.918197738227105 1.1657224895977407 0.19999094540777815 -0.7353771559989788
Ni 4.343840737430162 5.7950416501571 0.7449654555798199 2.084683353291068 -1.211270610541185 -0.5661183495677348
Ni 3.6832232207226685 1.732191229788327 4.993650720920243 1.2498081044947509 0.44386342268985496 -1.510864806865598
Ni 0.41296683573249426 2.745738353179914 8.11051519809257 0.4228374552574911 -1.078554122010349 0.31196505918494016
Ni 7.455080970988192 1.0990200958731504 10.057143195506447 -0.4861598694652207 -0.31789813683992346 0.2492705083691965
Ni 0.6247172042878362 2.7539842856321695 0.7701164739910885 0.44621032565547664 -0.5158622816256601 -1.8920753306109221
Ni 1.91707760764159 7.8562844109297725 6.42325690471392 0.5085927445474403 0.8459790720189623 0.4608113633981032
Ni 6.6113427413359345 4.727988409014779 5.463696603655486 -0.6676928652781275 -0.8119245535374146 0.3452595595720118
Ni 3.236038538608982 5.996965307729542 10.649756729143842 -0.3500271561639843 0.32894796689618183 -1.3618215561502804
Ni 2.681009632293487 6.051811851719712 5.102553419635261 0.6499599667747387 -0.0722611114582562 -0.05081785398281571
Ni 7.279670019999909 6.310819178454348 1.0623996510117546 0.4975159179079883 -0.024692103430041343 -0.12814172467595997
Ni 6.995407214050517 3.4967283313820827 7.8754173777419165 0.25037454006665266 0.12065390093934707 1.923609396663461
Ni 5.263003364927659 2.665839704990627 6.745554536315286 0.9582270082828013 -1.1394771827479666 0.19690202206980928
Ni 8.443862564066334 8.677189172917153 11.7633569647745 -0.48732895007265753 -0.47694580706612055 -0.07304684058434516
Ni 2.1657035642597653 4.075968108877462 3.9568744730151724 -0.559940760002113 -0.241621476464371 -0.029388223354130032
Ni 4.354582635983437 3.3811373679482224 13.575320195583286 0.5965563543426178 1.3657563724283124 -0.5350324267962075
Ni 6.9732023600703394 0.9836417517738217 6.755513441058352 -0.8039641610397574 -0.06239090353239578 -0.24788057000020533
Ni 1.7749831819424648 2.2254311086252616 2.594918214878004 1.409963663073146 0.6471996304207821 0.7673359682937623
Ni 8.745708064549572 4.2019034651522125 12.614650576257732 0.7452244811067037 0.5533178553689567 1.3863768768921414
Ni 9.016187591030002 1.982749249055069 12.066049244868307 0.2492820783334223 -1.145506162550866 0.10147347135615427
P 3.418502904912367 8.420409727035647 10.520166169178932 -0.08996109984118056 0.13808263793875575 0.6736395697798657
Ni 2.284825857510622 4.46199237719729 1.5843080115986163 0.48656841775754917 -0.09164491530150669 0.3710397538599094
P 0.4550275622622223 6.184199742581542 0.3467017090461063 0.1581236157500309 -0.7748423039731365 0.05945238972936213
Ni 6.182092037874014 7.7202357697864485 10.18795123226952 0.563703569478655 -1.1399461519645853 0.6141118467278779
P 9.205797815837416 3.61925253398544 4.309492546152583 1.028273371477926 0.29502226068301446 0.08803277247021614
P 6.285831784487479 4.652212727051619 1.8988940323797217 -2.3006349357931604 -2.492182892639908 -2.6845088653032607
P 6.401783276358153 4.845825741939556 9.77448797661249 -0.9904483302103522 -1.7052998554521532 1.4237897703229607
Ni 2.439779130789442 5.2928625149509605 12.980014716284348 0.37325784455715066 0.46029945675869116 -0.23620519054480607
