# total energy = -381163.3156153446 ev
CRYSTAL
PRIMVEC
9.33707334303439 0.00000000000000 0.00000000000000
0.00000000000000 9.33707334303439 0.00000000000000
0.00000000000000 0.00000000000000 13.66575064337351
PRIMCOORD
 96 1
Ni 9.16859492720073 7.933272148325261 5.228926187489683 -0.6535769947020357 1.697315037474464 -1.3477758766904917
Ni 4.937154792130199 4.393979903138253 9.762784782345685 -0.7357705347826555 0.811443500135938 1.7590312835373383
Ni 6.6142985317821275 2.9363600885231045 1.61579730214282 1.4746860429521957 -0.06832269563579846 -0.4561455824913176
Ni 0.8384243440713992 7.223803987889947 2.043425911847192 1.8300898900470612 -0.44929719211091657 1.0140839673514213
Ni 2.4980031818570017 6.001132943029401 6.076106838689639 0.4579628382057145 0.8822771351190482 -0.6419805481136879
Ni 4.1431674462313595 0.23569760301511822 11.289112382881282 2.068439894849012 -0.1766072763765152 -0.8701315008954498
Ni 5.0570334733239894 5.519872185589448 6.679053000963153 -0.05858489952274426 0.6051183849800159 1.8233793107961052
Ni 1.43799328701414 7.103421104750173 9.704117151101434 0.5912804506556592 -0.7576912461151467 -0.04001896359509882
Ni 0.09995056613250046 8.916083122994413 11.54437488881512 2.079616994511754 1.4367568720065902 0.6401319249407234
Ni 8.183094875486338 2.1027648786454454 4.861358300332165 0.06548316930447431 -0.32121845946240807 0.4736761351759132
Ni 1.6445386804784168 3.630282022290637 3.1914171788493224 0.4241178646318115 0.06074051241316635 1.1428553551915803
Ni 9.018818938024811 2.1336986017387574 2.424031154137577 -1.5621629429189419 0.7268292664289677 0.1943633148083556
Ni 7.80329075406568 7.634821944596129 10.990925484612829 -1.8974803036765773 -1.5035973266699072 0.5578180572321555
Ni 0.2624520522006224 -0.3312522751445003 0.4961524552852669 -1.2426766356562922 1.3082143123477858 0.39673304486095545
Ni 5.301216608348526 2.8536242840166643 11.716986557607493 0.8512061247458567 -1.6199703408457136 0.047001822670835185
Ni 2.527741759596874 7.8993785730675725 11.776883881375555 0.10567131148758577 -1.6393898830229057 0.7709627664130723
Ni 4.108564253420067 5.306221279516053 2.379356994308945 -0.813507067533186 -0.11699290714799206 -0.2722906234134536
Ni 8.616419099765693 4.414409419023603 4.0369722456271395 0.1391776707751474 -1.5312922214820144 0.19982356659197845
Ni 7.583066548548369 -0.01947433330990651 1.9865220537065704 -0.1634792236349894 0.5430110741263099 0.06257936539411803
Ni 2.90626670200643 1.2309436916038812 6.474313397431337 -0.2147753028058043 1.4867236908430201 -0.45470576472099755
Ni 3.7230365062052035 7.825597021638853 2.481919139780171 0.6890769873808584 -0.19147133797254123 -0.079956680330301
Ni 5.81360716741634 7.995755841334752 6.7030502124699805 0.48629176705739474 0.4346223637075612 -3.387586280728269
Ni 5.181552679835431 2.6937642559211046 5.659438085359226 -0.43477791544881894 -0.8583856732134314 -0.2851209424089025
Ni 7.566185120431041 2.83452996958086 12.512497713831968 0.6716407941822821 -0.4021220770870107 0.6930159174239484
P 5.06219687473377 0.4774101485043419 6.034959291360959 -0.9676040786223271 1.3644353396240436 -0.09100908148972067
Ni 0.6526586067327382 3.6915705699466885 6.3626774843470475 0.2838770426994724 -0.48132362441884197 -1.1415222382024535
P 2.0695622467952144 0.44856512865762654 10.951978685407632 -0.6326957803776523 1.2329884618342506 -0.7427860468685401
Ni 0.7444130901211068 1.6821203996002339 12.911769632611382 -0.011263488728961246 -1.5060990100458385 -0.741524149436981
P 1.5683575012697448 1.4306543475781777 4.25899943995499 0.3610325061355524 0.26318249046459835 -0.41523033233419454
P 7.581283167591284 8.850387476847555 12.92673415962667 0.3793457026224435 -0.7225627778431298 0.10430965525336873
P 1.9539786192153454 3.1379194849660026 8.040736257160203 -1.752496053521982 -3.764998770883741 -1.98316231652643
Ni 0.06732870022745595 5.892346704647218 5.931195464585142 -0.7415038377220069 -2.6424119361332106 -0.6792373755826173
Ni 2.2934465849574326 8.165569189326922 4.2124130475608546 -1.5734477718041417 0.02864157499609261 1.081651787099066
Ni 7.355027212868335 8.694897198950507 8.100222749713021 -0.5848233821764057 1.5307121806088282 0.08085065289948011
Ni 2.003250353825489 5.240497622149973 11.12058661726598 0.014052621438324185 2.508904576269963 -0.6677846536609854
Ni 9.548651149594376 5.003896190461316 1.7110886688115223 0.388936174524356 -0.3289189134304593 0.3592448181075103
Ni 1.7168823226537804 1.4394965557790127 1.866290431150592 2.14906686177346 -1.2396046815991877 -0.089814032740355
Ni 8.100433767564489 7.142057913129323 1.1668680276353174 0.8720749977750658 -0.11107551322229257 2.180430463686406
Ni 6.907865446293693 1.6862287117526809 7.372563169808132 -0.489685366119976 0.4748197618620532 -0.23732156353743644
Ni 5.015212723026693 7.196539734514616 8.462788766824934 -0.7346590468860315 -1.4010871865191223 2.5586744486042385
Ni 4.045809785291437 2.7083767752815135 3.1384629026188944 -0.8957065211510766 0.8676668414050411 -0.13557735501839877
Ni 6.431796101482741 1.0415691755222185 0.21788713612695276 -0.026645113391354114 0.10244406279953969 -0.76335204394535
Ni 4.363438337114038 7.3652886561763795 4.92002499786911 1.2885715984161938 -1.1892995055867324 -1.9855153901396385
Ni 7.496213094816408 1.0088614085448957 11.058188825328768 -0.7205663162383913 -0.6276363635768739 0.02093983547646071
Ni 0.30439885298441444 1.2797952579257064 7.071834720249007 0.08675879085379898 -0.615765580281217 -0.056649115952612114
Ni 5.939060081235156 1.4097393038929926 3.148411553978968 1.0394944370047259 0.9256943257624186 -0.2925133782182317
Ni 5.979695023252087 8.80128380955274 9.929397381688176 0.6500679531075128 0.16055382245807834 0.6598893100733086
Ni 9.642582104716237 1.495434960563809 10.105644906735463 0.23245626502533515 -0.05854247632058304 -0.588363019898548
Ni 3.414717016237124 8.288846565119556 6.615849419619677 -1.2912460599245632 0.1140191692316488 1.710655720447428
Ni 3.1666403217408368 1.554781397020522 12.847089860014945 -0.5791744114207444 -0.051417692350343706 0.4509267572945395
Ni 4.3021778006772085 0.8081432823859421 1.4162640505569246 -0.8131280869272124 -0.7813844759670285 0.9700965060268776
Ni 3.462055976721003 4.090786466287659 12.189876629036835 0.8255195186130299 -0.5064756982044374 1.8588854741225147
Ni 2.513231948040277 8.54310440199066 0.6102318803929558 -0.2175009292670835 1.3697004446777248 -0.23130415369876295
Ni 7.019742255863285 6.426623362999886 4.987916723602912 -0.7288907769436866 -0.1366487337057066 0.5003883543597769
Ni 6.999023290712649 9.240397019137815 4.3691320842744075 -0.19827781937141334 -1.2234342424869125 -0.27849520956226875
Ni 6.389527171677903 6.774998896454324 13.737631878569365 -2.1353343426787164 -0.24572392866851878 -1.555012962137722
P 6.46913505670464 3.586836621278509 4.0660936428368375 -0.12513301975662322 -1.4073010286393182 -0.3610474185338879
Ni 4.096976945735551 0.3970683695340098 4.041686533822072 -0.6729402297199959 0.16919221485936667 0.4697914554095264
P 8.534420924032078 6.394587865283873 3.520570479966845 0.2534485510062861 1.8796569023419112 -1.5040200160296227
Ni 8.646848620913023 3.1619250998385966 8.116785783638536 -1.1786304559086607 0.416596873664418 0.351492170745285
P 2.2196090110902698 5.9997790674337095 3.8600141693189403 1.0725683367405594 -0.7344703279139931 -0.4964741069070353
P -0.0016797394459664293 5.9118705244444145 8.401115531758245 0.027009181598992193 -0.246882210642678 0.7013321505991277
P 3.564679746874516 6.445848396458724 9.822011704267055 0.3518945483900262 0.8979870896551373 1.6578282922337513
Ni 7.52662394181759 6.578220081425183 7.368490338533365 0.1761035972672193 -1.4045224374529166 -1.2534040493761252
Ni 7.184466899030266 4.051271973039578 6.097630659539232 0.5609643161706209 0.5573796841431561 1.2037298220794495
Ni 5.309349198995757 7.189275491663243 11.49061388947112 -0.9841753527174469 -0.5167593395186326 -0.8001743549800219
Ni 3.0451463269052885 3.9454175756025487 5.67269392800202 -0.20094842422504103 -2.2045481826702162 -0.1003388435310788
Ni 0.4554670930737376 9.236923627954381 3.0428157934660818 -0.7666656816996151 0.4136053951362619 1.0482811820584206
Ni 7.3495276768279005 3.364390192369647 10.226326576213596 0.40333512355850537 0.3947957186289265 -0.493682145984195
Ni 3.4604966855176875 2.3443803185747023 10.353172581335013 -1.8357123784401612 0.1888621824844683 -0.5321250233414254
Ni 1.9896929237224137 0.15689177256541695 8.569163239232171 -0.5713194341526999 -0.050089203346907286 0.47315265857227545
Ni 2.550122723754637 4.817304122155629 8.856841261756127 0.5536950362027173 2.828104976861078 0.31200105462919814
Ni 6.556464701163361 4.980011957538681 2.505615697534025 0.42153056352060947 2.344067553055498 -0.42938142702359605
Ni 6.316726012921928 4.948116515918774 11.93491477685597 0.32443670928938967 0.610541098657484 -0.9138937335830649
Ni 1.0584132553472514 7.392627606136299 7.157518238724827 0.7087814077883213 2.4372389323038606 1.9359098112973694
Ni 0.20395715680823506 7.0663342505012645 12.968182360708324 0.6455099014231851 -2.218346264895573 -0.5494180060939182
Ni 2.0942214567829702 3.2872099463420845 0.7039648895656506 1.8437005388519603 1.1680827622998013 0.9459533331217709
Ni 4.817089369474933 5.015819632776486 4.623054720222165 0.39797514479817264 -0.7208144276934553 -2.551035701112058
Ni 6.136249727479542 7.517473610205322 3.083320950167288 -0.33489672828044903 -0.42491696349433916 -1.3770250033635962
Ni 7.98881839604096 4.787798971242601 -0.052517301210576864 -0.8083520056948078 1.6939294088316825 0.11974424464088408
Ni 4.899395668619981 8.629976529868769 13.372155495780365 0.03925817416967432 0.9084494226390419 -0.2502418711435303
Ni 0.9867138712139762 3.9148479983591127 12.55871529183969 -0.8443451359599652 1.686812081060611 -2.0079392663607933
Ni 4.072457791843901 3.1632042788496992 7.918728723305599 0.7545920383645327 -0.8772015203683539 -0.8678187936018733
Ni 4.702280718960185 2.781532742814292 0.4058424171014065 -0.6282107480231052 1.5955345764008522 -0.11667923256231517
Ni 5.572234491387001 1.963521107896711 9.486175859950654 0.9557494932765863 -0.3303872704458697 0.15226612852798938
Ni 4.313839804946314 0.2007573418658632 8.663087658402878 -0.5155321519797509 0.3861002477374576 -1.343391374469551
Ni 9.111442702916344 8.457558138489025 9.176168227170841 1.0120967617180634 0.8880497759367675 0.6953710479196863
Ni 7.066203531478232 5.854176749921756 9.444536248870987 -0.33303190715756836 0.07656796636372619 1.3716904785245603
P 7.871927578230768 0.15729139929297314 6.16103965649033 1.8052121529687748 0.4446301256525504 1.365673068685887
Ni 0.655795863285516 3.744119617205716 9.864991185332803 0.4519377150575571 -0.022526206126974112 0.03527733514505537
P 6.1807035323836335 4.391804365112071 8.12519008311221 1.4104472875777838 -1.2799013243357056 -1.1068581111613647
Ni 3.817359618396159 6.742235107038558 0.36825789685766736 1.319590158284895 -1.8686361257513753 -0.7449501443993944
P 5.276370656899295 4.885670171201578 0.13572649532185552 -0.3336348308488899 -0.12913597026842924 0.9926736199964453
P 1.9435304344458264 5.872832221923094 0.10524001802877608 -1.3457174514995662 -0.7817413450858149 -0.350688443897067
P 9.214066473069858 3.158489056947459 0.480752820664742 -1.4785663518432084 -1.1936089315953637 1.7304825253653682
Ni 8.792301545255798 5.303261427351676 10.999084219064667 -0.1665789456062357 0.7595578670102403 0.7874242544032052
