# total energy = -340860.93955757894 ev
CRYSTAL
PRIMVEC
9.31964728380532 0.00000000000000 0.00000000000000
0.00000000000000 9.31964728380532 0.00000000000000
0.00000000000000 0.00000000000000 13.64024584423667
PRIMCOORD
 96 1
Ni 3.0507865332689272 8.369965891988057 0.7001645960413054 -4.4350128280958785 -1.535472321001633 -1.702944982066732
Ni 5.1569056604839725 4.6525449896196145 4.77510860280939 1.3389495366481134 0.40155489172963105 -0.3720769368751721
Ni 1.5113112796121044 4.264046173594417 7.202800295086716 1.5656611858801877 0.872795163770542 -0.022648590637451314
Ni 8.382146670967689 1.051834029991745 10.70062234887286 1.3139239611380533 0.4654213513662888 2.8940807695312545
Ni 8.971977826929372 4.810662125173121 8.19085811489222 -1.8504131749854453 1.1888336216939075 -0.20365682429513957
Ni 2.4226050287983036 7.5591286207065655 3.589498491999411 -0.40904117280434715 -0.3348267942744621 -1.9245288231539373
Ni 0.34874492863765566 3.448027178431765 1.0606904907907841 -0.4472248829629202 -3.59560498153653 0.905646405972608
Ni 4.5031603635564785 8.011905043941036 2.16502116187998 1.8209537320737479 -0.830352678335615 2.4172699453811015
Ni 3.269891440546009 2.6706194819015647 4.058614120824617 0.6695078069996793 -0.11357154017126893 1.7646100631766966
Ni 2.5480195220874435 4.539246037779228 9.923101884610714 -0.4500708370521475 1.6851292940415494 -2.9650265046121964
Ni 5.964126908625375 8.244225211044528 0.21774051091700602 -0.6523130403879476 0.8642770989972017 -0.6233220524722362
Ni 5.572589887590722 6.705821716823555 10.660915991686386 0.9940692147923911 -0.8631388716277005 1.2869291777167642
Ni 4.108641055395976 3.660459218264763 6.839792578269697 -0.46904814948559864 1.6132499914027443 0.23743752029001045
Ni 2.459343078329833 4.67468847152903 12.061400821878376 0.016367385614429877 2.875729006496944 3.276527993897157
Ni 7.278802950524203 6.155804093991931 4.239443236770905 -0.7272013050564057 -1.0188489928402324 0.24654925278329154
Ni 7.249716331399926 8.661270106652443 11.694164781095743 -1.0253572262723956 -0.48164886896874465 0.6059236544901306
Ni 6.4416842739461835 4.5754901460055395 2.143837603639197 -0.05905952516631764 -0.6468090798505829 0.51527452744299
Ni 3.263377007105486 0.45919766020231134 3.1472411546366383 0.2314116258109047 0.10271300019021021 0.1546783375139078
Ni 7.60986478043504 8.641251504320195 7.581030723751732 0.3044098725455015 1.5161988174840018 0.6849339117467623
Ni 2.0849914868578723 7.914188542333202 8.005282502592202 -1.567636050218371 -0.9110012425266182 0.7958399892707263
Ni 2.4563048733203763 1.8995025472774492 13.541449344729061 0.35526500752415585 0.7025768216395061 -1.2302525509603264
Ni 8.815845776244007 1.1049187408318237 2.410913531300256 -0.15858358610558496 -0.32391143291353897 0.6845965830120015
Ni 6.5615628967579696 0.28308242184431653 5.743225173354972 -0.8166224732337162 1.6880665222930025 0.6190429654809081
Ni 8.757281112810185 5.999215380590421 11.339231606671953 -0.8106587994511135 0.3983986054888365 -0.13592136862137882
P 0.6207900922221573 6.631944872927963 7.052184543619441 0.014474282356775073 -1.4801403811985476 -0.042502649248900994
P 8.755985681839896 0.08204365079678128 5.564810778015894 0.37059803833680044 0.24448542827572733 -0.15391266299247686
P 4.258389147702575 5.015871438373209 8.84282149526202 0.678228988922761 1.2300890287992685 -1.3996034028847444
P 7.271095602233343 5.15897462217753 9.7011749881408 0.2891346915539859 -0.2998821598784771 0.866166859820747
P 1.7602017795585838 7.100536737576692 10.079009331796914 0.12426398688810857 -0.257891160158672 0.5672786884244231
P 7.7062299331889745 2.7933033185411014 12.406430939114898 2.3684300410602632 -0.687189026329526 0.966364035567639
P 5.2352279761265335 0.5848693757560555 12.58856946550238 1.0343617437638508 0.31347326829935046 0.08683746661053433
P 0.11722159137560179 1.8781885139749104 8.77474240393202 0.2590679540755926 1.6758175297223201 0.12374848070427076
Ni 5.596233832710328 2.54528886543784 3.350372186495901 0.5710929199641906 -1.4777780516139583 -0.25252629630233286
Ni 3.8533386381289256 6.151936440375598 1.1701935502988028 -0.32148585419118186 -1.3100277114074406 -2.097813977135755
Ni 4.874380553546299 1.6177416514157736 7.13968671182125 0.8619726192337412 -0.9220063353878701 -0.8369115625000554
Ni 4.250392890346397 3.3683628335825735 11.560163164813616 0.6800274755840805 -0.10310097965724824 -0.10668406902281626
Ni 7.263220500291652 1.677927933474276 9.046074614500498 -1.5548219291728382 -0.46538124215697274 -3.415718520188111
Ni 3.8656126135812405 6.3024580634054646 6.926939667910584 1.819710603695266 -0.5541172113418006 0.5770756199101867
Ni 4.1302533174111 7.507730766022044 9.109147191317986 -0.3616212887594869 0.4043939038403229 -0.1136558723549591
Ni 5.545674746279951 2.6789512465594005 13.61895339534147 -0.08095195436403478 0.6968016097186257 0.336816056790349
Ni 6.747965161770683 7.009809971420061 2.045491093876027 1.1310529632400135 0.7737904656698544 0.7712067641030783
Ni 2.5282711895259746 2.3130432555124947 8.550101626177584 -0.6096702660167564 -0.2284268321509679 -0.7778057574768347
Ni 3.293013485418592 4.701790005785165 2.9419414408580487 2.0480032242612145 -0.631311498435616 -1.3902055066096124
Ni -0.1687173023564402 8.957597611194428 0.4089358705197921 0.6231891264387978 -2.6294011256958396 0.9459188803394096
Ni 2.9884194537496493 4.951789543756568 5.056643963207173 -0.9750952447930499 1.8068825986926622 2.867624632222255
Ni 8.025055066236568 7.3411700300434815 9.484990858317596 1.157547409986116 -0.8108002101249843 0.7410893758924075
Ni 0.9698118143836807 6.518720478265721 13.558649685727385 -0.2809822376501806 0.936530497145974 -1.2156980501849193
Ni 0.6921590190378595 0.4827838235088548 7.3752808710100854 1.1645305261721686 0.728987450422551 -4.309527824316475
Ni 1.6874526129824503 2.9352601857314244 11.088005603120045 -1.7125161706949346 -3.6940941734533803 -0.13383337574409854
Ni 4.78726049088249 8.61371194664245 4.5135843890260405 -0.5277438635545944 -1.1379190942322275 1.1583642494604567
Ni 7.491262949299006 8.515259192900421 3.9828015861914032 0.4020575423976624 0.13222926448177225 -1.18680322152744
Ni 8.491307699420963 2.218551351859482 6.3626014750865325 -0.2031875979682049 -0.1733561164290692 0.12294372541478828
Ni 1.907396288513676 2.0445069391244974 2.1506167150621383 -0.39897453259696447 0.5400846445081344 -0.27355612038943855
Ni 9.211585958196652 7.478765302312254 2.56852647393655 0.474521256785028 -0.10283307070784226 -0.6316056326372671
Ni 7.772250314437415 6.602205878494905 6.6778683668070995 1.326155984427871 -0.8764931814474196 -1.2555727748926697
Ni 6.246446983323147 5.788125369964054 0.19359050895073207 -1.1232185547972593 -0.061751213065867845 -1.0393052038120552
P 3.4557158874280893 1.8348428345301762 10.435606063258088 0.19894476353145094 -0.08401696644260369 0.4243752320582562
P 6.4227840292861265 8.698856244085386 9.586105303319442 -0.007387550713322761 -0.4558928430505632 0.3784517300532644
P 4.5000848799579485 5.369067430546191 12.261625987719393 1.1431191503759282 2.093172364598685 0.7467519734948236
P 7.574981340709896 2.739417118035951 1.97368880346235 -0.4722450591563416 0.32746135504832635 -1.8098877040675736
P 2.0736960743687263 2.646919618898349 6.065653282036481 0.9384809360041256 -0.6883455085314725 -0.11987794200527098
P 1.2641821929993284 9.284950221492492 2.4418361209363835 0.5961884294802378 -1.593698808743694 0.16521343271727673
P 1.8069584499035056 9.177317615191216 12.717155434756911 0.7286310955243969 -0.028627691039021665 0.3003832678846117
P 5.83529210478878 0.14428584704266445 2.849365656683393 0.8965153902056173 1.345374980558483 -0.0006535744235988745
Ni 9.638472401319865 8.239406953406831 11.532923699777909 0.6974145607122764 -0.28729532435240196 -0.07133140055513522
Ni 6.213995971535024 2.25934344795271 11.127043741597385 -1.00882683271754 -1.892640716196089 -0.46304333805241543
Ni 1.2156361503788984 4.014559216222768 4.207552335783604 1.2050392849194924 -1.9316392089464736 -2.3723694853239854
Ni 9.036702777207523 4.635322281467848 5.511832311154674 -1.4806180921659147 1.5249979038328703 2.3593617602104078
Ni 6.5907613516494665 4.546655157357504 11.990825929009931 0.1737860048776362 0.1764326984718639 -1.8806377781979418
Ni 8.666312035824578 5.244398509038513 1.1308077889783572 -2.958338808179376 3.052704721956472 -0.010576232853949527
Ni 2.7506659322887557 0.37936835759647153 5.5658340752859505 0.5246595682023157 0.3807500391691378 0.3351564096997389
Ni 6.272952060154115 6.5102395992515945 8.261992186596762 -2.966147248480201 -0.5587374837226313 0.008445302553875777
Ni 2.517516316578388 9.341828028770758 9.931967665057021 0.15018379207766394 -0.7176887375802802 0.44581488998927093
Ni 4.884706722719545 0.7475475466826553 9.22503420920477 -0.6359435978909886 0.23427403496036425 0.4733832865258428
Ni 7.791169198392009 3.2149241609577386 4.001925502385898 0.5316735376263036 0.48485503461086826 1.475056281807421
Ni 8.746908345400596 3.4190523950747065 10.044840709017247 -0.16461359434974873 0.6070783369198641 1.362946156673027
Ni 4.243953014084021 0.7368224966063276 0.8956181024809652 2.486462702326679 2.538584876943215 0.5105159297120822
Ni 0.27329958810681115 1.4307988468615003 12.838445052165113 -0.6123236444792034 2.000451956844813 -1.1516588124158231
Ni 3.078372689183013 7.115606607209488 12.223706206914247 -0.3614783354237194 0.20891241626712406 -0.7819827716726596
Ni 0.25517846595838256 9.100896507591383 9.287670626530101 -0.10887619157812861 -2.0720474096946124 1.8593824683635913
Ni 1.5640604831505254 5.586196572602399 1.963990778514986 -0.8182353262467907 0.49974583567977154 0.17102875384747318
Ni 2.2821952230545133 7.348625747858099 5.737919498165144 -0.09131967075160402 -0.319896655327191 0.48037848689675333
Ni 7.402372153654225 1.1538096104011801 0.35803195714048897 -0.7716243112564711 0.5046882672867115 -0.2923629686832965
Ni 1.1433156875771056 1.655504862146813 4.403208078568985 -2.158168566964412 -1.257426283161641 0.12357647390278072
Ni 6.962466163297238 4.278193398147653 6.533623526212416 -0.6725337383101966 -0.14155028477238205 0.7626480758997898
Ni 0.24879730347379653 4.292387220937233 12.508950786924801 -1.2345943728687898 -1.4137262154393715 0.40283787220711265
Ni 0.04958425132611579 7.139101437972802 4.975156695352307 0.2233591878200734 0.5698649610943605 -0.3395139153374862
Ni 5.731676266460128 3.4306087576873643 9.076629078069528 -0.23579047160489067 0.9257136090361283 -0.38886932584216255
P 4.017998166064761 2.789407705982964 1.984424105150673 -0.45825877217957856 -0.2766926091358912 -1.5921800581063226
P 2.2174702727763624 4.045202216440847 0.5072273943640793 0.9521669181316504 0.9235279142387193 -0.15077103203970163
P 9.123123866326212 5.242199072283201 3.3167618105876038 -1.0719093630003216 1.3473549871029893 -0.2175418098073479
P 3.623432259667917 9.187140523411975 7.451938697650531 0.7376806073211748 0.15463848541490788 0.692719212119136
P 5.760585812286309 7.3228289642195215 6.083603854639899 0.32743410135481676 -0.27143624583295833 -0.02982171134712283
P 5.945142787139905 2.691775081200543 5.517274985159345 0.4862408592148013 -0.633123097723058 0.4824502818241175
P 7.8334990362845005 7.222661395380132 13.375024675600615 1.4053598457525474 -0.453667039043838 -0.1136630714438107
P 5.040279594568815 6.06864675273905 3.0539962197881203 -0.09453483525479203 -0.12185923410135786 0.41871083468362724
