# total energy = -340861.121590036 ev
CRYSTAL
PRIMVEC
9.31428447038386 0.00000000000000 0.00000000000000
0.00000000000000 9.31428447038386 0.00000000000000
0.00000000000000 0.00000000000000 13.63239682471124
PRIMCOORD
 96 1
Ni 2.434847133742016 1.0819472975611975 2.7471187702155566 0.4781575679860345 1.592385232138593 -0.9697949156260588
Ni 0.0034136853009312917 7.475411951964342 2.094290809264825 1.6682132350125012 -0.9677431753033526 0.16582741215219182
Ni 3.9518646643359574 3.0846861407689583 12.17486158863429 0.947437373866465 -1.7016062086506503 -2.119182672619518
Ni 7.952573437043221 7.466367781630906 -0.1770850414143681 0.15660975020866577 0.3473002441511244 2.236370212276819
Ni 6.998623038268921 3.2047286405190336 1.5866473964483534 1.0482729545283045 1.8253827143793788 0.25116386873716745
Ni 6.268737069506089 3.924191924829636 10.070333449180506 0.6648366267762551 -0.07821347238694916 0.722781064501523
Ni 8.136381529072084 3.4622220379112454 7.4181644960391475 -0.9975106363737725 1.4821399281270795 0.3394972031669379
Ni 9.271364363068487 4.524916709232265 5.416792058380217 1.431413862527122 0.165651805806276 0.18463580310794653
Ni 1.5747754093144732 2.4932570123835993 13.05772350458794 0.09371773867013537 -0.26720935223580433 0.38526412498940743
Ni 1.423008456262974 7.572103540256205 7.250363002072087 1.1566272121646919 -1.2813915357279868 -0.8521255512363324
Ni 5.390809861526335 5.009063907750977 2.237812757600405 -0.0449415977076968 -2.2321073232354074 -0.3753872321953277
Ni 0.7723311636232518 4.9431746585864795 2.880184502674396 0.6398956405602012 0.5973143155545648 0.5196870546883888
Ni 2.3027705783062573 4.552151677363024 11.739198035673391 -1.864300474490499 1.1575805772168968 -0.18627411004231792
Ni 3.331067596649544 3.9877619171321084 6.294418414967829 -0.030265483752760777 1.0431500314794422 -1.1356506099130248
Ni 1.9628271337548537 0.7367077507939426 6.913220362895827 0.19997834700228784 -0.9814954918924387 -2.2029340441055614
Ni 0.9480823994848413 3.6545527003367027 9.138504476299008 -0.3131408246605962 2.516329922199757 1.0215339958715632
Ni 8.6335780402964 0.9529723988927238 12.64696541718273 0.897932582268118 0.12334558883889725 0.8195458175280983
Ni 6.649831023360397 2.0016863290494933 8.410766381561809 0.8792764006195114 -1.8618885226148967 0.2569203116049705
Ni 1.6623948844191407 8.82022698912413 1.1033459349700911 0.6566862297549787 -0.3766640420252223 0.9742904895035673
Ni 8.24316980185565 4.923931346630889 9.138300493466565 -0.6643823128476558 1.7652207001775015 0.3184367829522129
Ni 4.797182561978575 2.304829035199861 2.596085782789469 -0.052690388415180214 0.6945164132288749 -0.31951124696331423
Ni 2.6540681357685343 2.6191861399923058 7.963296972887592 0.731232794813302 1.767694101418659 0.8244273139901157
Ni 8.067409251709474 1.8314398353784913 5.865625078317889 0.7429703949652043 -1.224471425502175 -0.8386023199389169
Ni 4.873503809879888 7.110468967582927 2.4965281891303577 -1.4700506010627132 1.0277473237711268 -0.3012466443261715
P 0.65859350310974 2.810985888196336 6.815612249000658 1.728450582537004 -0.6147170844120445 -0.6574619315787387
P 8.328721505782127 5.364385236154597 1.4723806845703313 -0.15217228326260243 -0.3749681423800381 0.055683666715549265
P 2.3652973707350475 7.028745434621476 3.342676920958086 0.07029807419461441 -0.8453105851970281 0.11823320731299637
P 6.4864677859987765 7.392896704813045 4.252353730807648 -0.5014913576159686 -0.32720373051156554 -0.3471182100473054
P 1.1502489464335826 7.205511927502989 9.525800812259428 -0.4445203395475635 -0.5542570793537746 -0.40395244542753006
P 6.113728745418508 7.3138184286741454 10.36201213386188 -1.0741271965872468 -0.2356976547807683 -1.1844272650960956
P 3.8274258222610817 -0.2828198686112083 1.4730755302004799 -0.16294597683933873 0.29484768277836315 -2.0221394691205754
P 4.112722359143825 3.90614084130111 0.33232529118815185 0.30331998191543247 2.069176001684088 2.268556824311693
Ni 3.647362072635969 2.109778601675162 4.6702819544875025 -0.1178421425221648 1.199867768020882 0.16760712976043393
Ni 0.5258425934699223 0.19565213630898318 10.558005172986727 -0.4297025578084405 -0.4773962643399778 -1.6535103815846879
Ni 4.493480998753021 9.290067446518064 3.370364563319746 1.7220436505693955 0.6889384049204651 1.9758920081172617
Ni 0.84131089241353 1.5294148433784969 8.756388745425568 -0.28044256309662674 -2.22842190396402 -2.009311721228288
Ni 0.044421686049663074 7.5303103453168365 11.529449661071284 3.504631124160119 -1.2676294489468878 0.17054152979840953
Ni 1.3083589272884495 8.821735903227133 3.829953719097842 0.5920304414478063 -1.7944261180968644 0.695594476784402
Ni 4.796651647757148 8.99364033955452 9.426148212897536 0.22551222960733422 -0.3123224425243589 0.29866191431813083
Ni -0.1611119747770773 1.619409461052707 2.7625646483452546 -0.1030654984336225 -1.1977599776492598 -0.3736244838679501
Ni 7.599701765485834 6.257671699417395 11.538379265704307 -2.721535836149571 -2.280221148023499 -2.453888110824767
Ni 8.139827814369069 7.726860378659952 9.258019787541489 0.4547006225146749 -0.2849335089884448 -0.05305599928471508
Ni 2.7318982977728505 5.5064280760978495 8.81027747032889 -0.103692333384344 -1.126719368861666 0.8499264867024846
Ni 6.840308143153152 0.994057708203523 2.0408650043054477 0.7421455850710638 -1.1332322302795192 0.38451876218295067
Ni 5.382445633967709 6.426828421791782 6.100592809866248 -2.6688241075781525 0.07244571666523651 -1.5399087595064318
Ni 5.087248012569577 1.8281984643424094 10.185867835190741 -0.6007071432861977 0.6961593481489365 1.0547184530433318
Ni 9.034259934635998 5.270664904645809 12.985771587586129 -0.8204341336703224 -2.103944258403209 1.2650889419132212
Ni 2.7762063495505593 7.047951489438722 11.09247651969753 -1.2781002665712247 0.4943364917387422 -0.35688043164039185
Ni 5.786210556505419 2.41485867901951 6.199073672227167 -0.7119559488615609 -0.27037155201386986 -0.9022204110101946
Ni 6.2914173524740775 7.581799710510692 7.622145465625327 1.8193349655234021 2.753501076202258 1.322528929198245
Ni 3.6788629831073187 6.031353212536007 13.170026765275141 1.3029170685045883 -0.3402968162500978 -0.2540990401060914
Ni 3.722602863525254 5.332977468529112 4.154281765540074 -0.37860985289768345 0.2691587626526913 0.16611331882372685
Ni 2.466608844181786 8.808276761999723 8.80152576853147 0.574406557718456 0.3707142521996906 2.4839124251009994
Ni 7.428868471885887 8.642780553467807 11.565916016655667 -2.4208710324687983 1.7812237604739776 -1.235224036032989
Ni 7.909699785091825 3.4575276384796783 3.8550920417681924 -0.4975547415657237 -1.222987898978113 -0.4662243068835583
Ni 3.932183581004804 8.219790947543679 6.9381267598799745 0.0950094608983654 0.6033900894349995 -0.48699007867599997
P 5.527394530701932 3.718709492568121 4.2037536566925064 -0.8691272280006516 2.4856700312220545 -0.02405112741193277
P 3.0665046572562225 6.1395572565767145 6.238866158837367 0.3270659193821206 0.6906505025155654 0.8910628517314783
P 6.949965215589343 1.794918525515049 11.587824145431439 -2.1843341696161866 -0.288491144432716 0.01186075599332796
P 9.52665027501371 6.983831954345649 5.425734703011661 0.09015444679890926 -0.3425521879431778 -1.0484364766893621
P 3.437762726587246 3.635747159756675 10.039210698663366 0.5793618448412022 0.7073904409780656 -0.8556001400484943
P 3.4070162731673985 0.13498820079748114 5.272138424467384 -1.462179940065385 -0.8021276220516508 -0.4084763014398127
P 4.165403952764746 1.1632423734316704 7.828526726349435 1.669199253074854 -0.7261615509379817 -0.025460863275265828
P 2.022848383629891 3.7088084080527324 4.205867067865171 -0.12617843030200204 -0.46793923269213605 0.27950513888402184
Ni 0.8126880958793913 5.395858203772187 7.579503739360134 -0.11035380456491962 -1.0285266251393126 -0.7307622829347866
Ni 5.853496948357882 9.284981847133865 0.07975356177141661 0.8317881252305609 0.7838529921121791 0.13956230780807577
Ni 4.802864275576305 8.170024724998315 11.96996688773018 -0.31083197402176144 -0.21585490902322826 -0.9337441926500887
Ni 8.469553488729144 9.304551159049982 4.355291478343179 -0.5913370149252073 -0.7406306910884342 -0.5005878719650928
Ni 4.545165963923192 6.793541120244623 8.647983512837794 0.040533955558304385 -1.329537242195278 1.494329013994104
Ni 8.009520973004733 5.847070091993237 3.6069818546683634 0.4250005243470809 1.4449201245436727 -0.6743517653555419
Ni 5.287514445462684 2.1119115728454574 0.37417344040658074 0.8037772418399318 0.7836758431043664 -0.8524860198995448
Ni 4.7207681712313985 5.554704013109383 10.970589791599341 0.19099311278454204 0.05613720931320009 -0.3605154572898178
Ni 0.5154906975805498 3.189322813813057 1.403686904316857 -1.4904114241072524 0.6176694821721491 -1.159724363032777
Ni 7.820021853093554 3.1895929280660638 13.050498414034237 0.060332221231154164 -0.1256176727025256 -0.5685583264677949
Ni 3.486578892104793 0.7805957283368025 13.131433958519674 0.6506235685006666 0.060665436200856813 0.2553223709902313
Ni 8.110851075020644 6.3990904822933565 6.93595932585671 -0.011280972230457991 -0.6929835215241162 0.4900188381999948
Ni 6.140497999319944 5.021898991911095 13.351664628995362 -0.5333604384104234 0.30483256190521696 0.3593476622339618
Ni 6.430824249879366 9.212200027375403 5.425611754455121 -1.2645873196864543 -0.0272619210397466 0.6870113631010814
Ni 1.440808054107666 9.221803054784024 12.564830192842562 0.031235046754881687 -0.3729829936292093 0.04289962757700354
Ni 2.3745464553293854 6.261853813196708 1.3769949589774877 -0.6786303381262377 0.16977559816666243 0.37159691191496
Ni 7.135198393159932 7.7416607768678105 2.148806385520816 -1.537547715473423 0.47496837162477556 -0.059497126924368496
Ni 1.8484942904562682 2.228302873037647 10.725601752692887 1.099378257844552 -0.8688271802617296 1.087392032016953
Ni 1.1258548351016888 1.5961144353020136 4.766608422823577 -0.17592593403877443 1.7293350420244862 0.993001178539193
Ni 8.921631605416732 8.689240204984984 6.657667130982971 -1.9157215092749524 1.870229438380424 0.33732487810596745
Ni 4.967661912764238 3.4494335251740593 8.062976583674786 -1.9003391132816112 1.4482551024541768 1.4175651295694875
Ni 8.535573137877849 2.161649852537062 10.15358638767105 -1.344009210559208 1.392752184290866 0.7871730576243475
Ni 2.7095719576191475 3.4776371789018077 1.917941596332786 0.5764971216988974 0.5926235949471149 0.6116335603907144
Ni 6.8799963097759855 5.0551603021692815 5.348453152369487 0.07385956629362764 -2.1125728806124844 0.611548971096708
P 8.279663168865333 0.5201487713022298 8.560613660560042 -0.6133834532022856 -0.5440405438320889 -0.3418518194420435
P 6.303283751037206 1.706004364852866 4.097352858147736 1.5823047079741395 -1.9853184436374842 0.21782900203046354
P 5.771559186850944 7.260000492333679 0.16956096232543957 -0.5052780783519104 -2.7668150197023444 0.5717770905154088
P 2.9430158722091635 0.10898085537521551 10.962260026893683 0.7460675458332893 0.024277127379809804 0.10957398897610161
P 8.642557010637733 4.231237316221724 11.13397352038705 -0.1364844402137004 -0.1927879999014357 -0.5289191148096181
P 6.379344198970098 4.99436596667357 7.60337438789827 0.4070274848084281 0.512203344716834 0.40905351409952134
P 1.328356696295542 6.4032260246497374 13.008714533379456 3.7839390594316695 2.0216149640756735 -0.439196870452121
P 8.853152985137204 0.09312608015217255 1.0245349787988225 -0.8300179207040158 0.025618729009368783 0.7386188028647278
