# total energy = -340891.3919093734 ev
CRYSTAL
PRIMVEC
9.07702884923652 0.00000000000000 0.00000000000000

0.00000000000000 9.07702884923652 0.00000000000000

0.00000000000000 0.00000000000000 13.28514924099712

PRIMCOORD
 96 1
Ni 6.458923402376766 1.754008784236611 11.485715824317348 0.29723186673982355 0.5799686251872658 0.05948941361488465
Ni 4.974593151020518 0.4244282625273116 5.942806254075941 -1.7472175787318618 -0.20470300617146683 0.1927736017237325
Ni 2.8330496888036243 1.69774935822542 4.976138969066614 0.2883355926914583 -0.9907717749880421 -0.43096445523999966
Ni 3.4527203075406345 4.098632617242207 4.9762578781470825 -0.18637078352118225 1.145104299126757 -0.2118182770600094
Ni 5.094927325049294 4.638615998006929 2.8754112756464165 -0.044783731973593845 -0.2757590415780283 -0.19441139443747166
Ni 7.339168293863577 6.159444983146817 2.3137546726346927 -0.041959889371553545 -0.7940978097686389 1.0022553501476092
Ni 5.035999252499335 4.713437948411938 11.595889172034907 -0.42738882207359946 -0.5906135064956215 0.34892672401095387
Ni 5.667824013125501 8.054547106834534 12.439948487240075 0.3760104676016234 -0.36099831046350733 0.3669452720755616
Ni 1.7035858879003465 6.723918188270718 0.43540239064082076 0.8798361297777235 -0.3922657531182212 -0.8022793171381667
Ni 2.4973811547775115 1.5131225874820147 0.32741660692272856 1.076988577295442 0.3447553662420837 1.3253779686112659
Ni 0.8127344879762858 8.83145002266187 4.4501396592462035 -0.6672812316620056 0.7561156740979107 1.029385373595182
Ni 8.677875768276047 2.341583028276046 1.313355332294165 -0.5720748242614857 -0.1804726728691924 0.622248102681767
Ni 7.050482462166268 0.521793014561684 4.7740715947191585 -0.9555962555281736 0.371642934661547 -0.8691236284562257
Ni 0.6124571037561951 7.503698522304824 2.489597602372769 0.5271090581840728 -0.9582594041826337 0.15890805932453922
Ni 7.656247072408741 3.987611475011991 3.8818413940834007 1.4586022500164555 -0.5308075900815826 -0.5995174938534708
Ni 7.550436144849455 4.186325794830803 12.725446466337331 0.20601735410751618 -1.6265351385474247 -0.22980494344541713
Ni 8.10542385462297 8.914477607322143 6.8059291456781255 0.20514857834931766 -1.117653916225288 0.16774288400734982
Ni 6.716865336703971 0.895956321058087 0.4364798339882761 0.33666487592446537 -0.4127577024239859 0.5597489557062811
Ni 1.960338731422862 6.631223567679191 9.119936159720224 0.29620136859278023 0.24933144351411896 0.437885093619233
Ni 0.08781934829229951 4.934064216341594 1.1986861320913937 -0.18174099805865473 -0.3691628485521707 0.5923140341264961
Ni 6.558044559531043 1.982404989027445 6.957512807594726 -0.31535685847530853 -0.31737723133944695 1.4985055139692969
Ni 3.376609419011458 4.5329503029123375 0.4818032554079404 -0.5094414657009807 -0.4652591147568116 0.17409428014667436
Ni 6.264847444399148 5.361592284287238 4.918680467518786 -1.2445455705442308 1.5624624764372317 0.9552890087003999
Ni 5.37900202599254 3.026608256125767 9.191330623958434 -0.7249310209649903 -0.164114286115827 0.3343220867239016
P 0.286401143487077 5.59598840527578 12.367610919684255 0.24338422479174857 0.08701692961119208 0.7070963067764144
P 3.8875735379243275 6.422279436128432 12.733404297699709 0.48767450633753434 -0.8165684800673293 -0.2193600939630093
P 2.589222534638956 8.500819239754865 1.252815179386091 -0.5215410771779921 0.8163810466468715 0.9193580991317457
P 6.491310242003731 7.754560373978152 5.867452389768986 -1.3374202444877805 -0.9734715931466977 0.4880090068588176
P 4.6541377176711975 1.1155941005249135 12.812132093702106 0.6889335198244587 1.0018802261963777 -0.4853281175925448
P 4.233889427018386 6.1344468451612055 8.17732844789342 -0.9212874549439746 0.2589864501053798 0.29077351270898955
P 4.84468271135092 1.0627204063469227 3.8454924312789776 0.018628156624148563 0.26495038099829854 -0.5316195444599167
P 0.09835687130881962 5.5298622486943785 3.438701743885958 1.0398942435463057 0.8626272220986048 0.1358807451914305
Ni 1.5867372930242474 1.2928230925979218 2.665691965815348 -0.47831954748519556 -0.8976934696741186 -0.3630464512417877
Ni 1.9275615795470293 6.707098453453239 4.9015294211412215 0.394598772126772 -0.8583167676487089 -1.0922467890060932
Ni 5.95847048309619 5.718818762291502 9.59846714615801 0.08235166292503882 -1.2271692840493125 -2.44966610232362
Ni 8.628805349267255 2.3124457650466295 10.299006832048763 0.34240126418761035 -0.13775199407221436 0.12377367751525135
Ni 2.3651469956727955 5.254746575417001 7.054202228668267 -0.470060649910513 -0.3830074677447468 0.08995878584833539
Ni 0.5913248724401813 8.92576035442313 9.22244486411351 0.4619259366185206 0.4534970891248771 -0.502389958170838
Ni 1.328196274780176 0.8138545933602452 11.695435134148417 -0.538986269237633 1.0160004676478436 -1.3957022680581255
Ni 4.001181633431922 6.561285058899547 1.7216891146245672 0.4193677515413358 1.1661613769073722 -0.5665073574760372
Ni 5.4828432382494015 8.013282932803092 7.770085724454038 2.0833723477891284 -0.8528485454452859 1.3196068704554436
Ni 5.58281763613376 2.916640049264589 4.893810315642686 -0.4406307746851702 -0.2075355905242555 0.30089311764149473
Ni 0.7540378796669333 7.282854405678125 6.8913521583029596 -0.034425271557405226 0.3565680426062956 0.6224849012829214
Ni 4.997984654865442 4.483825421729284 7.024535774645618 1.0018889679471261 -0.12886446177459743 -0.06238447577449256
Ni 8.178548400596858 7.014056344614976 9.36074247861924 0.7329613474686344 0.4245356688955204 -1.664817579067391
Ni 4.693749872416734 0.5535662470253132 10.583149610709834 -0.8086065449077751 -0.6591310917510455 -1.2295650379749985
Ni 7.814641229216629 7.241699155995205 4.412794946355716 2.1031389888930945 -0.3533824457894624 -0.2709469649013656
Ni 7.408770952568613 5.987498821977086 7.154982666731683 -0.3331895157813552 0.7319861280395586 0.3216385777189622
Ni 2.2365164170983216 5.0633937261524125 2.6929793305257133 -0.042836378439235906 1.4978879349899559 -0.3031135223315812
Ni 2.334829718667733 5.2096972802744475 11.59774996298881 0.05467348028348004 -0.25018273577082073 0.03439801786389559
Ni 1.26658140163336 3.33749650086331 3.83477155227578 -1.6608303122848689 -0.2575584594096016 1.1599012549302734
Ni 3.519254930428991 2.7434503351159076 2.6548512700287774 0.760623075049961 0.18068093222525655 0.043935525040685625
Ni 1.0530170622994939 3.0473038823447913 8.27174588859739 -0.629170026612581 1.31370567447966 -0.27953830611480246
Ni 3.457912368153478 2.7208939179429796 7.195197536205703 0.1240737252541734 0.22044947037244614 -0.8431757982422124
Ni 4.297564785758061 6.735890789579004 5.931393705459633 0.21159587663655818 0.6232909421239846 0.08560282287248483
Ni 1.0593165204556356 7.449145577753798 11.284552522062619 -0.17753878705184906 -0.39533667873406103 0.5094034133741937
P 0.3447001779243273 5.466776896842528 8.23416244984306 -0.333717106150051 0.3050621614175198 -1.5500892995838595
P 8.538997223911538 1.4540946676125768 8.022477055521184 -0.037633751192373895 1.122566265925241 1.3158782566509466
P 1.7257156847082338 3.068771056032508 10.421216320277912 0.3588712368181755 0.2960627861323869 0.648093088769329
P 3.7983009572821747 6.223338190583534 3.857834467669332 0.3290011887316205 -0.8178221499687721 0.268504416898144
P 6.804876210309088 3.7372125518198778 10.679665660528645 0.41389258735937745 1.020522266777597 -0.7957919096416101
P 6.304214519360513 7.694679213378632 10.35319669543805 -0.5779533945294498 0.9449122934517662 -0.41596926738274814
P 2.572157720037304 8.565011989150015 5.8185235724132705 -0.3296506493901613 0.5511280468064895 -0.02198421758057504
P 6.863531971987745 4.002189183655743 1.6242826082565949 0.7741031118142668 0.49634580885928714 -0.21605082708411827
Ni 5.182556963434587 3.0772399241300294 0.5807455950900614 0.13320911189653833 -0.6411557382195473 -0.2683007855277702
Ni 1.369887069176659 0.9986365813002933 6.932137972903811 -0.05391834728501036 -0.01596012287368219 -0.20181308621818148
Ni 6.867662020202506 0.47463331016653354 9.249984570231284 -0.4333416972229247 0.6355509904382604 -0.8463251425044714
Ni 2.7035204843538505 1.567875226671996 9.019008673786306 0.7050947029653535 -1.4812958349592296 1.81146456163639
Ni 6.625967967863044 2.1959420972741808 2.796311321453238 -1.0591338085022082 -1.2976303661843522 -0.7400755899159125
Ni 4.099349702536638 6.820062079898748 10.512485847309621 -0.6569839635010557 1.1138844218805268 0.026649998487360556
Ni 8.203455768292034 7.17548222912337 0.1240684637772449 -0.05865740463189253 0.8191434398833569 0.5324734078197797
Ni 7.634861591982415 3.8238800251265657 8.482568057457236 0.48030521045665664 0.09463382272650153 0.45571440849116995
Ni 3.28475896212097 8.54005923630962 12.28973273360032 -0.6904191032310497 -0.6823728358878054 1.0171044993453
Ni 0.21209476833173466 4.955930779307222 10.296721236135626 0.12927558117008703 -1.56811761784048 -0.09327396626449744
Ni 8.492568220354384 2.234946091073808 5.618090063293632 1.4433219268186175 0.8592793886722944 -0.06446218423912768
Ni 3.406436536448175 2.680492061670664 11.805011213354918 0.39777202764843106 0.8460148103529044 -1.0135592051962028
Ni 0.7794862382930989 3.2596791308739683 12.695581225378632 0.9797612828101513 0.07336642870729301 -1.3078620712146896
Ni 3.260940837911005 8.326549359150015 7.903840285923529 -1.5262685430151781 0.40564911640366275 0.3099194895098211
Ni 5.503048704900081 7.671042629749535 3.553179418775913 0.2920086706676713 0.40347936244585353 0.1952027799905154
Ni 3.1662583479589665 8.5347673283773 3.3636002209864113 -0.1438588783009006 -0.1781846481659641 0.8415526608164926
Ni 3.304519654348522 4.555860724217959 9.477147206775115 0.38351860305321045 -0.7450607018353297 -0.2933839537486431
Ni 7.460428324854784 6.13001725498801 11.356477992499869 -0.6377662529220242 -0.27194275315573163 1.3287247735963117
Ni 0.6026920359112711 9.145015990967227 0.6628164608891555 -1.200489974985913 -0.3424272323295393 -0.32016250739406793
Ni 4.643880674852118 0.505680380306688 1.6488332487103654 -0.278699612263591 -0.5269671332895699 0.39506568446086154
Ni 6.071760882587265 5.691079361534773 0.3353599150386358 -1.6668351237180519 1.1365062730451008 0.290552397837119
Ni 8.102128893080204 8.69798138760725 11.089353735592328 0.02903161134565968 0.6512043807048011 1.8105980998710365
Ni 0.0626596391897149 5.264549766783907 5.5972464815012 -0.03801787400467001 -1.0647629817635276 0.14729464345532697
Ni 7.749994628369306 8.881754917620572 2.484123246156675 0.30227534270100204 -0.35659503918948915 -0.308087835617721
P 8.607002325504931 1.4214990563176126 3.5343808916269657 1.1261236442591962 1.315511617340147 0.11773184219654563
P 1.60353887378364 3.290740724260592 1.5463517754042102 1.239053437081408 -0.5736694224421153 -0.7545853534963133
P 4.8474784362962975 1.115330866682654 8.279504025320811 -0.1890385601613325 -0.07682687645206769 -0.5909521207819629
P 8.427821772187585 1.440460969989342 12.47936548586118 0.29629624229943163 -0.10283127093562935 0.16845636513460668
P 6.313209855142554 7.787809531364243 1.3629504035816682 -0.9539178393844862 0.20367507912758473 -0.8593351816108943
P 1.4816616048174795 3.4154318722302164 6.043015747012524 1.2944864212387317 -0.7215937290616412 -0.034235009923470075
P 7.182970778084201 3.9662350716147086 6.351457732422863 -0.837792422443112 0.46636623177806136 -1.314495517370807
P 2.6099181608579807 8.703109909016788 10.221394602915801 -0.5894084304439269 -0.4312058818268445 -1.0517845672259885
