# total energy = -381165.5127047917 ev
CRYSTAL
PRIMVEC
9.31354135362468 0.00000000000000 0.00000000000000

0.00000000000000 9.31354135362468 0.00000000000000

0.00000000000000 0.00000000000000 13.63130919822470

PRIMCOORD
 96 1
Ni 8.945814549511278 3.7917381631054745 6.164527606088289 0.06448455283663088 -1.0778869207399955 -3.410205303679366
Ni 0.35544757037749264 4.637752295321724 1.572889446777687 -0.5954397242396713 -1.1999071058992499 -0.453289086879129
Ni 3.510580984606139 6.57493158839009 0.35195499246781825 1.6069225065228196 0.5064047357571859 -1.5693926278981616
Ni 1.6890293042007267 9.126618322739303 0.28865364772466084 0.3812066670905822 0.5875726627867687 -0.25165957742666334
Ni 7.38459496972245 7.907755199968398 3.41776409678685 1.2966438339013668 0.8185687983268095 0.45350840197878667
Ni 6.262033861847634 4.5160429403253906 0.481693551239966 -0.48040291237678545 -0.27562740109617045 2.223289982054094
Ni 9.072515962533172 8.932226093057372 7.264111276733884 -0.7427809046622176 -1.2714681059666877 -0.024043671212765044
Ni 2.087592981711677 3.4282120271843777 10.736741444096445 -0.2890701568646376 1.4598371508648214 0.7932110362883114
Ni 3.969477781314078 4.118699336697553 12.828983745521482 0.5035096735975779 0.478542205018963 -0.8431845399929608
Ni 2.1043014744315593 4.4361420712931325 7.680206763997291 -1.293484976557411 -0.5298719656411907 1.5841001093116653
Ni 3.0543851148150143 6.195330280543399 9.44362052684121 -0.700145072269562 -0.0820737266733038 2.289247262781509
Ni 1.160299576381484 6.752522189941215 0.47622650261868904 0.4039635011711236 -1.2280665990526012 0.9255562575226576
Ni 0.4318260581685803 6.2020080895066965 5.980587032220322 -0.5252156978161019 0.011810619481682886 0.6257548302834449
Ni 0.3103346400338103 1.3181920385220445 5.522016209450619 -0.19677578090459014 -0.12367314738164507 -0.08619803325432251
Ni 7.277377484665991 1.9496687516733617 6.8939799774700115 0.08666700247094107 0.6815279713890069 0.34745528167175005
Ni 3.131361531944238 1.075509098275682 2.2479526008876314 0.09955928505257693 -0.3209469509685763 -0.9175087046278328
Ni 9.30509371069421 7.706778296734094 12.562600637257123 -1.2541848934062079 1.208317698560448 -1.3043846541890505
Ni 8.645070994094487 4.831874432311974 7.96301523333232 1.9423936192495 1.4684711723907355 1.3287142320733503
Ni 3.1163294766209995 8.571987637141914 9.914023272214779 1.5060589008365224 0.16397518943480144 -1.3400180871219438
Ni 5.199722051299975 2.3503838571766713 8.392170167915582 1.811696732251854 0.013761315450150495 -1.1889377513719397
Ni 4.905246509038414 0.9151718315983496 6.082834811749841 0.9764108782806796 1.8908437721966662 -2.84980714442486
Ni 0.5259012053894607 2.7064684737648887 7.834826447797959 0.6115145183143469 -1.9724652418239 1.520058043329092
Ni 7.992573618697477 3.768417056209942 2.814470158981332 -0.7230384319279677 0.8260900464045192 -0.7392932032239332
Ni 8.910525542311929 1.2957929721946662 11.369861065896474 -1.3053390476825195 0.657114832651965 0.45068275960453347
P 3.3511983558907836 0.2791426595610355 12.401056335654207 0.7766636734525915 0.6068996452501547 0.19086301496458097
Ni 6.223811089204157 3.6789511804757224 11.995688185021102 1.4923873168867008 -0.3407220767129745 0.1087877456293804
P 5.266071718042696 3.3224195139150665 6.355924600954883 -0.3279156689769256 0.0010351261327337011 0.19679377862671912
Ni 4.790736521306555 3.8325501001726563 10.332940762429203 -1.3544082944053448 1.314471349001091 -0.3215149076569044
P 3.180946824720522 7.799587733720508 6.090619069394923 2.2967901081257733 3.3099574772001965 -1.1351322755157094
P 7.505596495595756 5.498817109943398 11.153504712256183 -0.3130158690469577 0.20746797051111365 -1.4573205550905548
P 4.798075591687418 5.675290086563426 1.984036649658667 1.1946448290590457 0.5640187867262286 -1.614651242625645
Ni 2.952653305462018 2.6127183691281353 6.677173779794954 1.3472752829049894 -1.4101719224292102 -0.7389065093084758
Ni 6.880844159113199 2.5124580992677488 10.017089712006324 -0.34912187074089546 -0.8786020002603063 0.8386707112830072
Ni 6.590270990569381 1.3301785659080472 12.538527927595428 2.367858741937825 -2.2724746713088604 -2.0451927513956134
Ni 6.940041026296907 4.6208575317799925 9.221853005826194 -1.7478804091268416 0.36869542199744887 0.4588809791446097
Ni 8.680564899197872 5.309938496588207 12.882091419538938 0.2912800200317629 -0.7497455089055088 0.6512650587394074
Ni 6.032585463493664 3.45621784524942 4.2510466183297 -0.02757096763973316 0.0072780217186519825 0.4802352764506697
Ni 7.685785575111678 6.250848298995583 1.3658568791250623 0.42465111142746226 -0.5805815761809162 0.10648789385161016
Ni 2.375819137900194 6.582503497298265 7.42141605443151 0.23515875155816274 0.5379053774686284 -0.7289707382520026
Ni 1.8790907372746612 4.32682903949087 13.581923004830182 -1.0997580097814736 -0.17972859561431628 -1.405939115294785
Ni 5.826793459514556 6.086985857014753 12.369676221651364 -0.026269475219490242 -0.5771548098875543 1.5439998988566699
Ni 8.535581005011469 1.6896439979128293 0.42124587548753994 -1.6467018433032867 -0.776698640455585 -0.7172279958937777
Ni 6.708618157231334 5.340254072844179 6.621666937592081 -0.5684878782411757 0.09466930395012729 -0.03510250013008793
Ni 2.508974834899167 5.423181842731489 1.9383174077898653 -0.7312003989134697 0.32174502138983946 1.9329224465342711
Ni 2.3346905404358678 6.816012599568549 4.444528915046898 1.123234238526543 -1.473047478907508 -0.3797524511425589
Ni 6.139849516255585 6.045605793940931 3.8714965349590176 -1.7626583387669645 -0.972316653606648 -1.0627809183364922
Ni 2.026468211521829 2.0631356228028634 12.582392843432721 0.8135047535403409 0.05555896821222689 1.102933836406294
Ni 8.301410641323619 1.4973007472712403 2.971543960859865 0.01689086221806768 -1.983724873898119 -0.33958204957126037
Ni 8.938633809328987 3.7254350640682157 10.591335646498555 -0.16315809285014482 0.5040467770479706 0.03180840275984844
Ni 0.4720642811044664 7.704738631234845 10.198999933916134 -0.4352970211770826 0.6995462623432984 -1.2875873801260536
Ni 5.331806691073314 7.632931229411938 5.322522021958236 -0.5465296288025298 1.4311091868025094 0.14285563384736685
Ni 5.063446318035025 2.1818460175674237 -0.04396457072698139 -2.1328321450821526 0.5458140907927439 2.7891473646509577
Ni 1.1032913913545053 5.822248451461433 11.22339259325993 0.2703550969536376 -1.658153279673338 0.4437091565001777
Ni 4.1444792184414965 0.21763044606174067 7.845704663793958 -1.3261331016097353 -1.3303857062385023 1.965085918640693
Ni 3.739600960069855 2.5973510263255677 3.9492767106845212 -0.5528936233473446 1.2108952294796371 1.0108050394898334
Ni 8.013994763210146 5.272805408252548 4.523086771453622 1.3337019150959288 0.12949515338006085 0.9670950001963926
P 3.7430749108973442 5.862417754193235 11.478079756620373 -0.7119034983570707 -0.430615042320381 1.0138242859321314
Ni 0.13415410860408547 6.495030719357833 2.7956856779519397 0.8352706844625227 1.0534961506004565 1.1079253760836145
P 0.80476725278005 4.84916036457959 3.955369629267212 0.38820161035117656 2.6113740929907996 0.2523470904119912
Ni 6.744102748793627 8.601884104048727 7.045205806896585 -0.6386021185597582 1.2576954776626275 0.8113810223291188
P 0.08637191738330263 3.095234306046566 12.654080100575532 0.41996604724696707 0.5613101295458139 0.21654190778792384
P 1.0893583338801776 0.38418263871007513 3.1120415223020284 -0.20066791687014474 1.1582729752982308 -0.306150252275376
P 1.046171443834417 0.9515924340404343 9.311561033628818 0.6012187928152936 0.43344274157716317 -1.2573530067215444
Ni 2.3563352099347568 7.988000670021076 2.3640505473757547 -0.028945222279440474 0.13836005996985848 -0.38121180929690474
Ni 7.152902007965196 0.7375802986931163 4.9713251517353445 1.5193131947432672 -1.1897533052946994 0.9375193434218048
Ni 7.626691156879986 7.125436375283517 8.944755599889064 0.39753291505443145 -1.7422540640789994 -2.116757608117793
Ni 5.0005426614965165 7.107656825338 7.87445277108407 -0.34558737522507577 0.5373955277117455 0.15780531317866373
Ni 3.3903431691024144 3.2668642412985123 1.6071036713349667 0.3112505496164188 0.28937508969956616 -0.2956565518329037
Ni 2.2957692522104565 4.414963078848867 5.417695235673918 -0.6165870477412477 -0.056080387933335675 -1.1050812217666002
Ni 5.456077269870075 1.0289134521900793 3.701445244922244 -1.0049874043667917 0.011692605846579862 -1.7193319080651874
Ni 7.310198403475839 8.31716915285207 10.65967002884808 -0.6815218007414199 1.8799965450695169 2.179480698178627
Ni 1.5175297585240746 0.18890748533257837 11.212569327156379 -0.3498199252491846 1.0751823773246387 0.3994013357217379
Ni 1.8235634052813845 0.3459300627351026 7.151584141900612 1.5312207448141306 0.34702205078907333 0.12289873110946577
Ni 8.96105150273855 8.417755396650692 1.4295289028036997 0.07790134046316906 0.933359041396528 0.6796718920168746
Ni 4.571849678551441 1.625594775819947 10.807800968569628 0.08603014021789054 -1.6304771539143081 0.8522330233484742
Ni 4.3179625483708435 5.576166068716321 5.911352961801264 0.26485422174006645 -0.2157448658079252 1.0306269593117667
Ni 3.1676657151226673 2.590095777814538 9.055892223037231 -2.293210361194315 -1.049027830416458 -0.7077596513920262
Ni 4.398124196553691 4.845993760608152 8.222746610548441 1.346846680008003 -1.397038984591678 -0.7848510943593903
Ni 4.159464706059273 8.956608943637445 0.747920192013971 -0.3177140458535754 0.48509414720486776 -0.5505456919404583
Ni 5.132180251297418 7.922088739709701 2.8468440278187406 -1.9325871746820393 -0.1659405406912884 0.03440573117337946
Ni 3.957966244523791 5.104314136348763 3.7538581287742003 -0.18688346149154267 -1.4142617762278675 0.20626418001099964
Ni 2.4007887415690927 7.594391796371317 11.904153771810245 1.2554753300828572 -1.5182970947739272 1.4759993624469805
Ni 5.962845667793285 7.424754958913159 0.5787322672364689 -0.522118804058333 0.12155712947990678 -0.06788277988490245
Ni 5.116365858522412 8.412213839700676 11.988463671195678 0.03212979065500918 0.12704823450146507 -0.2467217738054138
Ni 8.258475216887355 1.046627807347948 9.042355922413442 -0.3222183614818322 -0.9754210035635847 -0.5497630481381629
Ni 3.0491415911799566 0.37685753864085136 4.383992760654094 -0.5643455739380281 -1.6239504085393839 1.8322424176136896
Ni 0.5896393552098548 8.152142518234681 4.537917654289264 -1.9722852646026097 1.9620417324977306 0.35883986935960777
Ni 6.45708735294713 0.12746978016202326 1.6983651977918135 0.9607268918865197 1.6248688065885954 -0.8940998387855892
P 7.598145153431581 8.725735573496328 13.418524377195757 -1.050099466214082 0.9737747262094132 -0.7440865108475184
Ni 1.0996032290818893 2.1372527828167005 1.4787239582082097 1.1019367626003473 0.16875949819732225 0.6645730887022232
P 0.4916245801068615 6.689506770909596 8.29501968942597 -1.4630911390257448 0.037587985556103 0.18381125032412216
Ni 0.5993924954418842 2.919990716850743 3.793934296095078 1.31058229835933 -2.2620349640327753 0.23918432777778806
P 5.6979219914181165 9.11716507853045 9.177537314600027 0.7493449310329804 -0.5802632736095491 1.2815584003231542
P 7.6971294681622995 7.361692972176078 5.597397216990704 0.6579882363958539 -0.46202955207592045 -0.704274263946587
P 6.443359193376836 2.5952182254153935 2.055206073916739 -1.0299625862548907 -1.3074195843606322 -0.6322381240149434
Ni 5.423470562505355 6.3218547362845365 10.219882755753659 0.32762847675380996 0.8139495543872434 -2.231110763650093
