# total energy = -340868.48586317914 ev
CRYSTAL
PRIMVEC
9.29898165368973 0.00000000000000 0.00000000000000
0.00000000000000 9.29898165368973 0.00000000000000
0.00000000000000 0.00000000000000 13.60999960564545
PRIMCOORD
 96 1
Ni 6.456599256847101 5.9782782289646965 0.7464878558769048 -0.6691139139953703 1.8261789850284293 0.22933854533195985
Ni 1.4177599672433385 8.651819198781604 0.7823242720916335 1.280892227494065 -1.0189461805397289 0.09726251859860024
Ni 2.703297711704689 5.576896976825887 6.337564850110503 -0.22296323793323536 -2.1497145226597882 2.5022770436511164
Ni 0.6601700569477393 5.5442296536222075 10.229969864596452 0.30517888950104216 -0.8041276832008151 0.13616356653917194
Ni 1.0916818700442956 4.459345339302901 0.9289738651982756 -0.3173741460156534 0.5908047965708212 -0.27397521020472815
Ni 3.1903318855711094 8.8238875587477 8.894869476826448 -1.126433205079815 0.9847793048500331 -0.728227689438391
Ni 8.665395712267905 1.340838789463424 5.058850698523295 -1.3135982023675183 0.0827175309048898 0.1252770015336552
Ni -0.08805949822778472 1.50192505187656 11.824762918210224 0.3656430083243703 -0.34449542771247765 -1.8205678094892388
Ni 4.26777701441847 3.6449498087435277 8.085905481559779 -0.5449247462092551 -0.027707493217597443 -1.5922008840419286
Ni 4.144779381621694 3.329333066114408 12.422214132342177 -1.1857647529605964 -0.9227864080870044 -1.3293387530312268
Ni 7.535820491225888 6.215476657737673 10.98781549689265 2.3186308581499486 0.24448439983446282 0.6311014393073389
Ni 7.307632775855805 4.391397678998521 2.168004611783576 0.53869624880104 -0.21415618116456664 0.9905977113040231
Ni 8.96250748103556 0.5886897134423688 0.18617212572271952 -1.9166730745549443 0.17098864463815713 0.777126472021623
Ni 8.411208043673373 3.601942017733844 12.95593012494324 -0.6554217612202583 0.49250278096411304 1.436408487528236
Ni 4.162326560353645 0.9808473054941502 13.558417667639699 -1.7099306693559455 0.042507534344907436 0.6364932997468716
Ni 0.6521840913436061 8.501659240030389 7.496891233651198 1.02907735543646 -0.40033233217643954 0.006142622562628131
Ni 7.263462612116129 2.0249834813908754 1.8087012524704569 -0.028623577273963603 -0.2633079602988691 -0.0953871559527583
Ni 7.741169907197098 7.621464113971658 2.5992653523704536 -0.7007744783234446 1.2832987800530287 -1.5185421209051975
Ni 5.056470159172272 2.9497951223175978 2.557468288796329 0.5216295231267404 0.8630542823336943 -1.061226686475495
Ni 2.563952468833314 0.9572464895844037 2.0612476507702406 0.7775815572811705 0.6751264387380372 0.21009615216258012
Ni 3.067362149719853 1.0815645778024499 6.035531130254972 1.8707899388695843 0.8517072327519912 0.2650465402565306
Ni 6.384848312970187 7.017299964849459 4.636178497563778 0.6536047626161776 1.2017840112069882 0.48562430867672496
Ni -0.13978136511966854 6.192275698047043 3.674849754951644 -0.22010365699725318 -1.5289026382039153 -1.020721527272597
Ni 0.289910637230813 3.821351494247031 3.160718348003663 0.20427697437764175 -0.9081110654630167 -0.17815765158277058
P 7.918436398011715 4.368949936836926 4.456716517136753 -0.5739517295692245 0.1485845659113441 -0.5927804322399534
P 8.651772703872405 3.691342429142946 9.58011981769467 0.4503289758095406 0.37695046291738954 -0.15564018720654485
P 1.6058225759741165 9.110175312653675 12.111294305440406 -1.3021117989944735 -0.6004569749486046 1.1553640291815521
P 4.85800198976261 9.229388259841599 7.171176726642096 -1.1177953268991587 -1.0204297070637909 0.7647810630823926
P 5.772789328265886 5.983160194430661 10.018674679636788 -2.620553188386906 -0.14300655760293435 -1.2799262640363698
P 3.791817927923408 1.9469650237538487 3.9207548204213487 -0.14135873758686623 -1.74525454146822 1.349294370217547
P 1.5994899693411229 6.662757684238385 2.1570485513797686 0.30544011358222883 -0.16578010385402417 -0.6776072961783621
P 8.018167978244982 6.790442003882486 6.874846072348994 -0.8538944702112972 0.8809723002646958 -1.5368092946455016
Ni 5.312443232280071 1.0103343769085735 11.551337515985244 0.605232284850061 0.03663564894516271 -0.350410507645332
Ni 1.92637707796024 1.8364001296770613 13.302930931282129 -0.9130912922864274 0.14720671172721098 0.4629615769718865
Ni 0.7526326230767317 4.6371418720823945 7.825178768935408 0.517637885468844 0.32705332097663026 0.5493889526281959
Ni 2.853280989800947 3.642457681610426 3.254055948323793 -1.3041252298800767 0.29968212805252903 -1.1954087038082637
Ni 8.864886769679957 6.252086749241483 0.730682376443573 0.36805727419281775 0.4995146935055719 0.23623861488590284
Ni 2.2747169376840795 6.540048319878648 13.498070995091279 -1.3767151854326614 0.23312269496474045 0.9398863009920846
Ni 3.455780621173798 5.262368215072039 9.65226596829978 0.4335129326934663 0.1656507773650115 -0.5937068007089646
Ni 1.511019456116013 1.5733040364798754 4.241488792756982 1.0282124363330034 1.1949482192320775 -0.6186824968176958
Ni 3.027367228826307 1.1194765267638511 11.233680576740442 -0.3490987308124439 0.757499698929631 -1.7407491973986988
Ni 1.4620975126561329 8.218905099223587 3.7716437868216763 -0.0983927755483015 -0.4577772045574696 -0.9699088154961039
Ni 1.2035207246331536 7.882728307746377 10.084070699324293 1.9739685658423034 1.2975887143131395 -0.13099590629530344
Ni 2.0694047176402286 5.57786407093724 4.199202602738078 1.048780233182026 1.2529991006282226 -2.54278580239844
Ni 0.16314784668704876 0.5228287446628689 2.581176972895419 -1.538075562952435 0.702250548648339 -0.07393155718214364
Ni 5.185884089438601 9.120190316095282 5.116937718484611 -1.1561284181514022 0.841581457171899 -1.508893799182156
Ni 4.8359912997474925 8.23601522580906 10.366573767621414 -0.02638671752364488 -0.8687629026826974 0.4390557168885664
Ni 7.408656914564823 5.325034053691338 8.342834490000724 -0.6537973382429578 -0.18660629657075606 1.5476513795663283
Ni 6.062536303416317 7.75314699580693 12.30579459929897 0.5365411501312501 0.5963820335482826 0.38000827590710684
Ni 3.0455560373052135 7.942948514141775 6.045752571093424 -0.2648030567871569 0.512285362907679 -1.590195937796758
Ni 4.508936809455257 3.889215463714852 5.202286563506056 -1.313461676789654 -1.190428219874537 0.3158273703538238
Ni 5.508614553175269 2.0722967009924473 6.64417087933673 -0.09683005904687195 -0.2397599977756 0.524933904909625
Ni 4.905966138092978 0.3498137483454687 2.8749215803388353 0.4671378198367633 0.00446574908083747 -1.6773504214270791
Ni 6.28924548067385 5.172679535225898 6.195353661036061 -0.366144373440821 0.3580801083754478 0.12077602833950814
Ni 6.9526348451345745 8.852788794306207 6.449765435092935 1.4161451092935096 0.1716879846980269 0.40104632752432867
Ni 1.759441755969787 2.985642697310534 9.417017536018637 0.4698469912378102 -0.6382966715041974 -0.5115243163719384
P 4.428416925703289 6.104883866715365 5.35557562964641 0.5191023858295124 1.0227570696453872 -0.26303053826776635
P 7.12734411594321 0.608251981539033 3.487058676490592 0.6560699363272186 -0.6842499983058603 0.572803217787078
P 6.869232277012228 2.104731549650129 12.590692155419875 -0.16554176259097297 -0.014550644120665262 0.5359721650016576
P 0.34645960559580535 5.545643098861876 12.397675979062965 0.49433160664273584 0.01929201546039258 -0.19104607750966454
P 2.9281935875034364 3.528173194797666 0.6561966020075366 2.128149909115135 -1.5377462046374741 -0.053404383763069316
P 7.638527745647933 1.8370324604421768 7.153252939145628 -0.16168690762125704 -0.10561037634266329 -0.3205538292952157
P 0.06932576941305842 2.592584033918463 1.267245717284021 -0.39769000945758604 -1.113255015826644 0.36001897726937354
P 3.6983166655228956 7.691345962498744 12.383970209729092 1.2227449297293715 0.2812534890336963 -0.259674734421656
Ni 6.5074925844570455 3.2033597591288534 8.775373840590593 0.5886324715098508 -0.7772689111367581 -0.2703982914867472
Ni 5.866997313286234 3.772085488459073 0.1435827888958326 1.0601326820803678 -0.501016217751763 0.9683720671366033
Ni 6.487881031756631 2.467168665843305 4.569992994318064 0.5178317466472049 0.6131217149004666 -0.7209103298413714
Ni 4.873670774162896 5.7375833830199054 12.468093448944034 0.017391970224202306 -0.17578143804111016 0.19829890241733591
Ni 0.9723387371106128 3.5198599050327672 11.604647648975387 0.7170235931924555 0.22190959985774042 -0.397519802428309
Ni 8.155988188094609 3.9467482643585092 6.578338737400934 0.3796771178199332 -1.9556108892707225 -0.3465805923762805
Ni 0.687010638130518 6.576937380837656 5.80655672102123 -0.8619376522307478 0.4730449293498177 1.5626398825553605
Ni 2.7592961803447578 5.1711173062767894 11.788110981288135 -1.2684007798952737 -0.4658684662060364 -0.2827035912166615
Ni 4.082336718566553 7.835173314616967 1.1073943596592282 -0.2921079152496969 0.7627722601824799 -1.8065056749692177
Ni 8.845284515961382 8.201460209291875 11.64826824288832 0.7383182409051736 -0.10057744190444613 2.4918126537846828
Ni 7.329913136344281 1.5172032790395678 10.432391961084452 0.3991647942308997 1.2825230782292687 0.3623075161932341
Ni 0.6013446978283318 1.501627484457682 7.123990903091731 0.8183762227000293 1.8365505580707404 0.5665996600795274
Ni 4.084521979298937 6.9735110593652205 7.7206675120364165 1.5189444985499387 -1.4076869512238275 1.11602203704882
Ni 3.619544990356834 7.440264153838751 3.448597157702451 0.7107632141050404 -0.7243977741693395 0.6874525644035581
Ni 5.347407403998214 5.390247813334779 3.5171232146772753 -0.5188375622039 -1.0675762828426065 -1.9234852123807713
Ni 6.196060383655896 7.670795212632495 8.396471947151634 0.32679132556449525 -0.6787228978400439 0.7372903138612916
Ni 1.0883807314911198 3.9526996127360654 5.4187259452195695 -0.46356501488384033 -1.2587450019730646 0.7225468370035297
Ni 6.3432911631275335 4.223402273078316 11.286922827163155 -0.19985262005770096 -1.4146214735601315 -0.32317661163004346
Ni 5.2646836615501815 1.0162020344495704 8.944669244172019 -0.18301369412349125 0.368901624470984 1.2806135199113817
Ni 3.527838431451429 5.320440356662412 1.547756013772847 0.8008071034680144 0.5140041453709986 0.7203164050111143
Ni 8.512715729438067 8.149702076370815 4.7561641901425995 0.10504139121307071 1.286690836453713 0.5556614159004688
Ni 7.6895605579854776 0.13583580712498552 8.62295608904864 2.118532183519713 1.1120401695829365 -1.8585455742845929
Ni 8.826956222754877 7.065106030488548 8.824206513824809 -1.1695025254654632 0.22426807278758798 0.8236585541448913
Ni 6.196832199148609 0.3065465157424507 0.32042989562946866 1.0888079385278733 0.8075189682705514 0.6919555944802341
P 5.600999937754989 7.470653226491646 2.504063306191418 0.5473775786251218 -0.9654618354683437 0.36614334499955653
P 1.3574281730658622 9.218508451088878 5.581910057935794 -1.9747815486619023 0.039480317482809425 0.6245389555984728
P 2.049755969012453 6.597432336812865 8.342262602617568 -1.0235875359664823 -0.22932928936057925 0.33235313592298893
P 2.5119525623844154 3.0238057187816136 6.833621826056209 -0.5610694742899175 1.2826410918643718 0.7507171287901587
P 4.11131234597978 2.8591300493782636 10.026160360017933 0.0629334062994271 -0.1655916419923019 1.1320209835802375
P 7.285315219439968 8.604645463907632 10.421081609472543 -2.3110108797108455 -0.5472559654455931 0.6811644174020011
P 1.2440828834189352 0.7460182572939883 9.23449340087172 0.27616579009814374 -0.04499353399155477 -0.09118237384279136
P 7.640582820634558 8.025039925824691 0.19203327397642844 0.931047619654532 -0.48878110913815176 -0.08307954222999886
