# total energy = -340894.2378080093 ev
CRYSTAL
PRIMVEC
9.03821151143193 0.00000000000000 0.00000000000000
0.00000000000000 9.03821151143193 0.00000000000000
0.00000000000000 0.00000000000000 13.22833614340312
PRIMCOORD
 96 1
Ni 6.450200801973573 1.8632001344121576 11.392282059602254 0.2777534463002378 0.23539709282121396 0.626084959929354
Ni 4.6332311181016514 0.46185169101877693 5.971641073639315 -0.05334190595625007 -0.5352514847855492 -0.7753956053734452
Ni 2.7618604407201146 1.629137577688695 4.656149310366534 0.3069616924330778 0.18276069757242072 1.3082479937991984
Ni 3.327318051110893 4.457555406048752 5.06342285893521 0.9909664074973514 -1.6124362372521974 -0.7080923521410967
Ni 4.9983115850951565 4.606893770521152 2.74764423824607 0.9570730971840162 0.09517709682448124 0.5029466020052564
Ni 7.347894019677852 6.147538221867823 2.791363873701248 -0.6702336294221103 -0.11116447339167307 -0.7164175841773404
Ni 4.940674911958287 4.460068028776061 11.469430423184141 0.6431802248487439 0.5353898101356264 0.10415461773274322
Ni 5.906136637609918 7.667349596284826 12.38858758496329 -0.8710468136208676 0.7039999272392778 0.013373078872796325
Ni 1.7712363349503963 6.697757408092259 0.19554350802113982 -0.03950371452157713 -0.4590501577326223 0.03224343341473802
Ni 2.773573962499224 1.4105845914690538 0.3998314854259901 -0.2589741088102056 0.6074604028496313 -0.41119292904002736
Ni 0.8270876152457711 0.1384988377210999 4.451732086540819 -0.7179041960251958 -0.23099973508446667 0.21963108823620883
Ni 8.732303951368895 2.403974389881062 1.0612812260323488 -0.5380125924704541 0.10664833068887439 2.4453607900800463
Ni 7.127361665194612 0.5909200591223435 4.789054399145435 -0.5174602222403992 0.24553340992426748 -0.2798265267791826
Ni 0.7216812841929063 7.22423321336475 2.3798306161707714 0.7796726354822443 0.6167932502147829 0.019651969902972605
Ni 7.523533578885755 3.9400816591805765 4.057831475336628 0.5055986949161229 0.3266830821214051 -0.8595920348167067
Ni 7.573216626123229 3.8972495760700814 12.679253747277826 -0.01757297588675683 0.027395618404133463 -0.09390491498027699
Ni 7.820077289975719 8.634709346298813 7.086724059775451 0.3778362079564525 1.0154911321115931 0.456626121672162
Ni 6.764359986788448 0.7308821832447072 0.3794801451559117 0.31125826292590264 0.6153747726007015 0.025149245572117975
Ni 1.86356166286213 6.4661442066173604 9.051065393351921 0.3078587503260504 0.16703197398325426 1.327243818175411
Ni 0.3050477640544431 4.900165649138866 1.5100546253733695 -0.8830232692564535 -0.2007530203847833 -0.8512665456701468
Ni 6.573237971710472 1.7964439061247306 6.936899439537836 -1.344927351498103 0.9873673772921835 -0.2455321243726868
Ni 3.3298577884719505 4.477638311444726 0.3292240753252309 -0.19958599665987564 0.2659983626468386 -0.6375847330388374
Ni 5.913674505791845 5.681500935219488 4.896613632117886 0.4130389811098306 0.1947916605950258 0.411124280585621
Ni 5.046268333984012 2.8002547621071967 9.552696963542301 1.104627422058633 -0.4651621841676311 -0.4681883725884647
P 0.13499110793524147 5.479117308924869 12.31699591365748 1.3031235280884397 0.07307743671196447 0.21619609441273088
P 4.076658069368947 6.353699820464656 12.637756607968853 -1.1967320506053776 -1.1182401277460612 0.1411828741306343
P 2.3961924899954035 8.499642317389076 1.3281642392654422 -0.6752737629491791 0.253788193733892 0.3660533563889115
P 6.498401582566159 7.731557048999947 5.659981858055999 -0.7488217115396587 -0.4969435903442861 -0.2865337635960291
P 4.7423313660921105 1.2959258435602672 12.739958893133839 0.342970506427519 -0.6494290339719331 -0.8609488059549173
P 4.005491193991856 6.271325563138416 8.383907118520497 -0.8109984421787193 -0.39387500658687 -1.3216586107781496
P 4.769915986825015 0.896161240897522 3.78015593405073 0.3610844424194104 2.544089608811528 -0.11468611339168634
P 0.2514376140291422 5.52186804813412 3.590368862774278 -0.589394546486856 -0.20531364317227221 0.6439217310004588
Ni 1.560356790081422 1.3433764526191612 2.4100706633687237 -1.3569506012112242 -0.6815313138231165 0.7307602260522577
Ni 1.9057701093964223 6.33955501985948 4.637377849422837 0.18436429461411474 1.341478216607238 0.8201055466863102
Ni 5.846845971814424 5.56411264751341 9.217027739775185 1.0531194839873284 -0.21497070664606205 0.4882373208195398
Ni 8.734436969223733 2.2553771587311044 10.022858385983696 -0.37309097996198326 -0.032106650726557606 1.503124757908863
Ni 2.394936178631749 5.287281275158197 6.997273786862123 -0.7566514919967227 -0.37397132568440755 0.8446199868879067
Ni 0.4971115607445974 0.006824753314356358 9.226049682244248 0.710552383645815 0.037253227924503585 -1.0720294335179537
Ni 1.336760481984664 0.7325660020004543 11.470012483988596 0.2730043616510266 1.147801643453262 0.21256363986646618
Ni 3.924138254536788 6.821743590010337 1.6893112767232472 0.34525287470379246 0.9531907314104745 -0.07600746587456586
Ni 5.549985923330733 7.9455186239049365 7.728787741073157 0.3341742482921277 0.5318149483001745 1.8530585830280926
Ni 5.357182800960385 3.0852837920655363 4.68075403285054 -0.5053564969983297 -1.179329281747898 1.0806380011225711
Ni 0.765400919648084 7.517017028575 6.984045460877629 0.7462824900575729 -0.6052659663014738 -0.19317675069942214
Ni 4.872788907264696 4.549229982750536 7.148155877815907 0.49102388242574146 0.9492340607555717 0.025689177235988018
Ni 8.163673928829608 7.040865983538685 9.162646630330318 0.14745173785848154 0.43425443884518117 0.17568605011382646
Ni 4.8003837969464485 0.2934282396723262 10.376134949085598 -0.8947032766975429 -0.12543383882649367 0.2919387366616843
Ni 8.541416929783402 7.236959014803783 4.891864955927497 -0.8520815853722745 -0.07018623120709848 -0.1778941135087388
Ni 7.187312120411305 6.22166059232344 7.128683955500387 0.4281588674704046 -1.5432769046477164 -0.7861055355917816
Ni 2.6908472149342613 5.022732831890802 2.5571033801514247 -1.7022063041284943 0.13143916448030912 0.923791452312751
Ni 2.3208138081761316 5.308521071594083 11.396567979376677 -0.20402809159162927 -0.6693825942757247 -0.033518443472419696
Ni 1.1056805349734746 3.459935724772065 3.920773328488669 -0.26777756603444847 -0.14998890245803845 -1.2734527404968843
Ni 3.5260592782720397 2.620900498075827 2.6816219127120875 1.297103547146605 0.5380904968962411 -0.38848160348544064
Ni 0.9697819906288022 3.3541163474651063 8.362451308835752 1.4384044349123422 -0.11099118103860241 -2.7763805519035927
Ni 3.7306572663227415 2.6372054311695874 6.918498545255359 -0.785036470897319 -0.6892657063528969 0.10433459495403322
Ni 4.076649031157698 7.0291163089145785 6.196562383505222 -0.14973230636254212 -0.9289537132399808 -1.47318683269885
Ni 0.8209895341158595 7.253101260095057 11.113283324189455 -0.029279722800723763 0.0028235854917241696 0.3571493690310623
P 0.21986804595641632 5.58515360330181 7.949859676767981 0.046105021888178666 -0.5346544746314986 -0.3119969408641401
P 8.499714623079072 1.6086389145752529 7.864920375089186 0.7456561693274835 -0.3959221189238859 0.37610174176384903
P 1.7459926109310646 3.12905584914596 10.328909391486814 0.24714497738576147 0.13311038153514493 0.47495243078517557
P 3.9882553251394155 6.223323623193314 4.060861083747398 0.12583081715459618 0.2619347341004263 -1.7896955453904146
P 6.901749835989257 3.7974948385114122 10.514847088592184 -0.27965811952211833 0.9931346187932639 -1.1621751385661145
P 6.387177354932112 7.7817191214336345 10.164745649102162 -0.44746271000533905 -0.15543167074016456 -0.24311580162171034
P 2.436168498351115 8.46075993259453 5.800876725579292 -0.7303573341868841 0.46883783324700545 -0.3552256696457882
P 6.932922626588137 4.160803816100053 1.623963201748463 0.8055734145084062 -0.795243750447624 0.9905162073338103
Ni 5.134806651382284 3.1069664608526386 0.7227288128767018 0.37746416932901444 -1.2614611153526467 -0.42289016287229747
Ni 1.4564083225030715 1.1634075902228378 6.885375308668876 -0.3277308066596291 0.11920662696985922 0.30006085154818646
Ni 6.899427015698183 0.8493695174387028 9.221856856045694 -0.5789792646908029 -0.9332839651842184 -0.5866102988734995
Ni 2.8673273277883498 1.5113425704763968 9.17654920687401 -0.5155514352534605 0.00827895217934058 -0.01719270972920265
Ni 6.457702517310502 2.156372592706128 2.674981538907217 0.5143743842262238 -0.5550271247505797 -0.3766712411140739
Ni 4.224143600535239 6.800738787066933 10.55192635024249 -0.15159249949973247 0.8100260509631211 -0.5859952909973198
Ni 7.845384281473796 6.85459748790159 0.2608590454354262 1.1320091565056958 -0.01613701477117866 0.6781564838136127
Ni 7.65952250534292 3.8232175877269574 8.224797543866464 -0.6043923054472687 0.20367893578232663 0.6007912183595717
Ni 3.336744905443927 8.367594051036612 12.393971647404504 0.1540101078022896 0.6286486068914722 -0.16317274813816415
Ni 0.10773095898618806 4.735588860500123 10.089463676143259 -0.3266506862215729 0.6446652940347026 1.0357349699622938
Ni 8.526485804799536 2.541400391926868 5.7080398349108465 0.6410025004711347 -0.7569669663546125 0.5511982379227927
Ni 3.356809734417402 2.7426542418153246 11.640763274731745 0.6326816393102652 -0.5205437462617293 -0.28298641256440293
Ni 1.0769028703556616 3.1711377607227615 12.505526673570277 -0.18292576239537528 0.7013115817738373 -0.675022051949689
Ni 2.9392172600653867 8.291591732641137 7.930029841286989 1.0017236460138554 0.81744574046596 0.672258373161623
Ni 5.4632914010273215 7.909329626062687 3.5631584239870957 0.8328762160884172 -0.665220749588551 0.525153734229915
Ni 3.039261220384034 8.484819650940203 3.617949868222682 0.09789680974848947 -0.8850400425761662 -0.7352583710329273
Ni 3.3613559546758065 4.2979134807521335 9.292892677359669 -0.5568256114118991 0.4388006634549669 -0.24953173245038315
Ni 7.292254791227081 6.024998153749635 11.274893771896174 -0.3117544858360308 -0.815040730568893 -0.15181078615812565
Ni 0.2637503692140815 8.888674044193262 0.44323297584519183 0.3791402714798567 0.01540579303210895 -0.07309003511745477
Ni 4.714267720162993 0.2903787471968079 1.614372755791817 -0.9457198769547261 0.2843688947342264 -0.12028777584917992
Ni 5.669823566285376 5.4777796536599705 0.54714619439967 0.664514467550146 1.1752995917632145 -0.6474246019473947
Ni 8.061840402683597 -0.27008796294209986 11.189174472586561 -0.6205208355780152 0.0948215132572754 0.7840807918522691
Ni 9.221596555561712 4.8925916281119415 5.760940485353077 -0.4537053484809412 0.3450356164866638 0.9251572223120259
Ni 7.968611253646932 8.720825423082267 2.6341450928405705 0.07863898996014199 0.7467334615520623 0.03485053202028191
P 8.588135443731101 1.7246895470164336 3.4705990064040044 -0.3254762062974975 0.29418948036907394 0.061240591978036454
P 1.8250769593625547 3.3453131297082757 1.3992931541552869 0.17891149902965964 -1.3248519209044667 0.2674687765447781
P 4.796307563673008 1.013879423314201 8.10739569884351 0.14281192509362503 0.5672601764816618 0.7545362454259328
P 8.44945313032164 1.559407777900244 12.384222128929872 0.14278441428979924 -0.4486029942573693 -0.7973152882646721
P 6.3761416989967 7.92639376890139 1.4527225399556014 -0.12721072822125834 -1.2006069601797515 0.33100870607995253
P 1.7316489696784048 3.206892924425045 5.983824582403389 0.45570978050547967 -0.19693338952837697 0.8581465606194317
P 6.78301485480703 4.031313363531144 6.299651317193763 -0.12180112716991282 0.01447299680519443 -2.110703945724546
P 2.5382641326233566 8.525618136519602 10.159414912107318 -0.21074072772511449 -0.320056577943823 0.24692411962420702
