# total energy = -381172.13104111253 ev
CRYSTAL
PRIMVEC
9.23075250902085 0.00000000000000 0.00000000000000

0.00000000000000 9.23075250902085 0.00000000000000

0.00000000000000 0.00000000000000 13.51013935571203

PRIMCOORD
 96 1
Ni 6.9141289141289155 0.6170527194929358 3.2042941493605825 -0.593839469632087 -0.3496561459778107 0.46205911976227515
Ni 5.6285066461293916 7.908317868095289 0.3662817927538261 -0.8372023542675969 -0.5582767420361289 0.4580433137346627
Ni 4.731859052526262 7.24659292247593 11.676367295801715 -0.7399668322521902 -2.9206299807746925 -0.3346684143197268
Ni 2.910788531418892 7.61588763280547 7.031136085103874 -1.7656151074024429 -0.7357481661851523 0.31035657704723973
Ni 2.9451453917644956 4.209167699202839 9.95031167813212 -1.8780880151928945 0.4431921076544432 -1.4617346249978505
Ni 7.521115498155199 1.9321257029499137 9.177721704169175 -0.43331907151510535 0.8745658825177197 0.3991213425874739
Ni 7.201316082068841 3.1020220284043463 7.009425355514176 -1.1413139788463893 -0.9776750897050839 -0.4038323749098981
Ni 7.7993949900517325 3.3406646695958777 11.332912230599915 -0.2594441064680887 0.19813152360153619 0.35544858428987175
Ni 5.877109269135246 3.7031286231667533 9.470891322724357 -0.13396193090216285 -0.3199822730624618 -0.4390156076792504
Ni 6.57124338634875 6.848950571597937 4.294360159036702 -1.156191410178854 -0.7546329189047971 0.8148738659737257
Ni 2.620767522499358 3.06600363263096 7.801578062988792 -0.9748761868037082 -0.11877982384508577 0.3246603952644215
Ni 3.893715967485847 0.8326969411382362 1.532698124562291 -0.4354862543697532 -0.6806717940362987 -0.6444899447991029
Ni 2.1414422438410736 5.001073945589001 12.01718790427524 -1.3156843954725859 0.747396549057358 -1.1440997691216424
Ni 2.0901100298749533 0.8704248722517637 11.7109124634958 -0.030296336990696206 0.37013523976776896 0.5684313139716275
Ni -0.12222346914295992 1.0991333777356271 7.562111115610033 0.15304980077154934 0.24188372898682214 -1.8747646072466164
Ni 5.519565306581082 0.12329054411769172 9.816237769088117 -1.171347291983686 0.7914683425655917 -1.4680119733661297
Ni 7.557816969604451 7.4717217421881585 2.3345246605275554 -1.0751564091827097 1.8541561869676457 -1.736686854403867
Ni 6.654467849775929 0.7516444737452652 0.36313133696770183 0.1964788184894616 0.9372702035254762 0.10002876848982772
Ni 7.77642887813882 2.969957654152722 3.185528952854248 1.0511577322752672 -0.8567874754883761 -0.659705990417909
Ni 6.42344057929507 3.8050730524136207 13.5517506408176 -0.7157976912051542 -1.2322829511267939 0.06645993139544683
Ni 0.07759370447746915 8.063348354259825 11.07531516247833 0.39038062028036635 0.29425247239652547 0.1442237178394871
Ni 7.869161016513868 8.789300874915376 9.075314814228241 -0.3137257506297887 1.6837254717154875 0.7717955467270128
Ni 6.128979578482404 4.188269275822279 3.9253977557927198 -1.0352158642340301 1.8823694161770679 1.2827755605597069
Ni 1.4379296822129708 2.727687327277198 5.831286891262701 0.36896024562306134 -1.36032928787547 -1.2470940479976973
P 4.327875174765562 2.755361122902163 0.5930573786900354 0.5756136906526796 0.457629880346328 0.03058712875823764
Ni 8.788147030868304 5.798287874591692 11.513651285208445 -0.79545586645843 0.16157686440595398 2.1808372122065216
P 3.265027884622242 8.330994019418547 13.227642309521858 -0.1881453589231018 1.666181806404769 -0.7245438128289006
Ni 2.2559497270724567 0.675079998157784 7.069423399811422 1.0835842282350885 0.7042786348219613 0.9857249565927539
P 3.2568402072642217 -0.01595166318195508 9.140987002011366 -0.7983861527313476 0.20202263112582627 0.49110898594038
P 6.187825624883055 8.562593596546753 5.452732813224221 -0.561638202309194 1.6841910984979964 0.08722724584978526
P 7.0706824744355865 0.7670727532674687 11.021423260878185 1.6398796781751306 0.9503581470576857 1.796451118946693
Ni 3.932558973486465 8.710719479933614 5.134271856232467 0.6926847593367749 0.6073436747661088 0.04761451655416961
Ni 2.081830044993168 5.07925841821857 0.8319169425624158 -0.8282950244756381 0.2972228678787591 1.1589268068321459
Ni 9.390075162592227 4.550659383374142 9.801213796520006 -0.43724077516701476 0.1773976334882945 -2.3571639812281404
Ni 4.750874402422001 0.13322652597583445 11.946543110186854 -0.7332315704108856 1.7327582087734223 1.8201374068200393
Ni 1.5829078790394198 -0.007394755728872297 4.906017503765532 -0.7276245086367533 1.63532779713839 1.0158289750669862
Ni 6.861495164077699 7.7469550858004235 11.038405076025366 1.1575011301292129 -0.08238457304550328 0.8793039114233372
Ni 6.794719901385572 0.7708684386447153 7.220561277698758 -0.43572973783912705 0.03213930373670593 -1.3365722946651883
Ni 8.37580009145443 1.7578952518421063 4.987659816235365 0.2402829601586055 -0.31212086803651407 1.2015423275098276
Ni 4.844575769796589 8.280871034013758 2.940089708687847 1.3809459356845573 1.6473538750649888 -1.0141983814420985
Ni 7.423971060144149 4.972357074945483 1.9288829396400238 -0.46460091234752243 0.36874273029561655 -0.46073397319294845
Ni 0.3643737962375885 0.9270813841886908 9.915766510438036 0.5443958702889785 0.24559691617235124 1.8720094130989824
Ni 2.9263700414305465 5.107781443062179 6.009161643408779 -0.4141869786713448 0.01822989274446538 -0.37694969158644115
Ni 4.720929841712399 -0.21335591813114807 7.641780816296993 -0.021766702253130255 0.031173083168694698 -1.1929972661532937
Ni 8.143858976488291 4.406438108242571 5.118681115468437 -0.6288000448676719 -2.0696606546299905 -0.07344381891244771
Ni 3.8506083538872535 2.1693652697802057 9.99331498422886 -1.0621214303756223 -1.887430375639743 -1.0279434989423328
Ni 2.4317217138271516 8.506682929401853 2.896492865213294 -0.7131617962442041 1.4113883113348145 0.7528056358880713
Ni 4.902729509768997 2.2351251497109086 7.929640906085171 0.35083911054231837 0.02233105939703251 -1.3163590529421072
Ni 0.10075643141600271 4.00267576853891 7.2515535288031 0.29523026292876253 -0.9600671468153336 0.923015493378675
Ni 3.0856374429359303 7.062854796420253 1.3470206174322956 2.421281637643656 -1.0917580222951326 -0.3053838064229967
Ni 1.0013981715724767 3.0181791045679374 11.1091172546061 0.8433997413275603 -1.7586641300059065 1.2161716473872282
Ni 4.594810071991288 4.789800485194007 11.182368813165631 2.436773305521352 0.5846387769694255 -0.3192217407473535
Ni 8.571852041180456 8.376353936597026 4.525018199422498 -0.43623521672063575 0.36817528782792075 0.2785702857745783
Ni 6.08829965275885 7.27376825747256 8.85060045529772 -1.458476780182185 -2.0826233854382457 0.33779359021226985
Ni 2.6852074048402113 3.1800957320053973 2.267271244862323 0.6939093757724953 -1.3429931105898678 -0.3162839982752682
Ni 3.2964124427025885 2.8309886771234223 12.232566280252096 -0.62975983767778 0.4406258895891637 0.2482261262650822
P 8.776119360521632 9.405675134108634 2.3286206713074993 0.7832022459020577 -0.07579046476775335 -0.8668613147846104
Ni 7.0678301719512255 5.36605789455868 7.247946150774336 -0.8122641962650206 0.13564137548711477 0.41331820291314625
P 1.4587727210792718 6.332776129452374 10.264423104604033 -0.5378868655258672 -0.11637481394801893 0.1606414970758782
Ni 5.397820913486466 2.2807896817178133 11.5467103017699 2.5839617624161177 0.9331466682754058 0.8006286689086212
P 3.2313171769429982 1.5113603173686057 4.337875771890341 -0.7197502480949992 0.01571046875672133 -0.33207674233315065
P 5.527771445443856 6.4483728414641925 2.0167800099202235 0.3856233081010391 -0.12478206417510769 0.2169949361649424
P 5.129372172870983 3.9770142769320382 6.0048111898137 1.095576110489642 -0.1435148646979206 0.25374062832540817
Ni 0.978025906554995 1.6708400261786502 3.1206801481831126 -0.06513658459833298 -0.05953080837578135 0.27042657362152134
Ni 7.432998735968438 7.735933567462795 7.0522117389300645 0.45862155483563594 -0.6219444553984192 -1.769289985150869
Ni 5.491069973994604 2.3893156374091773 2.49798374668714 0.11205973151243281 -0.5729471995641101 -0.41577746308691615
Ni 2.5702753069995063 7.966720838381864 11.100348962923594 0.17938098246691042 -0.1585506759851205 -1.0687196524184304
Ni 1.3389390937266064 0.7045122521104856 0.5848420090748857 0.23966795228242596 -1.524131699177833 0.9352729705897892
Ni 1.3526282995010634 2.9816068636519573 0.16786492426892308 0.37968997333573967 0.13716501122049282 -1.3469230417718931
Ni -0.323120640791448 1.045927321037063 12.423410239487257 -0.9264294041562303 -0.06091740431066282 -1.2005339408499711
Ni 6.545563433237125 6.005527496198122 12.694654051922369 0.14237586599747093 -0.5690455505168587 -0.29791063797440304
Ni 8.10783134996253 7.89805327145254 13.360919604635763 0.21899088354904866 0.17999264790898034 -0.10961744061952734
Ni 8.474153758026812 6.6664862893702255 9.016423537140945 0.3692826619594866 -2.058136713150791 0.06424415469105065
Ni 1.2582530872029853 4.479924127912466 4.3449825281450645 0.2336042625868493 0.5570449265115568 -0.4325168873287842
Ni 8.617811957263411 6.077038134859431 3.7367285618174773 2.3650117594073334 -0.8539255805595487 0.21064533979783076
Ni 0.9345859858708444 8.389304682181356 8.475031602577824 1.3928334311507626 -1.1659839707892434 1.2550837510713932
Ni 1.3376560191462628 7.180833042545227 13.133098174455288 -0.03524391080395866 0.5331133553966237 -0.7746903517763045
Ni 4.119610939645332 6.446406691207983 3.9716567482526757 -1.310348327971653 -1.9219474355800061 0.5214058371517084
Ni -0.022913496624366123 5.934469164403267 6.277540230306201 -0.07942626174812772 2.070067917370738 0.3716503908607148
Ni 3.8087099688499904 3.6680333026310237 4.266340210197616 -0.5916943982646261 -0.19315875297729315 0.5108977385315331
Ni 5.58655287657787 2.005177877258109 5.0003724084083805 0.1054892773837667 -1.0810149248460157 0.5770313969358126
Ni 8.592667387789627 2.2344420740350426 1.0140673792093227 -1.2278760803083497 -1.1258441653455642 0.7944775617055607
Ni 0.544655928603477 4.009128064450135 2.1826575532024703 -1.544488408457314 0.4944506487191033 0.23913624814867207
Ni 4.236786110313544 4.7560067007433755 7.755819377307646 1.305791047618274 -0.1874987264780384 1.616460527920242
Ni 1.629403178760216 6.875599753709102 5.076178116150508 0.884172038148916 0.514288766490953 -0.7813852472979769
Ni 3.588307294354567 6.513274261423874 9.226587461100275 1.2816473604925347 1.3503528933890485 1.075475225974709
Ni 0.1747621424446981 6.416452899746004 1.4636345583560124 0.7523901456172074 -0.3335826374547158 -0.007052793081723337
Ni 1.74738142488519 5.745829508835629 8.192521656867108 -1.227626683301705 -0.5537078917185237 -0.8938620117431701
P 6.789227603721511 5.42830085783391 10.119189215936753 0.8507142727111027 1.4690332155417927 0.8992785547730512
Ni 4.67479454133429 4.497425634418447 2.0399095061502015 -0.10686173225126112 1.0842018072144297 -0.23650858071783784
P 1.9126765076924754 6.363772995932905 3.027149549727491 -0.9716229699737332 -1.201111410619996 -0.2910326799076472
Ni 3.996860394541669 5.003584710235428 13.268820695873748 2.2749473012190693 0.2893869167741081 1.4132207365578628
P 0.647800355659299 2.679899722223682 8.839724782847641 0.9482539562304894 0.5692388974745874 -0.08971247416548421
P 8.670722629885924 4.080961779444622 13.372200507115174 -0.49872896437948294 0.7494768286251544 -0.4585066265243265
P 0.31201143030624284 8.101729822641614 6.5330576099173445 0.7023657340699646 0.6665605514458972 -1.182854778402653
Ni 4.948098657699851 6.784482996999953 6.697394540627942 1.4347676094907031 -0.35750726659111337 -1.1904593302227886
