# total energy = -340872.3013158034 ev
CRYSTAL
PRIMVEC
9.21911578903647 0.00000000000000 0.00000000000000

0.00000000000000 9.21911578903647 0.00000000000000

0.00000000000000 0.00000000000000 13.49310783975926

PRIMCOORD
 96 1
Ni 7.621802552376347 2.860258324915625 13.338895222610708 -1.4602073897200465 -0.8999436991608758 1.529236110283934
Ni 6.727428474204534 6.522469092411209 1.109403500120447 -0.49756425464742043 -0.7404412007854474 -0.4103861168680158
Ni 8.908016708110306 1.8208767748012427 3.6431391827026807 0.5000834215248484 -3.2739540625223937 1.2096916960898392
Ni 2.0506540162467632 3.6124920761492643 3.6064517114969172 0.10891964322155435 -0.26706562756908847 1.3355667362188095
Ni 0.9866389887955801 7.9432454619206 12.05096446752042 0.5454813900436736 0.7767757735504235 -1.1113302880001052
Ni 4.9139269920191 2.9742434722929483 3.694561566643253 0.3997075541082471 0.7587988773570287 -0.3584099809110408
Ni 9.017263229981973 5.511113654236901 6.183013874475998 -0.8677758561790797 0.8039947571673767 -1.5532227030065184
Ni 2.0392315318080296 5.566953838454342 5.285466576656234 0.542895374484052 -0.18411052673209585 0.525145763810115
Ni 4.962391883620732 3.1492499469503197 12.472637603713512 1.818914590156532 -0.06702197454650392 0.1716116229341367
Ni 7.748602270673639 7.258394227848143 7.390418419052157 -0.6452152530009017 0.012037905001140558 0.7691131147988431
Ni 8.935812342156137 3.0127332806317004 11.565860127185061 0.5374857734327066 0.8501542864425746 1.0725307986344044
Ni 9.09412299815447 3.3959258276018116 2.0312523871093013 -1.635517544551693 1.190604083330769 -0.6787156987511923
Ni 3.1549381413802617 1.3869145572870583 3.821261718490231 -0.08134661869929216 -0.7158403715176317 -0.7258951846504724
Ni 8.486546392464149 1.0107561956492745 1.5567131534460914 0.7900521789443555 0.7817490583952987 -0.6862055793703342
Ni 6.832922815957907 6.4244791108944215 10.649192383258812 1.5211304504576642 -1.313797462862518 0.8210265158386828
Ni 1.7693880132271285 4.518214885833654 1.5228863738636846 -0.21580528673221544 0.9325144340080457 -2.0919778300699523
Ni 5.427016880185143 7.909475840855966 12.895673325217375 1.9177647649572265 -1.994617352440907 0.4068333665197509
Ni 2.3095452252931885 6.392663942372977 2.7637664497114227 -0.3745835053471097 0.33055619192356617 0.37986377990944253
Ni 8.371123063026742 3.6237393973883725 7.0968624127998545 -2.6059169265309703 -2.323922188455875 -0.600915916862894
Ni 1.2752987226625634 0.5257809229346951 4.965557727976068 0.413371681858901 -0.1297862022579184 0.6024899462182333
Ni 5.945453855497645 3.877781351539904 1.3928802471016706 1.3967926729088267 -0.2577255811150852 0.7711859381674718
Ni 6.975717700115735 1.5613863232297829 4.898807642156693 0.8747432886358484 -0.22423104890206544 -0.02588535240719413
Ni 0.9536161161082966 2.029145819155911 7.178468181770623 -0.636590487446368 -1.194342981547911 -0.9469635195538401
Ni 4.897092886623517 7.455480484774091 10.07905460670949 -0.49284190947108675 -0.8001794971863445 -0.05146680042072427
P 1.2605296991994062 3.5472576129624365 10.32848792488772 1.7848374459671645 -0.1980775304351492 -2.004075412530013
P 1.6447271297884216 8.841288748168777 7.291890963085992 -0.1847702718032818 1.3951605366220423 -0.8176246892459855
P 7.336157469366076 5.111962817869333 2.921244619555747 -0.3310292749052428 0.7427690775876756 -0.44138333658047857
P 3.5781600890226755 1.63436484366321 13.161069542350944 -0.6761651644151968 -0.9464292443169249 -0.9095763371546335
P 4.9602069531833 1.480571554392059 5.329588342818732 -2.2215902257541673 -0.5358461809467546 -0.5014921289469169
P 3.7783531879630328 4.694318435267626 2.5762394939271394 1.0305518830994573 0.3705355605299812 1.619617071271353
P 5.598556967313082 7.91662065557753 7.99133329168725 0.38719708034606215 -1.5481296047543274 0.5324348412723604
P 7.614288973023992 1.575731267367531 7.772610691961249 1.5442986610440113 -1.4499746562484448 -1.871874687293331
Ni 1.1209799437925358 2.3981409278405907 13.465406382584405 1.4557861207238993 1.1673471696853572 1.6570091387665655
Ni 8.256096155567436 8.395756540363543 0.31733210582251653 -0.6701536681137943 0.48322752630977417 -0.2889485436851088
Ni 3.564359072715343 8.313890792328067 8.223387654727901 -0.9743352266985736 -0.6884995176108336 -1.6478742663448327
Ni 5.156067067711869 8.733646352441049 3.6996615814870846 -0.014058020754962887 0.03594762173920261 0.5227800917914157
Ni 2.1336537155219206 5.558877893040032 12.867850955735815 -0.06585777903507369 0.47682907898259813 2.0209364499514098
Ni 1.083375170567681 6.778327212369383 7.666311521401176 0.11343475748308851 0.9027716555279743 0.23949543126030362
Ni 8.445521327288713 6.563457281123567 12.619941557394327 -1.321160073875176 -2.5902139139734164 -0.14456413189804135
Ni 3.3692272683325837 2.8954384706930325 6.069497058179778 -1.7013329003846056 -0.15128191023784915 -1.351449725997653
Ni 4.381735095978113 5.093874912729063 4.888822417866464 -0.3199784164077199 -1.346358684627991 0.26111840884671805
Ni 6.998129370552023 1.9405869930715878 10.906910920779325 -2.0199658585080247 -0.4941606282825103 0.7355748738320815
Ni 6.6686289538249985 0.14922890505354253 9.204930316325957 -0.34348241306693106 -0.21700084970221337 -0.6870208761827781
Ni 2.3927108686522014 1.492058572641181 8.818542423830046 -0.6152624153925533 -0.13652017854764228 1.0299762131016454
Ni 3.1300926243807563 5.936280835306733 9.063725729638415 -0.06457582699885653 -0.5419787762070537 -0.9217309702392964
Ni 0.17044116852818533 6.5301670540789605 1.4409155279084327 0.7619793319675393 -2.2680338619286875 -1.0179840737367758
Ni 5.675684089842903 4.97677370422156 8.852773922594746 0.07723233942060248 1.49740019672026 -0.19587563768782396
Ni 5.730537828672979 3.318632760988136 6.15676981761422 1.112574701930168 1.3726893521027197 0.7029475747153635
Ni 4.285017352437552 5.244837933458897 0.5730454856631052 -1.928111141188557 1.691626728840435 -0.5956040177316775
Ni 3.565207231366161 2.9999002714801932 1.335797326078465 -0.5437790626405861 -1.3942583365227472 0.059004760668982255
Ni 8.23895781935145 8.78991983509967 11.142055531426 -1.183564145764852 -0.028448742258996164 -0.06880143504442988
Ni 1.6641610258310775 1.128788534849523 11.382583183770638 0.39467436255971383 0.1290089577722617 -0.12699655532792323
Ni 6.180946948720417 2.7663800690321496 8.563725142042278 -0.29355184678507507 0.17540759964145922 1.0440961974427954
Ni 3.619305002703118 8.945639919566702 5.686251962249779 -0.9771508417704978 0.6063681982267171 0.36521209143453875
Ni 1.3468114036885983 4.3799189301714705 7.516200346968467 1.9384652307293713 -0.5093653610474066 1.1785188700314604
Ni 8.610589595146282 0.13675267568232513 6.399309081019821 0.16399858647356919 -0.11303135139708276 0.3802389038606742
P 1.3828120507695145 1.8424034101236344 2.4482431344029334 1.7349145929947927 -0.9739711584909354 -1.3759204574455077
P 4.657626354503978 2.6811216863934013 10.211961989204248 -0.28178930693250825 -0.3206438179058607 0.8156799068147889
P 5.854525716660494 5.366078524947023 12.707390401939971 1.6586813842626662 0.6203316023853445 -0.37949662637801096
P 2.756165288759255 6.543636182218581 11.122678793901116 0.7248927115278871 1.7087392201510057 -0.660137935749005
P 8.840929202653758 7.265704986653563 9.497542285123437 -0.23634223034330268 0.01831165382499427 0.6100453899679881
P 1.6951464739332438 7.541513273137499 0.403176824224222 1.9796162510463844 0.5839893163108845 2.7020121642943464
P 7.375937953912594 4.175134711577772 10.298843858130052 -0.5022192369209286 0.0032295626808912124 -0.35969167583694184
P 6.828774213861515 5.377971184290015 6.4431616490018415 -0.3298802489024641 -0.5938875492612029 0.3048701000113717
Ni 8.665341923702892 5.191477691383521 8.793957807806827 -0.4538691277523151 0.637225807037522 0.9530302945732103
Ni 2.833421478909851 3.62346282391528 11.81173210094143 -1.5194453494457574 -1.837264039197997 -0.10355169404142166
Ni 1.7172907900122094 8.05041768274407 9.709478693731315 0.16027871441982072 0.061165515765726916 0.6062201026846269
Ni 6.12806610066507 0.08963100924834629 6.504366436685707 1.018964435372174 -1.09458006512496 0.11430481879286766
Ni 5.981721856935885 0.9509610107666054 13.448971464901653 0.6212194043069366 0.6216184395175682 -0.47205582596367085
Ni 6.464361005714407 1.530815735337256 2.5762256652534847 -0.19427024087391703 0.048211526708220195 -0.5289281136706827
Ni 1.3316920538261905 8.822122206483444 2.4947544953729537 0.09777545367927677 -0.15959788630271224 -0.2282723088509746
Ni 8.117790980789483 7.681228972628225 2.7458205189540057 -1.3638650689428704 0.5899547898657 0.2297319241156366
Ni 3.9680457140416325 0.2981240781162197 10.068017481309933 -0.06162882855539063 2.3753997875098762 1.5394840132641876
Ni 4.381569151894258 5.0752707371056855 11.072781251708863 1.2041735944850873 0.8150751833512543 -0.32487868192281466
Ni 8.720287853690666 2.6110471874274483 9.341737384791323 0.8605276592570985 0.34022199714810436 -1.1044333037699559
Ni 5.303287127439181 6.2742628385419374 3.146120057146486 0.46469141517879964 0.2044816341892801 -0.6976739850212501
Ni 3.797003459165259 3.36166759340138 8.296979246360017 -0.21081066173110144 1.043876882343138 1.7454149783054844
Ni 0.7811550393149566 5.600161093457021 11.073604518747102 -1.0898492353081939 -0.521882519677811 -2.2454392644576235
Ni 3.875338285860917 7.761628881256311 1.508488880766049 -0.23707345208237232 -1.5081281246607252 -0.14361025262520427
Ni 7.142546819085328 6.970379832085042 4.911572429851503 -0.24648060432888522 -0.16525611302975413 -0.11125677599516323
Ni 3.3525867643681653 8.611207275902855 12.706688827229893 -1.463515113937041 0.8008803799081111 -0.9181895327449413
Ni 4.263905577324799 0.7047857281014113 1.5615301414357914 -0.4240497303980374 1.1081462338451689 0.443681645696352
Ni 0.543095344261883 7.376196089154147 4.974747342575366 -0.11006404123864272 1.573014283811149 0.00798173265389593
Ni 4.792907659309449 6.944114571256994 6.1616817624963485 0.9497732210884934 -0.44302267195611444 0.870407894485288
Ni 8.059443197082667 3.5728222209919833 4.357936870530052 -1.5753066793897514 2.6471581925689445 1.5178204122478247
Ni 9.133258144597105 0.17710751114129944 8.833465406526559 0.2786368773464556 0.11366204300254619 -0.5058923148971416
Ni 4.445393090368312 1.2987613722966047 7.6170749898096135 -0.10124747138827725 -0.661463596538964 -0.03850586938468207
Ni 0.18814648036401113 5.421052112282107 3.757519830146527 -0.370902971171729 0.1208223081964113 -1.2609906034741316
P 8.96955430587346 4.4972690548047565 0.052392234919551126 1.1880005842696508 0.9954036173330987 -0.15857330169293982
P 0.935325390421091 3.4776348506692023 5.522027243485144 -0.5219018029515206 0.10002696871761482 -0.16718186929755724
P 9.028455236526463 0.9532657897090456 12.745764971331601 -0.928699945357962 -0.7053806096368884 -0.7449576005985621
P 6.127439200792726 8.644792514652094 1.73515928019716 0.4280274840988628 -0.21349617898306458 -1.0764123930769978
P 3.420338046160138 4.96403288622775 6.995339666120093 0.5597376428523716 1.3484772736328905 -0.3570349549403851
P 5.8291639291778825 9.13154338906393 11.19694522480758 0.7189398363785618 0.7130756642883009 1.1632449745915256
P 3.3988759446481347 7.166286042192462 4.387499809068944 0.8689940448568969 1.0870611310400955 0.1281193560784568
P 8.180619254760403 8.981299459364136 4.317781167971705 0.5362331319725281 0.9793283090377909 1.1020318934173148
