# total energy = -340870.7115871654 ev
CRYSTAL
PRIMVEC
9.25252926266929 0.00000000000000 0.00000000000000
0.00000000000000 9.25252926266929 0.00000000000000
0.00000000000000 0.00000000000000 13.54201183590834
PRIMCOORD
 96 1
Ni 4.336706641059071 5.19236202504657 3.43694907722581 0.1999922309593588 0.12619282847970525 1.3892837661262913
Ni 5.175985048580191 8.706296770457982 0.8247371328236264 1.0512423215692734 -0.9802953009367505 0.04971947871231437
Ni 9.008900733922927 8.293541448330746 0.5078176563706687 -0.5844006928166903 1.0725086871472174 -0.14716403141473366
Ni 7.412589649846591 4.88472468576371 8.916656720036361 -1.8675467493419384 -0.8063614576273404 0.1181730434990223
Ni 3.6217174566299746 0.6968616294613388 4.692022262675974 0.9507782653142399 -1.0753962931076575 -0.09348813915783255
Ni 4.317313340113573 3.276699899875829 11.18154445218549 0.5364367633429019 1.0358049039682806 0.336094348132976
Ni 2.131856719585109 6.621017282246745 6.9734313107450845 0.12976871875642168 -0.04239312025423022 -0.48348129419179314
Ni 1.8132088707005583 3.822626873009055 10.338892572562877 0.748256325954492 0.2190245650004615 -1.167020639583874
Ni 6.2029047457839 3.9182702660785282 4.162678597407547 0.09169325204093887 -0.3469266628617896 -1.519652323250241
Ni 5.504357305524722 1.5188581631723428 9.526466854929176 -0.9584877181433556 0.8095678803797799 -0.16551193779430204
Ni 8.808296651003388 4.573081001390487 4.159280143477546 -0.772305910704528 -2.260228764061972 -2.4027974627965394
Ni 5.025353875205804 3.713807878533861 1.5736627434015298 -0.2799095734112922 0.11568498696984592 1.7445197201847245
Ni 1.5417581726380434 7.8769278215783824 8.943563999845331 0.33841785405983005 -0.3267242197719857 1.228963656945574
Ni 9.489486346714017 6.669093423331101 4.718334604865292 -0.5611597200108788 0.2152969796372292 1.7575151040031278
Ni 0.09954888559289672 1.264182300326521 4.794223848355261 -0.8129378252932774 0.9690045585142796 0.31691751809420904
Ni 6.497930887934739 1.9952061176461464 11.972993761148611 -0.022497923992199964 0.21884587333075214 -0.22781722359142698
Ni 0.6778532337254458 7.851834962721421 2.7794708377809374 0.39116172142076505 1.882575361540287 -0.017333091961808857
Ni 4.800887519796554 7.289308952423967 12.29240864469365 -0.8855254668530169 -0.6488700761446696 -0.284334184841549
Ni 0.7598010332550689 3.7129011306843096 1.0886692257581299 -0.03566685727399018 -0.027770742355365075 0.0022402021844284
Ni 4.248261715611543 3.545550637267693 5.4731661047530755 0.3324150995091759 -0.9988807772484217 -1.6257887472997032
Ni 7.041211637751928 6.137128516575145 4.249929946604135 -0.8591883716203847 1.076668989172494 0.6459202494877263
Ni 3.5901570799481544 0.26402276771945854 8.727312039750686 -1.864262165053396 0.018017262513027037 -0.7178532881826023
Ni 7.519502623331912 0.5685965946249073 9.981072291324818 1.2848280722133614 -0.16453748969617468 1.3103889514016014
Ni 3.295556554134859 0.09771595958273295 13.128709588357774 -0.4031710871768154 -0.8671181679904226 -1.621727689856452
P 5.726066407269012 5.473916484861225 10.466647793047164 -3.232463656588091 0.5527771523741384 -0.760497090995058
P 4.09369821737941 2.310726611702654 3.265384982067504 1.7467300975724822 -0.48457709835913315 1.6827466527419859
P 8.582451668761657 8.557867699003934 4.493510176580758 -0.9629791782558061 0.20986680976059338 -0.3586778898604468
P 5.9791415825845045 2.423959062547601 6.673110871456356 -1.0935958468348197 -0.18171451569609348 1.3229631885221862
P 7.851631407081727 2.524996680068995 3.3543563764195166 -0.5633256173139459 0.6333285288656448 1.6604659869669143
P 7.1952292367685144 0.4214508489538462 0.8084323260840476 -1.4755072533019102 -1.3864617232964638 -1.2184499018984436
P 2.480436500033919 5.866852889705416 9.529973563449376 -0.5561303851170875 0.9695226358012786 -0.4097094025159654
P 7.636352813045987 6.1170320234197915 6.504065314712824 1.2004930603097066 -0.45784893833566953 -0.5053791227061489
Ni 5.45742847804592 5.148218208819961 13.00385225998042 0.01555208880198612 -1.759782559881066 -0.655317117321594
Ni 3.118972036699345 5.49699229237939 11.618883744070448 -0.030676860258566523 0.8325036632403467 0.030685087788682636
Ni 2.9559054642454026 7.104443421464493 3.9515044252703864 -2.2138473485839545 -1.3561610154303934 2.0358938425921904
Ni 3.6128812913613912 2.037804761516888 7.013353197953836 0.2254250692101666 -1.6849657718804913 0.44139747764786563
Ni 8.450038725139983 6.236232355519436 2.2142949031558157 -0.046917490487145004 -3.240650049053625 -0.7023230537574873
Ni 3.0891881456003185 8.194243306275839 10.785142049949036 -0.5425364484827366 -0.8356260109194125 -0.39044798318319207
Ni 8.736089914086085 1.1484146565144617 2.0367046358096266 1.3541792091136742 -0.6156125996431204 1.584571392521129
Ni 8.650707575763061 1.536761806936436 13.30276446434362 1.0485604038617362 0.5686634845870916 -1.5203645188259172
Ni 8.783962499530745 6.52606782885805 8.242277810979347 1.173514989058966 1.782186638607879 -0.6645764311363329
Ni 7.699658616991168 3.0863846292899724 5.670677067202155 1.4389078569113218 -0.6016237415631962 0.6480838327979483
Ni 7.330769535218231 4.6103501885128475 11.343167630103412 0.9396726423193817 -1.386682066837386 -0.8456875089204725
Ni 0.894607606148975 1.2398388963248004 9.297796150307311 0.46833646813055474 0.45074240919787534 -0.10064789013106537
Ni 6.704206771178509 8.513649862544707 12.161200380357808 1.4194348357883748 1.5046339954645378 0.8880047816314449
Ni 5.259618658907652 8.051597065494947 9.281789275004014 1.3115132948140316 0.02143400150405986 -0.02352327993292078
Ni 7.01435154584125 6.7809657524017215 0.4654308954157916 -1.4770116057615787 0.2959085199427097 0.18764785046139298
Ni 8.293014054173355 1.9791159695811553 7.9232959457951155 -1.101337952674084 -1.1997512970476758 -0.4641918498345619
Ni 1.2599909046546167 7.552090030741286 12.276009462157484 -0.17650417513974764 -0.032109736050351154 -0.928978395830329
Ni 1.9328903343122097 5.045311580425003 4.806154984600118 2.0260963968857943 -1.1029294655309199 0.6773702404668915
Ni 0.20695501887802492 3.9880158302613364 8.355299304161338 1.0382757341062763 -0.07474659688427128 2.8756097073102604
Ni 4.415695481789854 6.0482764798482265 8.230144044347703 -0.9377561420229591 0.3770412228589829 0.5281619249286195
Ni 2.962308214366722 8.236915970379195 2.092186501167254 0.8072970820677322 1.0845291086468611 -1.623800513225081
Ni 5.172219269245831 0.3097302613600892 6.705354084784063 -0.9633663863918958 -0.5797827344287048 0.7680803026589546
Ni 7.412330579032433 0.26919863248516074 6.2245445607893055 2.621227074525479 1.0710984370632521 2.207089461034831
Ni 2.5559001271863444 4.019354146245308 7.285859609584042 -1.4940263951520205 1.0509448449335126 0.45682641060842616
P 8.19166185066334 6.690281714917548 12.271513658278947 1.473544987369217 0.46711725101147294 -0.8406787428519715
P 2.7241203583362044 9.225335894093297 6.606876642058289 1.2053437035337884 -0.058928141794775936 2.2978391182155784
P 3.1017438275578764 7.307536434705757 13.686233681436173 -0.31169097958794706 -1.5773738463314255 -1.0426522659074173
P 4.863018252548949 2.8274711081268613 13.296521782975336 -0.30147598672815823 -0.6957160899639309 -1.9329036774811936
P 6.449123797053296 5.1897435593177645 2.243247917143723 0.5644052235313699 0.3317039323747642 -0.4424462306273541
P 2.8989098851307697 2.423024557110819 9.022838743724595 0.911166564459889 0.2906557561842027 0.029082004967620884
P 7.743802433217777 8.620535078442797 8.334404317746634 0.36016630148051515 -0.9635103681689277 -1.1661984007928947
P 1.579045864818558 0.705592315898444 0.9068283465539437 -0.8331148144617846 0.08792684301997115 -0.6532610061235137
Ni 8.208593978874344 4.706548733326944 13.329225772251078 1.4665551863149453 0.36406615075555365 0.8670122385401778
Ni 1.7689910342413326 0.894884256768379 2.9828451279061436 0.41203882198009034 0.22780153986214316 0.23258019219770915
Ni 2.113286893727468 2.4420847670095434 4.655026025161386 -0.4876395393345408 1.5062584184418382 2.129486111428055
Ni 0.11510331222432672 4.843486163667294 6.290318939492244 0.06847464783263045 2.0064254008194284 0.7409777900152078
Ni 7.238234991918647 6.997817276380561 10.296099625581519 0.7122248862522315 0.6419913467469653 -0.6456325430439783
Ni 2.865517507691694 1.4421176870072838 10.997020339548959 0.3084932985862558 -0.9609066119974936 -1.3783252102322585
Ni 7.271534844066952 8.005269652406154 2.622870857898946 -0.9154942453009653 2.3925966110041377 -0.5227530952082222
Ni 6.063626425587055 4.741514040709119 6.902037871133653 -0.42259705711191087 -0.6005914436439399 -1.156085737838925
Ni 1.5851432814803343 8.62925096083338 5.064428230751098 -0.8927129857403915 -0.133578322310499 -0.9688947724092927
Ni 5.871220083429784 0.93621715466138 2.4723645936670997 0.8144154382800683 0.5431288306510968 -0.048162418637839634
Ni 6.292682035418523 8.614372894077482 4.688325877309692 -2.0394154825922035 -2.054461835402365 -2.9885022191366337
Ni 5.948043832356536 1.5472634274388886 4.653441066930488 -0.14225862369331627 1.9749383859547407 0.5148271554929263
Ni 3.84789552991848 1.4837725729121665 1.3199694991436906 -0.6903666527265595 0.8624163916393793 -0.07150674979073492
Ni 1.1978231617859127 6.518323462020559 0.8846657636556841 0.8190804478559055 -1.9942491704682108 -0.06905006072012625
Ni 9.024620780824835 2.7147845564974604 11.123977066773897 -0.20683162247869538 -0.9426515224420474 0.2735252671515031
Ni 5.9099974327917035 7.193804347290649 6.375254380660847 -1.558318372361871 -0.05157427253286602 1.0967444197661305
Ni 7.391567903783532 3.1036683536059035 1.2934776578902791 -0.25626390896789414 0.059344403396588113 0.3648883895465329
Ni 3.088318407867076 4.26897812821506 0.20250825340359435 0.0012994355377138913 1.374777087869684 0.289060900893257
Ni 4.616493867820009 6.295393026438099 1.3820030803407775 -0.05341389684476608 0.48469691176644913 -0.06660828404785303
Ni 2.6080936437099878 3.5793316209280053 2.6943725521005786 -1.0324933230965445 1.5275525519339241 -1.1468426219741024
Ni 0.1832981525338216 5.768100646866053 10.410421099098834 0.6669451884788256 -0.16912845150096678 0.6897945822731733
Ni 0.5123736016882084 9.110382472840017 7.284559629248716 -0.4796925165733223 0.13117331241343214 -0.8119042418224405
Ni 4.761952877440324 3.7765862883216497 8.653480558727452 0.09114355018505593 -1.0319109682305132 0.7165875340963014
Ni 2.3499388299311947 2.2751043747560087 13.014347403712518 -1.234456561739345 -0.11140975663325975 0.7600749158559749
P 1.0812598004732277 3.9407631642648386 12.316716889084876 -0.14723036587629482 1.048449846425801 2.2332368088541603
P 1.067843633311504 0.2131107264729868 11.13460729743052 -0.1419752881249426 -0.913706043052291 0.4364411620838548
P 4.911732818139622 0.017538168865549694 11.104639281002859 0.5491470118207187 0.8556798442464941 0.03784561009286385
P 0.5468142906717145 2.852647239745516 6.592007827831468 1.1115688863734727 -1.8913343386798391 -1.3911282755341976
P 3.888162536461805 5.393262188896573 6.180073205033369 -0.3006768878656305 2.5887679255555094 -0.09585252562495104
P 7.404197605973707 2.7945413571416378 9.754121631858379 -1.0612835078553593 0.32857721382032445 0.25918699615196006
P 1.1018559301987425 5.502405021889464 2.913834214532053 1.1865628233818597 -0.40344208145001487 -1.1715540086778533
P 4.822741993476547 7.436331639458303 3.3570507128867537 2.6716636339094766 0.8205824863227287 -0.6070407988137094
