# total energy = -340890.93791342044 ev
CRYSTAL
PRIMVEC
9.04529671369245 0.00000000000000 0.00000000000000

0.00000000000000 9.04529671369245 0.00000000000000

0.00000000000000 0.00000000000000 13.23870605308892

PRIMCOORD
 96 1
Ni 6.148377774272629 2.2261199373733884 11.428869257733721 1.5588683313280702 -1.3021819901107767 0.2588643227052187
Ni 4.830297105322209 0.2871899866546092 6.02232703887489 -1.2013548940893697 0.5778351237840307 -0.42464288389734606
Ni 2.6205853365837086 1.7125732040515373 4.727872685511199 0.8284045534703088 -1.631934969406757 -0.044073336170130546
Ni 3.447660152167154 4.195407713655793 4.603403068017197 -1.2896393775590758 1.407158846634499 0.4738602261622613
Ni 5.039677638707222 4.820998540075975 2.6811028957081446 -0.11196485780578137 -1.0026680122049958 -0.19454817712565203
Ni 7.241872765695119 6.009170654487102 2.7158811578825026 0.5888016500978633 0.5608133924150535 -0.06268940860942107
Ni 5.087943343137084 4.227428064795544 11.652881463436154 -0.011801106399986126 1.8793095463048215 -0.31751324269667897
Ni 5.711906016109483 7.841530725810876 12.690015209674524 -1.0384562255481986 0.34213772611357846 -0.7293417484381761
Ni 2.0951349924991707 6.32326859045542 0.3641301868890257 -1.6559768408473095 -0.6572904389978809 -1.7215672251536092
Ni 2.5352339147321015 1.4937403353724439 0.3639863666678048 0.4318244892474498 0.6189712317027082 0.45657958470494264
Ni 0.4195498166625114 8.993675422541317 4.827136678574121 1.2005591376609517 0.3067238653906589 0.33867007927995224
Ni 8.532745181473684 2.321122691051581 1.535146991138669 0.05952438061787813 0.9456023775402553 -0.04267517027102327
Ni 6.839248508652015 0.9198705168101976 4.829652175650947 0.29050200421515776 -0.02277817423678013 -0.25674984746537716
Ni 0.5306522943502078 7.2976370212817185 2.2136039600083963 0.44604577505315435 -0.279003516657255 0.37852372094178033
Ni 7.631182345654124 3.8723368431307983 3.9553283470128116 0.9393216867378661 -0.6912863363273514 -1.3656229321742417
Ni 7.545939467365701 3.864521706581435 12.75247479405029 1.1470825058990501 -0.8025675378025467 -0.2847992974034257
Ni 8.04301471497414 8.760252489910693 7.0827877013715375 -0.9773675857669942 0.5981054439972926 0.011255004088529004
Ni 7.019105192850548 0.7265607624845036 0.35651314234247655 -0.7075169392536008 -0.30603223864027296 0.09488321973314627
Ni 2.133731274508582 6.244909183132353 9.315032209297673 -2.318732930945452 0.8188089393620738 -2.666411898592233
Ni 9.321721206378985 4.8986343236444725 1.4163433476429546 -1.4792145269501686 -0.9068630519885286 -0.19249849368547492
Ni 6.323512813472588 2.0162509579540386 7.079901347120494 0.020946263234363927 -0.27502653428737794 -0.7484255045425046
Ni 3.3660987097301107 4.0840691537181675 0.4436862869962151 -0.20381931801493286 0.8478606053123914 0.05912405985566591
Ni 6.181320745699457 5.677199211780889 4.938990820436877 -1.4300858877443177 0.6583744160906791 -0.43191627763030777
Ni 5.478709215902162 2.8223587752487993 9.148316532482143 -1.5330153748207083 0.7165044874641919 -0.07890792735081249
P 0.3171064017279459 5.342550361182764 12.4779572683976 0.038080608921805384 0.11354120115396575 -0.3839001547623453
P 4.228730587553771 5.957711960240197 12.60271904898251 -0.865786850773509 0.5810831984076831 -0.16614520050292675
P 2.284444011991782 8.277369313188773 1.1246677982397004 -0.2728305550773237 0.24079795212181107 0.7611360101306376
P 6.478567293483212 7.864677640660205 5.771029694976677 -1.4854425101377515 -0.267220665089714 0.4746937778071503
P 4.7639588976219445 1.1021422952896096 12.801537389139872 0.5033199261842751 -0.7387221612118117 -0.6682045148072235
P 4.006460506040466 6.183355937509186 8.176966517242096 0.3289739350381109 -0.2296025976266239 0.6839594636486349
P 4.7120750744192295 1.0557941938093602 3.6389763230490058 -0.34172789226966954 -0.04563373867871496 1.3894665715610586
P 0.3161494093125262 5.602476013824538 3.652161652386976 -0.31295904766709326 0.9654479515112728 -1.9336076455267537
Ni 1.1980948051456766 0.7973564925129222 2.305771917628059 0.8375576807244864 0.8619175976260898 1.2881141991638008
Ni 2.0418220123811786 6.726797377191738 4.847882067087968 -1.7780685026744474 -1.4803882355432958 0.37891118618818614
Ni 5.9186181868995185 5.784467388099054 9.195142225640408 0.22515998847423807 0.16248060716714596 0.3550629188156788
Ni 8.72746328853171 2.468579121639214 10.03463532938198 -0.8155860615494018 -0.5252136409335729 0.8259766607551066
Ni 2.469610285489477 5.23002686734703 6.923075797970557 -0.61051281652271 -0.503537698622036 0.014878973994361474
Ni 0.5339076967160825 9.02955811547109 9.103503417891275 0.42141383543708716 0.3246668230223247 0.4946915610853158
Ni 1.3002433434002545 1.1179806102177745 11.269104891610535 0.2772901335105741 -0.1912257976206384 0.13903600299096056
Ni 3.9984554182555287 6.761721268646703 1.4672593240739311 1.9410052235424056 0.32947015794823903 0.5718115432977701
Ni 5.594416654258007 7.904983483789789 7.915845980875588 0.47985629584469613 0.07509266736978035 0.4196035217012258
Ni 5.41424338466685 3.20923517033306 4.63958425574573 0.14461812506442837 -1.8705839935063653 0.1327853940955584
Ni 0.9723603749073654 7.5697919153757365 7.113355377823987 0.5420499957646213 -0.9091009401801117 -0.351984022780039
Ni 5.193773317243041 4.568291034386044 7.231431779446359 0.2809446995440258 0.021377951455143825 -0.6503852272376154
Ni 8.130437509823205 7.094443470998284 9.322021510237132 0.1867713613937106 0.035926024472647804 -1.2817352922206506
Ni 4.572895090524499 0.3721985917524883 10.511241974562694 0.21322081383449085 -0.37723765514050517 0.4424572863709477
Ni 8.24314190959758 7.070609113582113 5.050937224328342 1.0524301712297874 -0.1605435380454332 -1.114011177266378
Ni 7.319553775748278 6.055762978984519 7.053304556021249 0.5078093294141964 0.37547593525439205 0.4565199351116008
Ni 2.279288192740466 5.189639616545056 2.5456441469712936 0.6697569468960078 0.15932920602235787 0.6690717479035251
Ni 2.4409547848084796 5.34808608290523 11.268668003768713 -0.3915142196641774 -1.8292344840253012 2.5255403850544313
Ni 1.0390875303757106 3.4018095420181713 3.820134625476072 -0.38197902648023246 -0.44972476656663835 -0.16701191937859622
Ni 3.679147391254302 2.603978171416313 2.600651311204674 0.12926786786060318 0.3355302480993899 -0.386129044092864
Ni 1.115484108264506 3.3493649104056646 8.191105220876715 0.2799224289270985 0.10833857390710373 -0.8387745838507232
Ni 3.706753637491172 2.814462231027047 6.985350858288907 0.39573134306931845 -1.338468483246637 0.4946887328718384
Ni 3.887008314754718 7.023365527705582 6.235986902238496 1.273150121654801 0.1816548661027517 -1.2061196624678647
Ni 0.5688080703990244 7.231425447738506 11.33843528353595 0.3166444669384805 -1.1446620693830158 0.778342346706595
P 9.46418463306008 5.557511842774905 7.861329071735929 -0.5480054420171079 0.601075839479526 -0.01572692381695356
P 8.336561736312651 1.7184616923543559 7.9826093175316615 0.7201014607868308 -1.026088190901149 0.8497382819510785
P 1.790769796029827 3.23616301930002 10.558477419671984 -0.6002052639491148 0.6774484020029946 -0.6530447763476495
P 3.8392762828438523 6.280466245372567 3.673780816584467 1.0508836526782739 0.07177440162982478 1.1476995706577588
P 6.777432949417818 4.1246644463495805 10.218520788834084 1.592841345839405 -0.46195267609139795 0.9720438595612355
P 6.287313535150192 7.6611313237964165 10.403280023969833 -0.872577391332781 0.47596364565850935 -0.5148083864398488
P 2.480211373493937 8.70125001802239 5.676704434038701 -0.06014067404563836 0.5354965109168196 0.8318279773295609
P 6.846131979617368 4.079845000050861 1.6461011259566785 1.635655355681138 -0.8455247580903632 1.0365224988605954
Ni 5.351270027425341 2.9324400389128584 0.6063948972708099 -0.4132572677682238 0.016426778097455578 -1.5332783986741079
Ni 1.3790821514607257 1.1138288189259256 7.103863243223406 0.7788424262714652 -0.15887412076281027 -0.4416923831804651
Ni 6.7107510204341345 0.8541537210091718 9.428222341517305 0.6796433527717843 -1.117096243949605 -1.1706844615887064
Ni 2.893472899729229 1.8093578812253603 9.346407630766162 -0.339557366980912 -1.3200501286404491 -1.0893334720140402
Ni 6.220658742057303 2.037634039901601 2.45901010201471 1.1203980546293284 -0.5590305894830179 1.40894396355938
Ni 4.050348286755176 6.966687697128837 10.356150408834647 1.7710043967388143 0.2575620589540274 1.1308169359698073
Ni 8.105807166277007 6.9887401310493775 0.2658783625528106 1.0196686605280505 0.5899761300219387 -0.3266504291112568
Ni 7.676634962738092 3.868176006542017 8.106681846490343 -0.0984853352621078 0.001847594731700044 -0.00908139347597791
Ni 3.0881095991148673 8.612009118489965 12.295501870390463 0.2894344821825919 -0.7459880987456056 0.5755103323055959
Ni 0.10919030191624353 4.847329399445415 9.862333277181165 -0.09370205494085153 0.4684681086124125 1.7016553167210304
Ni 8.748077520240043 2.4249717451294 5.93822205894053 -0.14193440758467815 0.5685578122471627 -0.7318233772094493
Ni 3.594004011232134 2.510133215745433 11.612622655850616 -0.5050243104698916 -0.21102277774190753 -0.25768032969944654
Ni 1.1825911662040005 3.1614307760467373 12.841677703335598 -1.3885093498541117 1.1844342070746312 -1.064917505063521
Ni 3.103739872213593 8.33290743635207 8.215266113512135 -0.37220857735703 0.6797125154468229 0.45215085950962774
Ni 5.625613883376934 8.133332004841488 3.5656470053498968 -0.41194600515596796 -1.0059819070695772 0.029878275616671127
Ni 2.74539234365328 8.143290876763766 3.268570509148466 0.9687389635577188 1.5900915510084097 -0.1617118473219215
Ni 3.3738867103886774 4.15531895765258 9.195419916256226 0.7664209126786607 0.5798580677513303 0.1325018014168686
Ni 7.36951999600138 5.94699328337562 11.397652128961544 -0.3186501845145996 -0.4622612084707523 -0.09166702678869375
Ni 0.5795945869905931 9.037726018600805 0.12847939762401714 -1.40794046199553 -0.34508575299830896 -0.7604698373015484
Ni 4.157652644261069 0.19684827448554443 1.4315937182705307 2.0817592376657372 0.1896175725932541 1.20678609240727
Ni 6.16873873766686 5.634984810998624 0.3891992273364323 -1.139433988214857 0.4422171453356836 0.07488363668276782
Ni 7.959155767116334 8.761473604996532 11.104309531333698 0.15824291493671458 1.4011481216640451 1.6540012051781774
Ni 9.348766644206062 4.984682233359854 5.56857062280413 -0.1462183796720127 -1.2193292191796032 2.877470414668083
Ni 8.028108065629985 8.96344604019413 2.717270515491278 -1.4078090786239883 -0.9616895129101051 -0.7105770662361632
P 8.658456718236469 1.5775359661517239 3.7432577423201807 -0.2589399131381605 2.297984642654507 0.2509923761563097
P 1.7587494448900765 3.1188726539810516 1.796756878069206 -0.2587645639025608 -0.3900556328407799 -1.4127322269572187
P 4.648848448863619 0.886909454789505 8.33928617974861 0.5310639290667628 0.7828137522143872 -1.0973527427740908
P 8.402266773227666 1.7163179569814404 12.27781469676937 0.21209569909111214 0.12247989840449229 -0.03270571776313722
P 6.5635930846452615 7.800437941848196 1.5364974539706364 -0.7923890546076482 -0.12731125835486462 -0.195861753730753
P 1.9294703791871546 3.302329366358573 5.994658380089188 -1.2188437949027524 -0.12694641881627813 -0.06937196283591923
P 6.959098693002777 3.877275575255743 5.970074167557343 -0.21667611937294295 0.7876260860013661 0.863995563201041
P 2.1893960318289287 8.145525065106003 10.425150647422038 0.2929226978415084 1.5501054975337756 -1.5143625356062111
