# total energy = -381164.44687338977 ev
CRYSTAL
PRIMVEC
9.32865564550427 0.00000000000000 0.00000000000000
0.00000000000000 9.32865564550427 0.00000000000000
0.00000000000000 0.00000000000000 13.65343049216414
PRIMCOORD
 96 1
Ni 8.358036838087266 1.3169729334205809 7.151803440670526 0.9120533379402164 0.7072127777496208 -1.1475249927531075
Ni 3.45843109299011 0.38844614588224774 0.354396553482849 -1.7587443484245389 1.5954785263519362 -0.7590086793749895
Ni 3.375322101569221 3.3514780582341905 3.5941975458402826 -0.5216860873962886 0.5629664342023143 0.018257917768923392
Ni 2.39411546382852 6.982433305151555 11.215173585211533 -0.02290698650516055 -1.4139758695563327 0.9804480244645307
Ni 8.296719585801991 9.263513450869523 12.804391200743437 0.1759822411980066 0.13950522931789522 0.4119097526013938
Ni 7.611520514205214 0.8359398821783242 9.320268057773276 -2.0038463272383424 0.2586768892847609 -0.7804272542600817
Ni 9.12846250589251 1.2414014956048194 2.9550391203607633 -0.5398542736648831 -0.3920510660042538 0.9100149673539488
Ni 6.344306628965016 7.288338574729934 12.180156758255851 -0.19873573284443838 -0.3132639805020218 -0.6649083605544549
Ni 6.6453050257757 5.156684832040342 7.750710583606231 0.6119320654677397 1.4688360119293218 -1.2891917484986959
Ni 1.156576031580783 2.8978068862978725 8.204769827609347 0.02191556912616871 0.5838810728677944 -2.225671594912393
Ni 7.1877290256813 2.5831513379056203 3.1059235922362687 -0.33637254149502716 0.8846019265974829 -0.8277831178362259
Ni 0.744142181069545 2.2587100299443357 4.878930646019131 -1.3849722832351308 -0.19096714464261305 0.42649330684252357
Ni 9.056137440174007 2.2703148773264865 10.035011914051736 3.289272180936703 -0.555755518276172 3.5662396410005357
Ni 5.790184495122745 6.424812925514827 0.7518047386577275 -0.19525703026721858 0.5396974363720448 0.28032994877816236
Ni 1.2033965532938193 4.984431209121191 4.14944098406787 -0.9390442647067634 -1.063538108217491 -1.0518131064710787
Ni 5.948323862343185 0.9050764134633718 7.411846241450778 1.2975018110262881 -0.01763905323800188 1.0568041319277672
Ni 6.752892409102348 3.190418821857308 6.619933881543195 1.026020056667375 -0.76663945644737 -2.729732770138067
Ni 5.492954875114623 7.5301466526983765 3.41847739455521 -0.23837802982640882 -0.384827294562305 1.4492994845582912
Ni 9.054924714965262 3.8895642333546614 6.32384515609684 0.12156767100286806 -1.6522086320541285 -1.062602740887415
Ni 3.921580178865548 1.9999237990534529 7.060175521090971 -0.28442520189345855 0.5345076646409892 0.7435278101305711
Ni 4.919606382386007 6.981332523808232 7.9776991595238 0.28786019571693644 -0.08526369436551122 -1.1229838130786338
Ni 5.865392115375883 4.8396598051633095 12.575901644163658 2.4791430287368144 -0.11712171941637248 -0.9417220686492427
Ni 3.8051492301705085 4.4361581422472565 12.760496145380115 -0.7152173932216521 -0.4805003571865982 1.8121788140945951
Ni 4.65887046250568 0.6735792983659034 3.2384977791908045 1.1438809682426172 1.6173616995782725 0.21223351022055703
P 4.776766010106667 7.054842328769126 5.548126409188192 1.3381887472226888 1.3356546679469254 0.7993140638622557
Ni 5.790977430836156 3.231912681307315 8.522115760233925 -1.6054184111734673 -1.2703998126031735 2.7622279145522945
P 4.069560640298881 7.985888786145015 12.942891882506558 0.4022917698956555 -1.4590123409706808 -0.8746615275553195
Ni 5.992009955824386 8.980062254963844 0.19079619136087209 -0.20271914297221863 0.026254048600522526 -0.8254799236243461
P 1.500094439941183 6.932534327139396 4.711757408859081 0.08600134386248415 1.8138855123730568 0.41394169542975806
P 7.996672711847399 7.602994123122187 1.6315715770145764 -2.253856799097357 -0.18132113691241675 0.7812109265036418
P 2.511451292102393 2.8574231368466405 13.43885264820293 -0.39743109936924453 -1.2606478754227322 -0.23169984647528483
Ni 0.9811320084970864 1.0216743450910006 0.79327620933465 0.11116344495040854 -0.4111170814967694 -1.11467452188199
Ni 6.4593476079977235 0.39432879601020965 11.288533198819652 -1.4652400670479475 0.9314808505372086 1.6198847231104425
Ni 3.718364748501575 2.2984874167911946 1.6087014453087227 0.46897821547961166 1.1652368082105737 -1.2332324595242565
Ni 4.334373182611684 8.20732308060653 10.302605328554748 -1.779864675342922 -0.31233555515048145 1.6161345120393908
Ni 8.098261769718484 2.598683549233017 12.746145874698472 -0.7346611037685605 -0.575866430093434 -0.7481408834225503
Ni 6.671425261040992 8.324332405939586 5.752381051769505 1.5407343407315206 -2.084706236109203 0.24320039091571666
Ni 7.939450739305506 5.51361784694056 0.04168789548340635 0.34707424418324745 -0.13491426751310312 -0.9917552219472339
Ni 4.339494614454772 8.32307303745358 1.6662508536569778 -0.562691840384689 -2.1829064360307244 1.2476103255124835
Ni 2.735861427653061 6.666863548525018 8.765706544259222 -0.5151626844554741 -0.3131493093010284 1.320041386889701
Ni 8.391564025781358 6.453601156239359 4.592126731344042 -0.1306596060018072 -0.3482862622134776 -0.5327875966260889
Ni 5.2999263365041145 1.9673481342154528 13.010230781886028 1.0992396753841585 1.1162112702414906 0.5329392917126047
Ni 7.948807380723752 8.295049756476104 7.7813906656564065 -1.2028039678310705 -0.3700599064451433 -0.2586372942960771
Ni 7.8434961893273645 0.5566772525705429 1.2644563346886206 -0.35499607013348544 0.5313575490477817 0.6829217664127399
Ni 7.990515799249152 4.389346949189672 11.023315792860236 0.32988719088099955 0.08467285485904773 0.484206859503908
Ni 6.202958841557976 8.30830577587324 9.38947735257085 1.7891658981391894 -0.31029512768168493 -0.8557654619817648
Ni 0.44998542016727616 0.1870955137431073 8.738973416330742 0.8541559514028 1.012903573890075 0.2480173526883858
Ni 8.879480691881565 3.0442761055479983 1.1687993688193945 -0.16624238820242337 0.33206362970702813 1.248698673480656
Ni 3.612801683407987 5.7115439296633115 4.4275207401643515 -0.2645441466988154 0.010306524132330637 -2.8152736294243645
Ni 5.9710857816457965 5.22316083079051 2.8138079411468735 -0.1116378134836658 -0.16914953454688933 1.5517787714711404
Ni 8.221381364372528 3.3159918528952 8.50793060675378 -1.888722354978289 2.269895854838091 -1.62273530518536
Ni 2.3922030894608826 6.8252641180981115 2.211227173694215 1.363688177045374 -0.08215960151889076 0.586789247653525
Ni 0.7115198729542854 4.130010327627128 13.03781095172954 -0.5717742623019314 0.49633218201253226 -0.7907764587048897
Ni 2.1936333295119503 3.901467597711273 11.230861585084977 0.7463683649031597 -0.44220274715798036 0.2883358498017744
Ni 7.194828132480188 1.283268501272902 4.991544308903258 0.522354574218223 -0.6416097950378304 0.5934167802723715
Ni 8.796623574157877 5.989855036414999 6.82631918902972 -1.1004216115074015 1.101488362209019 1.254655405284723
P 1.626954825431436 0.32389091728962327 6.832654278947099 -0.5208340238086384 2.338473346797173 -1.3526473458501802
Ni 2.5305750357787677 2.1211590053062164 9.664088714570319 0.9247643577489815 -1.052535329349084 1.0304359263468834
P 5.788803854115865 1.4774817791258013 1.525907762442108 0.556967279196086 0.36005548693426376 -0.3370245732567293
Ni 5.398082449168901 2.770955829463071 4.762794482836371 -0.6446953759416897 -0.6940243040838047 -0.6996665899712466
P 7.151580485805226 4.368973165682744 4.611214093264154 0.22742975834502122 -0.1583727556463595 0.055171502965821115
P 3.9535401524437237 4.839575847264243 2.176274567447073 -0.3860318563933674 1.0097863684173318 -0.7917280239848815
P 0.9105775215833514 8.934351843249582 12.06514003372732 -0.14958678192361335 -1.2886430750840776 0.3074610006669995
Ni 1.1610911008194977 1.7628826640209263 11.970917815066592 0.2432037333498263 -0.09383343831239324 0.25101911562918705
Ni 3.0599855613289813 8.92298954090918 8.131437267102038 1.217377237659555 0.6542483097374474 0.10052884805469782
Ni 4.906807467106015 0.11174703079264599 5.6721126359337175 -3.4041824945240533 0.6511575866272657 -1.5187640071080166
Ni 7.582443095161673 8.623269169895403 3.5300947570370744 -0.3887263725063951 0.22669185173773218 -0.709860756895429
Ni 0.860144011613798 4.7815702676643905 9.850812947826439 -1.1843940978653151 -0.1820518444308542 -1.752252570052608
Ni 2.024812651799096 1.1596918025017142 2.9196088869544843 1.3302183274227026 -0.33744057774822533 -0.6955471684862343
Ni 2.8685988660780044 1.6217214497229258 4.998848646122088 1.4024267312661525 -1.8577955834924456 1.4290078241887905
Ni 2.42481606892069 3.7957459454750033 5.691732664080132 -0.06293597740258838 0.3883607616368602 2.5297361683033337
Ni 9.273737657244794 6.26491977106943 11.634538626723526 0.39059453606338534 0.5487194373649968 0.695108538286919
Ni 0.6876366492663565 7.810351476506799 7.159490252762883 3.2807474312951435 -1.0372187535966717 -0.9872956435139835
Ni 6.400707679827143 3.711088397249101 1.0142776541831968 -0.14601834784606466 -0.5322486934034834 -0.3705533011417941
Ni 8.311244302340585 5.212022416180953 2.287454415988244 0.32404641582950644 0.289952559469591 0.9248528036977297
Ni 8.22717445940815 8.36112462304184 10.72750039701862 1.2844609186819298 -1.4452358560118788 -1.1114405883257246
Ni 4.701744962962566 4.4872698454681625 6.083313238194215 0.8832868073304853 0.6745476834164319 0.7972366125079366
Ni 2.936809994742225 6.339269155020995 6.542955682485288 -0.7694221613988297 0.5055706698916648 -0.5423906669334917
Ni 3.622447513145241 1.07196512663214 11.817016456017946 -0.747572669623906 -0.08447745101879 -1.5133271523631613
Ni 0.49108747608830383 6.941219305365105 9.287514215616145 -0.9782867551471539 0.9448881250820501 0.759973100170788
Ni 6.149309744054157 5.368491954075506 9.958293051615392 -1.992866431188071 0.16809461091981373 1.447145414329766
Ni 3.611924789795509 4.425290258645805 8.2163065758067 -0.5215156232566953 -0.8276278232052843 0.2604807752627192
Ni 3.012763907431514 8.701956378632095 4.030956798307869 -0.8334719406908871 -2.3076229370752195 0.5652619151047104
Ni 1.408589658613593 4.886881459060778 1.450717866634329 -0.6645779737982296 -1.085546494167782 1.2173481841938325
Ni 4.472735800274117 3.439503251078225 10.8856612201466 1.9364327736803748 -1.620774067693931 -1.6192720292271083
Ni 8.994419055704302 8.933829438544276 5.4006963384265205 0.7241180381453917 0.5148821771005777 -0.4397794824284684
Ni 0.3377551650222223 7.284989587422706 0.6099438752008352 2.005007180315663 -0.20712652801129489 -1.5967100847661921
Ni 2.6182270824047267 6.040677551316897 13.58207736108689 0.03196498294237076 2.161250291213529 -0.3671861844417741
P 3.7757732941525064 5.336186820245611 10.20357698660521 -0.16414719623629148 1.0119450666315475 0.410222594706958
Ni 2.089796065676962 9.056874403954707 10.310824806873407 -0.04597209585474018 0.8613234156855166 0.12254546153510507
P 7.649282911474465 6.580246982654219 9.136179169682315 0.5398964397567283 0.42738959340454774 0.005880112929860841
Ni 0.5345767349394702 7.962333931128993 3.02113544283404 -0.1613765754696898 0.7862294627641555 0.239544025110052
P 1.383327659649875 5.038481438809443 7.421062953037246 -0.038842426788494394 -0.5591115792325985 1.0211262189101833
P 6.930687253359921 2.5271980625051835 10.751912555470671 -1.078831801151768 -0.2639412230074938 -0.18415860636121184
P 1.0475147206927362 3.1345495043559386 2.841538302343162 -0.3115012321746442 0.04062265861736875 0.045609827419315
Ni 4.817373647288744 1.2067362119455958 9.611100085872492 -0.025284999819033874 -0.06514018414275878 -0.27016406398875403
