# total energy = -340887.8530612825 ev
CRYSTAL
PRIMVEC
9.14655817504640 0.00000000000000 0.00000000000000
0.00000000000000 9.14655817504640 0.00000000000000
0.00000000000000 0.00000000000000 13.38691243745381
PRIMCOORD
 96 1
Ni 6.47472962046565 2.356885108218669 11.479250627884262 1.493267148388493 0.16555667498930843 0.23846698999578927
Ni 4.690373320648671 0.7491168336338532 5.84239695615129 0.5867637937322282 -1.051097825571609 0.6603734487985788
Ni 2.800694403550034 1.4093474150103755 4.558738799490838 -1.0074939728387295 0.08209686660175539 -0.09123713834012674
Ni 3.4802836752849267 4.690318441299676 4.795861490633136 0.4024604342630359 0.24066862563279842 -0.421801557793809
Ni 3.9723867977328498 2.8865714381707464 2.8371013636740394 -1.4639925677940915 2.752725631488814 -1.9451500989487143
Ni 5.4856025272764875 4.911610269568235 2.6139820530839097 0.3189656588724894 -0.9643215512163135 -0.7388550872452502
Ni 5.259883764855577 3.1553064636464243 0.5144399321451475 1.1125783014745934 0.3789381827713797 0.23827287170711225
Ni 6.0741926918177 8.17363877389572 12.287432275530973 -1.247009201593375 0.3822237955011869 0.09880569471600402
Ni 2.0138891769931173 6.809713166737773 -0.20066725426001317 0.3982481959539012 1.3070737709854392 2.1312987391567617
Ni 0.7767586470673663 0.3914059196308174 -0.10678423727658846 -0.8498575811377621 -0.7481385694297051 0.07529244208541228
Ni 8.344944661787009 8.870844316658356 7.008745016397702 -1.2378506750225584 0.03337111926127802 0.1404591085907323
Ni 8.8356026280447 2.605470266054616 1.073448298265835 0.05378876368568155 0.7433241787601972 1.2001832423787715
Ni 7.661577861529552 0.3351051954957305 4.820801410784409 -1.078578290380065 1.1091535920637607 -1.1708731805607449
Ni 1.0500431705748199 7.5996373696293 2.389055382600176 0.3427835872276935 0.47989511950243163 -0.6233757885283071
Ni 7.873037139769646 3.8808937763982043 4.1002776326333334 0.045508525954760334 0.9292825573343094 -1.7005751962829745
Ni 7.969322957583282 4.226185493723426 12.548918653660083 -0.0918068948006677 -0.13799444910032366 0.22314218671326086
Ni 8.495030534733145 7.465000033425564 9.03549608348387 -0.263559671298359 -0.42702732496912266 0.45633507279430446
Ni 7.121446162151885 0.8349289276915866 0.34440084255985126 -0.385599139731323 0.4159551263153611 -1.2707399695514117
Ni 2.255029036481929 6.863641273684595 9.117156554790048 -0.2657847039741358 -0.4484752104302534 0.220707094909207
Ni 0.29526644674783686 5.555152955570864 0.9796439416826379 -0.27260532644039503 -1.052207256585704 1.3725525694145393
Ni 6.986241739341857 1.7145223282194562 6.675892618178262 -1.862005250698419 0.8555834278779458 0.556467456741532
Ni 3.5463675580343827 4.697937524251966 0.07901803065201762 0.2530963098731899 0.28780208878549146 0.9857774070972443
Ni 6.323957755657064 5.808274806257155 4.8182312279397586 0.4037806957363562 1.1056895447745603 -1.4093219157240888
Ni 5.359562955748805 3.1457117241302743 9.2868627096581 0.43824607650307756 -1.2454048332207326 0.1874442190910191
P 0.11270571903326637 6.088543641580177 12.346776059567892 0.49099817139412855 -0.9451426642950174 -0.45906481302064167
P 4.378777523607049 6.5540028400905 12.580792579557013 -0.8380366772434342 0.003975953928612507 -0.8127825306623357
P 2.3412719334292817 8.797406601143424 1.1010187685456532 1.7800739631402505 -0.604372765063243 -0.15709414604425204
P 6.3998467487604875 7.924020054987012 5.719129706403725 1.8058194475354705 -0.4589300872149903 0.9199054869947834
P 4.890957341229374 1.4157682988429179 12.627071419909596 0.80929225812089 -0.8357733351305541 -0.22926064090617293
P 4.298178053048127 6.393041709484973 8.065734997899611 -1.3696135413908737 1.3314077197451133 -0.43495017936062513
P 4.868877549816614 1.4666414553622915 3.8095670865079887 1.9936074231191536 -3.1353217227277552 0.45186855238251855
P 0.4804979694468836 5.909252808409958 3.490998868176413 0.6636976280758053 -2.1647415921962394 0.8833788528236594
Ni 0.7342975800932762 9.175003961911008 4.5925142948304805 1.1734116307118825 -0.21783748667089584 -0.471546233317104
Ni 2.2242417216951234 6.970573685203473 4.487440463930937 -0.6419211556306622 -0.7146088131033758 0.8454661369382859
Ni 5.8907950540309395 5.389472200951674 9.042471248741272 0.6485592297724702 1.123706035956639 0.2476237167943929
Ni 9.144838613079493 2.3823491261528535 10.193316807552108 -1.6843916445445763 0.5442056086550435 0.36660023003131703
Ni 2.5758079779222305 5.2873966118189495 6.964139996189498 -0.3886790642082274 0.1623448529202301 -0.2670162623883917
Ni 0.9631691611140123 0.1237282362791307 9.144452628324887 -0.6188138801892376 0.2125880653464984 0.41479915833404696
Ni 1.735010618511329 1.426972832596286 11.420161118164359 0.6661807995089752 0.09038301786994757 0.2236471513741374
Ni 4.402832971583668 7.451792403433839 1.3555857754221745 0.1554347560639581 -0.44594061693385784 -0.9482647548637668
Ni 6.032328895091851 8.127338896459353 8.006806467603427 -0.7558631917674724 -0.041946776745430986 -0.4136383052567263
Ni 5.6710947268832665 3.3233012974816165 4.592219775657535 -0.6329539191350453 -0.3172041960966924 1.0213504191058476
Ni 1.0449393911181837 7.643211572732194 7.05920017520889 0.8001121342835188 -0.8190102567396024 -0.705477797336385
Ni 5.2693413059992364 5.044893915163402 6.640028963609318 -1.7079686605335682 0.8148993198950223 0.895619360753909
Ni 0.9016000194753009 7.650355034659852 11.107308584030724 0.21431096157487606 0.5069518665099075 -0.0761344783707334
Ni 5.047198847821238 0.7346671010431831 10.414950717096074 -0.5096533246014706 -1.1053172490368062 0.2526522803572358
Ni 8.51934208633841 7.182581756933528 4.882474823186212 -0.4245333549026753 0.5933388758465846 0.5110969990265326
Ni 7.601393508797175 6.092751058336543 7.0805116557357035 -0.16028797039120135 1.0108538904498976 -0.5843410432233486
Ni 2.726698747986975 5.5475155795022415 2.545133165800867 -0.9657513416843045 -0.6535538547735841 -0.9581719866751498
Ni 2.6060099129864107 5.561994581079043 11.408139796766765 0.494554007066187 -0.5181482494463593 -1.6994513670911764
Ni 1.1343927299818075 3.4702864872094725 3.779259051369082 0.940678972096709 0.7918691775484362 -0.6576740475895447
Ni 1.6249775237741722 1.3447178350093156 2.2148911952820067 0.0513852964505115 0.9641814260940234 1.3131269191580546
Ni 1.3341627068857347 3.311868099774098 8.560716542202378 -0.14815570590404162 0.6374268673047344 -2.391231869446127
Ni 4.118109762433796 3.106674213877724 6.869881970321266 -0.7642987241293353 -1.046024781924076 0.17695540374455332
Ni 4.3381302191172795 7.279992601401585 5.677175358752033 -0.020975059589770327 -0.21985965930724716 0.4621691629775782
Ni 8.200813198206948 7.669407315319661 -0.20466704414601142 0.33414828015019876 0.7162581757813405 1.1327221234123201
P 0.5562131779451533 5.726312498531497 7.962642311498826 -0.25480815035797405 -0.5063396868472053 0.7241100677255917
P 8.666363862298931 1.7027507078597952 7.982173871806533 1.4607110688293423 0.8846104112379152 0.12400584813071547
P 1.8862489577863821 3.6154698049786242 10.572274261518979 0.859632658246655 -0.20705762244657244 0.2001693799671714
P 4.420769372147222 6.5246332418194255 3.419740777472442 -0.4202591530073536 0.8447863372624418 1.6766040301793579
P 7.215408754191355 4.229304470058037 10.397105782114181 -0.3196050922287012 -0.3857158678148454 0.33129512697211977
P 6.627056400162459 8.127567560413503 10.149956633910296 0.16687333691820294 0.5149755081453324 -0.5832041014054279
P 2.559225267967246 8.654683707520931 5.813039248405833 0.21755749353663173 0.793950228447181 -0.07793065103920772
P 7.210341560967382 4.172568369754247 1.4317171523169976 -0.0381482289349472 0.18602779835946673 -0.0482763185078846
Ni 3.104122324149406 1.7619197926357442 0.35361782922374424 -1.2832990371633446 0.777196920248242 -0.4495753854729677
Ni 1.3637335294364603 1.0617782047018167 7.08448766457047 1.099840799303267 1.2345797175807705 -1.7650643771052956
Ni 7.226311451525245 1.0200516063484577 9.350718490838318 -1.6390751799959642 0.3641342849893277 -1.7493089140432518
Ni 3.2093443292912394 1.8470651026031752 9.481923123762348 -0.6724812878057063 -0.13046728748534306 -1.6215919356095363
Ni 6.68114914515627 2.0825981219362197 2.478573662026778 1.1988997476806578 0.916185357830719 0.8071996372579194
Ni 4.626996819116356 7.16664845260833 10.180813462539165 -0.5924572445725798 0.612888515843738 0.739560855063023
Ni 7.2940874475354125 6.347455263585556 11.128513964482813 0.21674116828292353 -0.4639691923007945 0.5043062013569444
Ni 7.795721283592323 4.0949140909247825 8.327529615038916 1.6241738374040995 -1.490488300091775 -0.01931027029283771
Ni 3.5933717204495323 8.682772787648762 12.528864824881095 -0.42568623756019597 0.15138912523967477 -0.456896087504097
Ni 0.24897663052545302 5.287433198051613 10.329234661899086 0.09528045517156493 -1.0287418264739123 -0.8702757397827979
Ni -0.2272627014393341 2.8668240190903203 5.841780478130899 1.307269174825697 -1.3683992093677981 1.2261297870412045
Ni 3.827112014382038 3.044559937372318 11.471272085196048 -0.43469872547145133 -0.11450330795691895 0.39123525497117784
Ni 1.402889944945169 3.8104012526127296 12.887835219943593 -0.2733393763929422 -0.50290186481025 -0.3591039216542719
Ni 3.2867333579338895 8.724334747955131 7.988519753862114 1.263776650859701 0.3659916499130407 -0.2637553322489329
Ni 5.686845100045144 8.452938074053144 3.674721208778067 0.46626261632066157 -0.056337755359780396 -0.7241956854608624
Ni 3.343643242842833 8.61777734532106 3.1144652521235354 -0.8318904551363802 0.5969687592896881 0.3955351678981123
Ni 3.4169163203107766 4.605026786401589 9.027250461297207 0.44354614855975233 -0.7941384331985871 1.356703775307741
Ni 5.414103882092752 4.709462187541145 11.636092148691818 -0.058302335285318946 0.5140794786936244 -0.4235519648260125
Ni 8.657546580226894 0.12631213896102986 2.024275093790627 -1.2488804504741589 -0.3852813513805881 0.6091509031781767
Ni 4.9578278279811085 0.8467078652977803 1.5222790540303424 -0.22870708239554804 -1.4903101226426978 0.33076625105184326
Ni 6.149084710081029 5.921948231144386 0.24615491733123748 0.9081812565793198 0.1456895037517362 0.9983447022392935
Ni 8.21109392958555 9.25101186027059 11.12880848365576 0.9612244003482283 0.18546884053220314 1.966843524761748
Ni 0.3560352645470219 5.199040859935248 5.783574525929832 0.678431077631238 -0.26188459758878124 -0.603468765191735
Ni 7.793398057818155 6.494403867080747 2.5731920622867506 -1.364243792438528 -0.05128656608911813 -0.6623745383890076
P 8.873377913270343 1.767316261953693 3.441119027873868 -0.5736987330181539 0.3853302023406525 0.6919417105231631
P 2.270614771596818 3.5878654924335915 1.6463228465662008 -0.9035314165121342 -0.6477480467250845 -1.0498783513422112
P 4.994377474412503 1.3826303186074465 7.93708682798298 0.11989285440360642 -0.24200508505603482 1.1711729711893508
P 8.777284173178192 2.0607927272684408 12.417204557446205 -0.5958780973286706 -0.5675692230816483 -0.9921596564745041
P 6.589839054984945 8.040437447324047 1.3693870170388738 0.36854398402124916 0.3277398055206936 0.1394872315957662
P 2.239049999365901 3.1125554507784714 5.753721989387593 -1.1132079646387925 0.8150996088312865 0.8931279617906231
P 7.017669313200283 4.0235892303462 6.264098105739581 1.3059478849111121 -0.3522514175088127 -1.1812735499584623
P 2.67139865731525 8.82234011870398 10.312287004273278 1.2956989534895944 -0.02502480417911174 0.35697504823672715
