# total energy = -340870.2374043113 ev
CRYSTAL
PRIMVEC
9.20426183357722 0.00000000000000 0.00000000000000
0.00000000000000 9.20426183357722 0.00000000000000
0.00000000000000 0.00000000000000 13.47136757448295
PRIMCOORD
 96 1
Ni 3.8698306124344737 3.7266951377188353 1.7989260203363497 -0.4973536812985112 0.23120079535167923 -0.42512033775439684
Ni 7.4384793713775235 1.6834594769140476 8.696279479109398 -0.666616087274181 -0.02420822181508734 -0.0951441867040168
Ni 2.5026939996161346 4.3032040734023305 5.562920508433788 0.5585019706730574 0.15670745212879464 -0.5957575125904062
Ni 1.065899533756322 6.162428132990794 8.584682407333322 -1.0621335145604804 0.445543124385123 -1.8892329760661206
Ni 8.22499274350318 7.49585873922379 5.833182485376292 0.4624283301762359 -1.4854864760018094 1.708183861868168
Ni 3.2308247393630807 5.407651055432661 7.507296875319804 -0.7867614240082257 0.22653038645920343 -0.008837395785971877
Ni 9.161507969621551 1.4632843312209862 12.412639151291728 -0.588850758168244 1.0807979237392031 1.4912609165917414
Ni 5.048243042012541 6.311086164765746 8.590165386067044 -0.22538316022863764 0.8308458159219497 0.40961221481646876
Ni 2.7282720469655577 2.6844229439146092 9.628741148346235 1.727459422268328 -0.31532523390642464 0.34297333464099644
Ni 8.94059648298725 6.690623898667063 10.632734658320008 0.5144944547438558 0.23460724993006693 0.4574365333885993
Ni 5.013524566632991 7.7293156346445 1.5387399487485622 1.8532966671808278 0.1636705137101891 1.4020107267746564
Ni 5.287802362983793 4.060183950007243 3.8947741618190395 0.16086929681596812 0.41192389366878096 0.40635025623574533
Ni 1.677209783175258 3.5348875267871134 7.72547929834063 -0.23269126385427666 0.09718718527597456 0.3820034519602647
Ni 3.1672601076103835 8.109571300963529 7.4053854481995876 -1.116220526212871 -0.7054492580912948 0.6845482462725695
Ni 9.075006317549173 4.996561112199133 6.841218507117481 0.05005372212328153 0.25080622828743254 -0.552304583613094
Ni 1.4667267251212914 8.760689982518347 5.7119273817296525 0.5523410932779842 -0.6144417192634708 -0.07029216065734345
Ni 8.486872399255821 4.566648453655113 9.191284676859194 -2.1381463582062143 1.3080155660734185 -1.1838847623290643
Ni 5.486430331883767 3.2113945427760635 12.200451463958789 1.4725664255060318 1.691135133915997 0.14951633369699413
Ni 2.344113773657949 1.9374878973807004 6.057306259366762 -1.5729512917836974 -0.407875177520704 0.36314003939685846
Ni 4.735500635743621 0.588223199632476 7.725816174321248 1.2875979216490148 2.2548307329748525 0.11041268282731306
Ni 0.3550138988532584 6.600357703532585 13.220099582343359 -1.874259899696056 4.272700628185796 0.19420364930203973
Ni 6.299240279873518 0.3781975933882562 11.220005216859752 1.3654887205892225 0.02450158468579006 -0.720859679109094
Ni 3.309465951887704 7.034403075609324 0.2092478461250332 -1.271526984229081 -0.8563475597374801 1.7377949998663813
Ni 8.260944589959308 4.100415778184341 11.459499187572467 -0.7136312796814549 0.864411567692537 1.163837613870202
P 6.985187887949077 0.3281254889576378 6.903362000853582 0.4129304805564243 -0.16282564921139056 0.030395067352089584
P 8.150226525181841 6.623662894322887 3.699156906942568 -0.3627636298940462 -1.6064957033980463 0.24908590316221615
P 5.03932411236175 5.8050358528973245 6.1920465269260685 0.521662947467837 -0.11164912633757547 -0.33464398883969465
P 8.919251799953003 3.0554191228975207 0.8512478655487505 -0.04148166418355437 -0.2896149736245141 -0.08746481578188808
P 7.227545304497046 5.93471469691177 12.436672399187684 3.6217402451710012 -0.51011560894987 -0.04936132404194725
P 4.923147920357327 5.480539604353833 1.0003348159219763 0.47118473621262724 -0.558119133412342 -0.6882776314080146
P 5.995987467484853 4.3238308240188665 9.700408291731122 1.382601211899793 -0.017576318320866504 -1.2926218572261674
P 1.3706986621215962 7.934312952686215 1.3081372949013406 0.9120561661536937 -1.1129883924288186 -0.23731256467637193
Ni 8.840316051051882 0.44664416558138703 10.265222292415345 -2.745563823633052 -1.3059005766129446 -1.6959006736254405
Ni 1.839711024645556 5.620094621242682 1.63453514392559 -0.8706853165163909 0.02975640532682617 0.5280241137991745
Ni 3.928102793671996 6.076570779242001 2.720017665014237 -1.2747303216577273 -0.5727512815032201 1.9950701237076092
Ni 7.06199745238236 1.4820426166991207 0.14049016988422777 0.14066196863015776 1.5040675814381064 0.14108362954860865
Ni 8.377019535084312 7.548764835852014 1.6638083780446573 0.7308021350337865 -1.0154361105039416 0.3800632975147583
Ni 6.707283612462659 8.64152240544013 9.086948847189937 0.0741218188160788 -0.6444202679034321 -1.3238702737174877
Ni 9.003452386584001 1.043275458336668 6.192423901658455 -1.5852517064176053 -0.3331442643657166 0.16032010918071743
Ni 3.5746683461377016 2.5502984414674166 3.798777393309347 0.40530176036657295 -2.166759393957217 1.5711715741754553
Ni 3.8747917095260904 0.20808166615934154 5.497260986703258 -1.1605967383354012 0.4749066651489046 -2.078900942281336
Ni 1.6507935519082086 0.9894121184848307 10.969869278693738 3.1690288851722133 0.9620510100145818 -0.08311913721868265
Ni 2.1373400330954886 2.7193255045294698 0.5243005220970995 -0.7658182460976554 -1.086064571454781 0.5435924005510767
Ni 5.28484779495706 6.381020145660186 12.54306906306624 -1.8808110705510124 0.45838758444795896 -0.28131519550956713
Ni 1.7122780205018984 8.170706007610127 9.714849778441229 0.35621991523825747 0.39616457395199517 0.013907611220027661
Ni 2.9084914923344862 8.342328672490058 12.003029253350098 -1.3146104456821166 3.1509108354152637 -0.12640648715240813
Ni 7.9283669995856885 5.248923561286226 0.9542886555875972 0.8145067124422941 0.09432863278125689 -2.9230748427707596
Ni 6.611844622215957 6.636539656532853 10.44727430630179 -0.9351341310190799 -0.2832368380123122 -0.11992113653838057
Ni 7.854226671064405 1.6880524035350433 2.452489353816093 0.7974584987107557 2.327299075347908 1.906961760804451
Ni 4.212542095011935 1.4779467202134633 11.604492082312388 -3.472202571317769 -1.6228268364579017 1.644613336205374
Ni 0.27926282452300905 2.691399774332875 9.872383479836675 -0.6500432705171643 -2.462434714843198 -0.19679326440608688
Ni 7.229818757153131 4.800556357902334 5.265741588384189 0.23776456461212597 1.5351632744016463 -1.4879745325309859
Ni 0.6663922335285283 5.4275322608461884 4.3571382860697625 0.7208864185819714 1.2582675481160137 1.1378581590873047
Ni 3.324045502524292 4.6093378197236055 12.868591586796589 1.661872380396138 0.1664794439138939 0.27961209677553134
Ni 8.702767563227916 4.281463607112166 2.7701845733410404 -0.3928146836431557 -1.7561323647229887 1.05437058278561
Ni 5.316869421639312 7.664922619332906 3.942719161355646 0.38795118490326735 0.38528469381469777 0.22343709224586034
P 2.819477076800119 6.200110380658843 9.633496069974305 1.1014294839466257 1.302992144716898 -0.45116355589569396
P 0.4950981607936266 8.55051986936441 11.79311777995177 0.3712942930728767 -1.7174411188003778 0.9750751901883918
P 4.139635137567232 0.1474080930271944 3.1413749622472045 0.45749361187877985 -0.1545361555090887 0.822876424563228
P 7.054081787264011 9.099609309248414 1.925422030632277 -2.065893474278074 -0.4549392208880423 -1.4143512506178801
P 4.3416134577498555 2.5091093700667035 5.85100561785905 1.0721212219008116 -0.16453903235807146 0.18667314525294948
P 2.3360508403513514 4.217972609453593 3.4022614781553484 -0.8088947655721553 1.6944012062617786 -0.6790193460345403
P 4.815246359680107 8.244634638110803 11.442566107202436 1.41622609904309 -1.7170130301240234 2.034558925830851
P 4.48722487888042 2.094153636891657 0.3208357136393441 -0.6878210034865704 1.102905297161204 0.24326826803917456
Ni 1.3804643838548156 4.5092414730235495 10.300652257229373 1.3786561112091158 1.3845061422319898 1.2343138655138937
Ni 0.030522252440648844 8.542263646560736 7.814322514606159 0.28821629350477457 0.030686373340263286 0.8240874141521937
Ni 5.385247882295379 1.7323064941036752 2.2968011069046343 0.015521749784682947 -1.0299335327891683 0.38136093328025933
Ni 2.0681147803569946 6.378525790721729 11.724333411351845 -0.06931668411795158 -1.1548626640651014 -1.5981792131125507
Ni 0.1879988874131482 3.082829414435246 5.264677575724095 -0.17272876725771544 0.8657467415641928 -0.8008875789969627
Ni 6.653650379154959 2.781380637352622 6.509216183104205 1.90249292639982 -1.2004964027438163 -0.9628398244644644
Ni 4.9489934873949135 3.3942924283187588 7.8023063508712704 -2.1666218399380877 -0.09892936477806188 1.3635290257596904
Ni 0.43859043653655494 0.6487126875293128 1.3688522872114326 0.40616539391844886 0.08201844795533617 -0.36560906976264135
Ni 1.476989476989849 2.227210444974049 2.9837464569555743 -1.2418618530644807 0.5868609814317248 -1.2481356018883343
Ni 7.7640157015005204 8.668536913721937 4.06052634854492 -0.07526030329589618 2.396798050679995 -2.0505825549526167
Ni 4.181578958432718 4.9083106503913045 10.503221491017342 -0.38358750861793295 -0.7874736195839019 1.2599431360462237
Ni 2.3179000361497417 8.2569959616619 3.3500861999113076 -0.574146876299166 -0.3575815714724745 -0.15959094432417675
Ni 6.419632023766552 5.721433543281085 2.622902578700034 0.2242397906528138 0.7072659995850593 1.0718810808655475
Ni 5.497383403384739 8.068152123018676 6.267998254162807 1.416789684856044 -1.7571410084931611 0.9049432092579964
Ni 1.020936715031745 4.664222832631416 12.942535864542265 -0.6705712152671871 -3.8710058684441906 -0.04291711107850028
Ni 6.0516456383809665 1.0463496817663525 4.913263463647332 0.10888750443203828 0.24763811497209612 -0.6661154934886786
Ni 6.564691189191185 4.9953461496460845 7.440842105372733 1.7750831947938783 0.7612375687055084 1.3696012000956994
Ni 7.241646233521827 8.489817763020788 12.931623291793063 2.125353320206604 -2.6903568394436053 0.6263744661453148
Ni 5.386269555351351 2.068602606230567 9.923318944020897 0.6788923335383727 1.814000440684366 -2.564338074647919
Ni 3.0463069037496533 0.29638827396394 1.163564114497927 -0.47324136163133984 0.16924569380512142 0.3332342529763616
Ni 3.364047224157252 6.839604079603808 5.365322496425376 -0.05124697110043433 -0.0650576517312815 -1.240500968161212
Ni 4.286829691721466 8.413026607111036 9.548626333512953 -0.9692259304964662 0.24053569959935994 -1.1575348115806259
Ni 6.248303895263119 3.6562457181655263 1.2785382299157737 0.15053731876234075 0.021701139122517466 -0.42303594442154235
Ni 5.160737529310756 0.08087784813364536 0.01553771428637837 -0.6937851914898051 0.40582960784558497 -1.311428191299393
P 8.88811378240024 2.761490227677328 7.6541343041175365 0.5240972679409425 1.4783344383380603 -0.9269731924748422
P 7.155586386014193 2.9793735121907745 4.165171441409497 0.5290566688287469 -0.519129639523022 -0.011271716259077361
P 2.136438015442467 2.9815273094439068 11.895998415835898 -0.017256987308234793 -0.2987369905304404 -1.9719679904725071
P 1.450702105387517 6.702423762250462 6.299184133876749 -0.8751883465930669 -1.4972431023171053 0.7968846284851567
P 7.340730111427676 2.1648515715126346 11.181841586301365 1.2033444137155729 0.9490386569153137 -0.07246577126989455
P 2.7276093401184403 0.8001439633742171 8.573447685422325 -0.5460506322835822 -0.3808821938716279 0.31229493172053313
P 8.004532265695385 6.902386349106437 8.427053902041692 -0.37763566190987224 -1.35357114321603 0.6542781345341183
P 0.6469427079918028 0.675151929450776 4.073161959096629 -0.850379000858871 -0.23172967127195573 0.40927180075791453
