# total energy = -340898.3437719528 ev
CRYSTAL
PRIMVEC
9.01152477542573 0.00000000000000 0.00000000000000
0.00000000000000 9.01152477542573 0.00000000000000
0.00000000000000 0.00000000000000 13.18927740772484
PRIMCOORD
 96 1
Ni 6.423874495640598 2.0401281206627626 11.286723995795267 0.2960944107012707 -0.4220239582172603 0.7602968020587938
Ni 4.596184061619549 0.44289211490142705 5.998456628561643 -0.11780820396043581 -0.7519725984638147 -0.9160963976613383
Ni 2.631509438464679 1.719407951511216 4.696305707231837 0.8114905513237896 -1.414105196045345 -0.27520548306740344
Ni 3.2127257562440357 4.3505028598331315 4.778990052273509 1.1297123900517192 -0.8045938242039561 -0.13019192233676935
Ni 4.9274296917873635 4.607304283275435 2.5287014572967834 0.7823920912959363 0.5500420128311624 0.6210738798680078
Ni 7.239147148159295 6.074092158871358 2.5731751347004557 -0.04879233891235468 -0.5052091727871879 0.08820735037486743
Ni 4.998161150277684 4.43075950008218 11.458501682346736 0.040564037465291435 0.3229706662668244 0.4183490804688344
Ni 5.73100538506024 7.768502140468936 12.366596645355136 -1.076730952758681 0.4675977901923173 -0.09238179346753123
Ni 1.8913478455098536 6.447196321933496 0.5297064417785063 0.17552252795276868 0.08234446383618721 -0.8271326287364206
Ni 2.742161952008142 1.6194431064311907 0.29493369081417203 0.15364732514623214 -0.8579107904595419 0.5386602533567819
Ni 0.4699600320714327 -0.03296596017955006 4.591029469409527 0.7406294055368535 1.1050318565859034 0.515960240656105
Ni 8.543439207791726 2.0895473229001067 1.3140163960901836 0.4770085419832559 1.225988890587966 -0.29395011066475824
Ni 6.983706464968237 0.6205660421574718 4.885400841073515 -0.19986419002192676 1.256340763406946 -0.7119495211036577
Ni 1.0489595147394855 7.505041200167879 2.683226579536911 0.08226373119692285 -0.49628847325879044 -0.2943835986577511
Ni 7.683045850385651 3.7780727787754036 3.8057922291915363 -0.48289405422975545 0.7635366491523301 0.2418297358204351
Ni 7.5774938599031545 3.937829091186716 12.593016613942776 0.336906045400994 -0.37682422175217034 0.41374706292044877
Ni 7.7812804826958795 8.587424460548924 6.990000113918375 0.46787546933373614 1.2602948629586874 1.3573300960378298
Ni 6.777090223374906 0.7174976079754457 0.31000186150364384 0.30931270916375764 -0.3684149146425526 0.33415316524620514
Ni 1.8426675883096102 6.416773414064554 9.175595873201873 0.40325567647082167 0.42945058969863464 -0.3053074446591065
Ni 0.1939298169197838 4.760545263225479 1.5672816971842143 -0.608283927192191 -0.725954320023182 -0.8140061186567917
Ni 6.385088892717636 2.0625848405707603 6.967961528763079 -0.2662199917393415 -0.18721950467472273 -0.09263658979081466
Ni 3.3072115942197016 4.204209765536806 0.4196549969420515 0.4721923515415352 0.5851769088610825 -0.4408428906959763
Ni 5.999936320940814 5.793275021723269 4.795647855945233 0.21853322718633975 -0.8352238903849873 -0.2679511154978353
Ni 5.152032936966716 2.843298295317718 9.403400913157833 0.5542413956244906 -0.2892339361360115 -0.5336342608971003
P 0.2346402815491467 5.499057747134092 12.393726742046557 0.2146781151063077 -0.2009078007950927 0.3428679194113837
P 3.888346808275473 6.155871746818824 12.620661268702715 0.7235102293580636 -0.7371584162691176 0.7824085463561686
P 2.5131881172800825 8.483413440814529 1.3663697508163095 0.1186507544663892 0.28978415221252674 0.06425752442748933
P 6.3475739147974926 7.779757534997463 5.77202314268674 -2.0421621920994055 -1.0839524102077849 0.2022689428086775
P 4.827473858232181 0.9924212078764116 12.521530890823122 -0.4443023099994864 0.24905325015206786 -0.04971047985124987
P 3.947822872237266 5.98514840867395 8.318121348692348 -0.4968338042392991 0.8642403322219955 -0.5039971547569578
P 4.667537315324014 1.0470310484231486 3.780429292521769 0.38026744310576444 0.5229852658236864 0.07066034263003959
P 0.2619614225672321 5.630193456645002 3.5502767503442847 -0.0028323272424725415 -0.2891457472975794 0.6806615096236536
Ni 1.5119085804833008 1.0907369439102237 2.481325167741278 0.06391813881019959 0.4231405883202068 0.2797424517058085
Ni 1.9157690778335592 6.444555945154585 4.7862308124846145 0.01336819377678988 0.5434718158128125 0.278457671456114
Ni 5.924041258715629 5.660337007243819 9.230384141940494 0.2196444579726475 0.09677915120427849 0.5793443613397055
Ni 8.544637740595803 2.3677781524183414 9.960291520776817 0.22979902990814616 -0.1803114647009798 0.5065949973911211
Ni 2.293622314487797 5.211563070077565 6.954389271197495 0.17375515163970076 0.2677143168966809 0.09658631846718205
Ni 0.48413606180147756 8.97426218747133 9.153609554890664 0.45132939204959693 0.3927326654523107 -0.3747493415010127
Ni 1.4081588949693433 0.966422958705234 11.32906194181122 -0.25374319942856943 0.5321371075262836 -0.22687568561376412
Ni 4.173309246851202 6.925275737888198 1.763749159499701 0.019457337393663263 0.07657850788668746 -0.4707134530031635
Ni 5.480773363228261 7.8261218303131335 7.977204550063352 0.2349723465789695 0.26349307972648167 0.34796281743578783
Ni 5.29635250732249 2.931124616434632 4.709455324282299 -0.22282105592841622 0.2181802147222952 0.21981209389876338
Ni 0.6846938552430643 7.424144741654998 6.857659563535997 0.6581779838091569 -0.16037873033279476 -0.0027515946032081644
Ni 5.114950512239023 4.392893072693172 7.347772969765635 -0.27500750812398445 -0.2615156442851367 -0.56880438104033
Ni 8.117617624399818 7.030593428724784 9.174580274352099 0.7816017341841571 0.14078743846442848 -0.31605594142486215
Ni 4.628886885273692 0.30289357070772527 10.419937862665783 -0.3081536558586499 -0.29958365480145177 -0.6678265626425143
Ni 8.016093785522006 7.267091886696495 4.505444314520991 0.46684522829700886 -0.8371874418692613 0.4848614623687714
Ni 7.142516567271067 5.985427765944074 7.03663745843678 -0.2632495962571079 0.8895669839122422 -0.1569653337758716
Ni 2.410465745598192 5.239606935388035 2.6002926152570964 -0.18160370114984206 -0.39636332022636256 0.1766162752375797
Ni 2.3553692827099497 5.043561212435186 11.38002481825412 -0.8956399295791995 0.1984266862444518 0.9541816345688342
Ni 1.0590073649390914 3.25445812779056 3.8594198135304194 -0.15094740971656584 1.0663303262506474 -1.516239698024266
Ni 3.7935185323557845 2.6455764287441275 2.426326029321337 -0.8096244446493281 -0.6422561703725779 0.6833984489388425
Ni 1.1473563544968817 3.572375712716028 8.267751430584099 -0.7785567767102461 -0.6862078933631794 -0.5394338982980129
Ni 3.6239666924404617 2.6542815617421716 6.71555772944401 0.037965423500179785 0.23895395693453683 0.746418758525121
Ni 4.157818435646608 6.7646272845174575 6.18013888206772 -0.2621489069937615 0.38661678236256 -0.3737885202496401
Ni 0.9156520277414855 7.3321190499613875 11.347685159051137 -0.2906038199003447 -0.16923900893690208 0.0033046388932007602
P 0.1855707264756991 5.611981164937913 7.8681822213639325 0.12807307622155362 -0.876680100647245 0.9133854264880786
P 8.376347514158459 1.5883263111493617 7.820767182251604 0.20826578382206065 0.13786692238352385 0.8183119451209971
P 1.6216329069679658 3.0223753169917704 10.38320598625447 0.09642742429181457 0.5915673857684586 0.1674160967955504
P 4.062602664158683 6.145418378001296 3.95398675522967 -0.6544984780750406 0.8879052799391031 -1.095363994478836
P 6.876586469163112 4.0197889096310355 10.40498143488436 0.379382726507966 0.11951438801826512 -0.4674841474325884
P 6.393776002665994 7.772890753067329 10.121424794184092 -1.516824881103775 -0.278107744315863 0.6482247292511868
P 2.220710066985545 8.486882877878966 5.756618842120636 1.4750346845408662 0.4275880825685991 0.35638652272310883
P 6.956978282284801 3.954311170124007 1.727637275997566 -0.6090691420976478 0.3067590895039685 -1.2290855272354186
Ni 5.332813136836038 2.8974755826720053 0.41434270304728227 0.3052891898266613 0.0002391125939995882 -0.04007475653369872
Ni 1.3246671173017657 1.2569004504846928 6.899561351749564 0.48367566959078645 -0.6028524717639746 0.3658535816732796
Ni 6.812208135686892 0.6662770019220466 9.170082622303111 -0.14885761706707268 0.3092651437552738 -0.4383044405448387
Ni 2.703205130113168 1.6550386295598394 9.062181327294123 0.16923720916468918 -0.8364220244581466 0.03384548779453526
Ni 6.37089574109039 2.0042802748385182 2.632302452650836 0.3023841003647244 -0.4612695339814443 -0.1431435974014309
Ni 4.0076774202424525 6.6891647754847225 10.523803796850213 0.4175983183457389 0.8497498519153043 -0.7576110276965146
Ni 8.352863480418392 7.023573450872323 0.5422585947318974 -0.5983512414595115 -0.2361645671148578 -0.555209930185347
Ni 7.603239786378737 3.8877250130613272 8.225782957086697 0.010331720943311237 -0.16140665737667684 -0.0373136488487938
Ni 3.1723541249487575 8.277617247981883 12.366358741099289 0.06921461132244854 0.4061993324801778 0.24989605776833734
Ni 0.09938630518512429 4.9332601483605885 10.191856168897152 -0.43615782651548113 -0.7070957925557821 0.22192194115291455
Ni 8.573285378070734 2.4133314104981696 5.728261375745641 -0.1615706937583669 0.40971300206039113 0.008014642774360389
Ni 3.509484280838853 2.4790074035517367 11.41349992958728 0.38270073513760544 0.36197944342985394 -0.2696894383451807
Ni 1.0267010483780268 3.229595330749562 12.572282897584701 -0.18131496626482968 0.49465813674421905 0.07936532660320526
Ni 3.128981655880862 8.493127864594955 7.87643858042481 -0.8161169943522074 -0.26060573087635763 0.3324894043905371
Ni 5.79421222030691 8.088231041887786 3.4647835130091442 -0.6418072557606173 -0.33481573853086855 0.05609915698641306
Ni 3.218249820972608 8.4018951870875 3.7156571554099234 0.034155819946102464 -0.43705951239414403 0.0955103117941839
Ni 3.2658306721420423 4.155295208690653 9.424160762937953 0.4466127033002179 0.6995609176313179 -1.0412353309552327
Ni 7.1790042313591425 6.109489428453468 11.396089663591194 0.5918571490947356 -0.5010828093236402 0.21836302015706266
Ni 0.6539915901039994 8.919769496747547 0.20922958379771286 0.21927524755868688 0.524010107543775 0.3531975834721659
Ni 4.624074731007692 0.45457735916495084 1.5698409702395397 -0.24273116458878194 -0.8825918381459897 -0.19853235858438065
Ni 5.9653140424951765 5.620109560346026 0.4804890976976386 -0.4629350946093253 -0.12841323316979172 -0.5516571798370822
Ni 7.935296453782394 8.723642670071115 11.401286609967975 0.2508993022218711 0.23841505371193136 -0.19575788116303705
Ni -0.08910235303463976 4.958339221997811 5.739934003874384 0.5294631602385462 -0.24471245668486888 -0.5422600548928984
Ni 8.149500399293276 8.739349757871933 2.4087977123498088 -1.270707059430947 0.6863197363506954 -0.22094697883415496
P 8.50785269618792 1.676441001061242 3.489156984251184 -0.39457126132294623 -0.7449583719295105 0.8427405104770067
P 1.8070089845070627 3.19385562322343 1.593844968963029 -0.30347630498763867 -0.40114402944445754 0.30202131770866697
P 4.658805147751442 1.1944505833248105 8.059585206717825 0.25388383877149173 -0.6501908518386221 0.6981871772122428
P 8.450296087017621 1.6545790417928619 12.307825282636042 -0.3502878660245387 -0.3685887212162555 -0.0803927394264551
P 6.33931034651674 7.7095036873238065 1.3394234892316803 0.31400317266089145 0.21031932391697974 0.013012610209584042
P 1.706494436411633 3.3153850472520263 5.917448427140713 -0.8291283190102107 -0.3194623960032498 1.227836485319666
P 6.772386207407019 4.019311298814372 5.977380474259546 0.7129931318768237 0.0035504363554196916 -0.4346398472090579
P 2.4542707678585365 8.427569021364341 10.159950865191588 0.07688884003825468 0.03787774888237993 -0.7298081465516335
