# total energy = -340894.1157301221 ev
CRYSTAL
PRIMVEC
9.04842365035736 0.00000000000000 0.00000000000000

0.00000000000000 9.04842365035736 0.00000000000000

0.00000000000000 0.00000000000000 13.24328264098344

PRIMCOORD
 96 1
Ni 6.465080737016062 1.9587032602766279 11.58548877976727 -8.227530116114863e-05 0.887583120712994 0.24568793322426075
Ni 4.614252785762981 0.302209212683133 5.99198932558252 0.19008319937576296 -0.7548044114856549 -0.3047014356439914
Ni 2.9126785857549407 1.4114455379940343 4.579288771201843 -0.43307635937667993 -0.11314165172270191 1.1096068775510954
Ni 3.2309026037929445 4.073600412883775 4.468972197426195 0.8705109957220555 1.0506545673866035 0.9988368113843636
Ni 5.08995557231682 4.42141277687942 2.6955109845344647 -0.18989396618309234 0.9888475613821357 -0.08493844981560855
Ni 7.168043736741801 5.975434329324386 2.7080792452485816 -0.030689972884689082 -0.1220196709386221 -0.2657692773551681
Ni 5.235065145443024 4.490461299204422 11.704426691777913 0.07180602619870859 -0.47093739608851154 -0.824024165014426
Ni 5.635675062546571 8.141862255701797 12.562233558997203 -0.3523069533370965 -0.8157840364928208 -0.7627190383470412
Ni 1.9195869240151961 6.493483739450629 0.2932422246574382 0.8588574706435274 -0.32038259382467404 -0.0753250950955606
Ni 2.607710508642913 1.5498683259022883 0.4469315132689741 0.3325714225813821 -0.3219311692587165 -0.006889528030981682
Ni 0.37291540625567055 8.936476740505501 4.908013485106466 1.5229011692048418 0.9552445286157096 -0.6373793018962507
Ni 8.93471229785665 2.3459034132489127 1.2615873520364633 0.15829947920626286 -0.20115179848509873 1.6305535156781985
Ni 6.946420691622382 0.6267146465510437 4.716277383931416 -0.8116255342397569 -0.06810800852183109 0.16995069029194604
Ni 0.9027956305530501 7.420838601990906 2.489286547106395 -0.7635209654230464 -0.6183120008521544 0.5204663560565747
Ni 7.953103085970193 3.6831247304813175 3.773607159199121 -0.7217459383687893 0.7927739487508928 0.3523434630019867
Ni 7.983650564854901 3.872345369828775 12.926648875897337 -2.0233445451722702 0.1988241787931866 -1.4620475282525789
Ni 8.136116506563233 9.011632948922678 6.968192104224425 -1.8495330863733375 0.5235907606181692 -0.17350652596400443
Ni 7.015387778132823 0.6330286367067751 0.6082983895089683 -0.0313322344543783 0.7914552299394693 -1.231941765737291
Ni 1.8282340369239598 6.607783429400758 9.055187537077755 -0.17276270581944442 0.4542576214399854 0.7331135567757825
Ni 0.03375876450561545 5.086942447178015 1.5130321924486017 0.7660830697232677 -0.8143298205447976 0.06644321922489846
Ni 6.34216694757001 1.7826661744644248 6.949664551569115 0.6423592716093454 0.9743539957516509 -0.010889650329310276
Ni 3.562988807154223 4.229685724128211 0.4016450567908711 -0.6397647714092918 1.1810177251939145 0.0340311214427801
Ni 6.048075075913971 5.462605859753972 4.845187563856408 -0.21966734079078296 -0.5195150478868988 0.23856623457781495
Ni 5.587012639133667 2.9247582315816842 9.39270550927034 -0.7834668124173539 -0.019548868666205043 0.11974013087582602
P 0.26237986062308905 5.522424989761911 12.489210064079176 0.6201058595277836 0.40724808545966645 -0.6381709445596105
P 4.0041085177906 6.144359353998148 12.462723517813975 -0.3034737338844773 -0.2106067732504115 1.2067506111836444
P 2.5008305262417956 8.31677733695781 1.3067263192059702 -0.38396957454770003 1.0680123419387606 -0.32166943095689765
P 6.472011829677699 7.729697501354244 5.96835031829985 -0.9297227301955213 0.7177514724974154 -0.07607225767423027
P 4.669411977493189 1.2064353990453278 12.519829025512223 -0.472801960101076 -0.13898818047216063 1.3824258626641932
P 3.8833482532185277 6.260866859365299 8.285659807371164 -0.16652572377079708 -0.044140699072956244 -1.2652712331273566
P 4.856135251860735 0.8921012984162502 3.503152485140986 0.7049530351811666 -0.16339926232667343 1.0538419639756493
P 0.15353184603671552 5.498500957128272 3.696835807126459 0.47145598759614293 0.38401662573555156 -0.39403852874792783
Ni 1.5195832513089478 0.8261446225174637 2.6235606326838914 -0.06736907347327752 0.5005747593389701 -0.22552997021914709
Ni 1.8798010043895852 6.4004026034059045 4.689076012182835 0.08329242957175333 0.3984145463284364 0.43940950068355944
Ni 5.7399762441532145 5.699547886434945 9.376031978659897 0.025756283028497577 -0.42430606938321763 0.45928078568618963
Ni 8.45120976995251 2.5517007650717214 10.32035806495496 1.371977927857992 -0.67460424768598 -0.0017943728962614256
Ni 2.009935436060164 5.310112772774118 7.00046511753547 2.131768222594012 0.8469473494695027 -1.2089116233907051
Ni 0.3508861135741804 -0.16245630647036113 9.16982111386759 0.40826829919406454 0.7645280665313221 0.457675903092915
Ni 1.4757526862267418 1.3935839493333668 11.493858106064136 -0.7165250562894822 -1.099148658332249 -0.8371771574566162
Ni 4.1955188757074 6.7842729364049745 1.6374389718282973 0.3844058907541702 -0.06699600640457494 -0.7279420398771722
Ni 5.48543503310294 7.920555905416788 8.087236016135781 0.3093001107582673 0.2612950436338984 0.1318130028799601
Ni 5.191840824758116 2.7962887098977123 4.683169201099916 1.0763157195981334 -0.27717700497147746 0.775723163916193
Ni 0.9175825647927984 7.799696108182473 7.10707364722138 0.9732797888508659 -1.3324220199422407 -0.6722195495038874
Ni 5.013378761356725 4.439591060374497 7.147902850115773 0.2919575057147617 0.48880810572134537 -0.041435898547283474
Ni 7.921026423456481 6.9536594306945885 9.378005439899457 0.1952536878331089 1.073961360433344 -1.0400058294235057
Ni 4.727720020719806 0.5437351708815813 10.492560428743664 -0.322486013320922 -0.5224720736326938 -1.2882589522717813
Ni 8.082386965799786 7.1651663379606 4.643413141272977 -0.18738791193178694 -0.5556483032743463 0.16260710544268125
Ni 6.832980601937078 5.958549970438467 7.1477571704919445 1.1425218831115613 0.7920676667124875 -0.129083519763939
Ni 2.5115710053401807 5.233074492198168 2.437373025007688 -1.1465932249674575 -0.19087767025260033 0.2511695251641223
Ni 2.207516819036019 5.4475492824837835 11.149016339615248 0.11417934895859692 -1.1424043836970905 0.9459790441533837
Ni 1.1903201561858299 3.129786467378071 3.8938163747593215 -0.13297077063348714 -0.3202861774561258 -0.890584626543479
Ni 3.7555754601702565 2.526356129895161 2.55841650524596 -0.6779857625637032 -0.25694242309215753 -0.550807173131961
Ni 0.9684075615035228 3.5668524841340123 8.037083317316387 -0.42212345990960204 -0.8668736560797845 0.9209886927566333
Ni 3.8482222718706494 2.541213641840863 6.814953427120134 -1.090724695934612 -0.4890672729200029 -0.05002441154724288
Ni 4.23669825260441 6.813001682097791 5.953398702746209 -0.22834429973949064 0.2512677413048834 0.6512367766046332
Ni 0.7610403081444294 7.396208792297726 11.390375806815035 -0.6739768985146263 0.3844305733445186 -0.035016882394817116
P 0.09548530225908176 5.8689705744199205 7.806610913681197 -0.9666329729583094 -0.24190018404705435 0.8986470918366394
P 8.647071952398717 1.7874165969805598 8.226807049029363 -0.3980126829043274 -0.2439056445128574 -0.8044632121633629
P 1.8521942632529607 3.4402831314564954 10.295129249603555 -1.2268491817057323 -0.6976757847934629 -0.33600667351517616
P 3.9488497933981495 6.15886397741408 3.8499948581009553 0.8815171170245721 -0.9241961439503373 -0.16141848445121879
P 7.06104612483076 4.146630241698491 10.5890111978265 -1.0205811450399909 0.45944482206787973 -0.2889156335646444
P 6.115712044119893 7.769374839893771 10.373808009421744 0.6243623208112924 0.11004192975145566 -0.3042944300135598
P 2.4214215586196985 8.407867819757678 5.6591068609233 0.6718169147488301 0.912250541552687 0.34911441454172776
P 6.974760355090068 3.9973402967580873 1.695696343881409 0.5745718796517266 0.4301635566052592 -0.6209831199264144
Ni 5.319477891448784 2.7705368956483407 0.6570458681059697 0.5951764432759556 -0.3920338396130732 -0.6336360328037345
Ni 1.3885620741020241 1.2899975932101027 7.062655839431941 0.7074408346000268 -0.6149772800519667 -0.680974155768066
Ni 6.9914366002276624 0.7282135312943604 9.123601764891555 -0.8320958862789668 -0.3946162556282688 0.6853267763098068
Ni 2.5249626726237615 1.6036069150895758 9.106769886863908 0.5641812804460219 0.5814873758246373 1.0530400368996444
Ni 6.583850348343279 2.168563354403712 2.651053363680129 -0.463744220774182 -1.960456904509114 0.11759454528773296
Ni 3.8940525386215517 7.067678619505669 10.508545374299862 0.8970668918337131 0.4519156035703701 -1.1916469227729864
Ni 8.04336111377676 7.070338856114704 0.26769399994447207 1.0020560896526096 0.7243113851031202 1.0577767802536813
Ni 7.52550172055116 3.957581522403997 8.29577775490934 -0.015879647344733943 -0.60202329099446 -0.4840572212999212
Ni 3.1009219953276506 8.561229555426197 12.213551641470511 -0.1387495820987933 -0.15138989657062313 1.5229111965071707
Ni -0.01975361408566541 4.936955773601912 9.945254749814715 1.3092247558901708 0.2859778910925591 0.9026556987754003
Ni 8.692377410566884 2.1921435469314225 5.695803648649847 -0.4751905149379107 0.7762258145842245 0.1872094773723937
Ni 3.5223885293829893 2.869427119798511 11.570563404642764 0.5115633971399899 -0.2712585826045135 -0.46960427909938474
Ni 1.3221556915383768 3.433659685205427 12.63139066240829 -0.3438235984564336 1.185367774632494 0.2907539723249638
Ni 3.11883787453136 8.587515226682143 8.011895219872263 -0.0034146821085037967 -0.5936718337059711 0.00825144137551482
Ni 5.665200069537329 7.669344514339729 3.7110065437026853 -0.059362144008400994 0.5768658178922258 0.03267023653951148
Ni 3.295960771204394 8.308669949196938 3.444140474539597 -0.43478460031703836 -0.2803734004215881 0.46866171268045737
Ni 3.4446897138667008 4.2765294143492225 9.07403268940986 0.10211778980837251 -0.22616117604524275 0.05584076111870383
Ni 7.328237032409715 6.181195487451834 11.574973606422507 -0.4513021383560873 -0.9339398536006626 -1.1733614942002375
Ni 0.40351355631388414 -0.16420808132583492 0.4464048950014712 0.9970666068578182 0.9564933134211462 -0.5250496045518829
Ni 4.567309562879726 0.20016380313986482 1.3574897866345808 0.21551783739878366 0.402852527495132 -0.05075460484504807
Ni 6.065348517025021 5.540485643747065 0.38523393047179666 -0.5759214517010857 0.3770851887230409 0.6808396870727307
Ni 7.899789772703397 8.96208377997343 11.32381469620372 0.10862370924769035 -0.2781784496527983 0.44322501777490764
Ni -0.21069254912038804 4.906770231670814 5.858087130224859 0.1623304547425269 -0.36791586351894706 -0.19557764683143092
Ni 7.77707504858183 8.733466303225493 2.555424191481987 0.7655986738876814 -0.9527682991610752 0.6554559568923034
P 8.653116299524008 1.4495755960568781 3.4268190767821927 -0.4855584884357961 0.8090158645310519 0.9962852486071035
P 1.8712411954367019 3.2880976908872106 1.6435837564582159 0.38665843423377283 -0.022682786309496418 -0.2171312046324906
P 4.689399945756317 1.188320454517133 8.294943490231269 0.055333482464982126 -0.702996425675428 -0.16068572005025228
P 8.513281957496673 1.767546258227355 12.47800630568017 0.41336473988036554 -1.5516327328115793 -0.251068995030516
P 6.320550263015634 7.564762831594036 1.3877241900544164 -0.9418760777286037 0.5646541063173823 0.509544052717116
P 1.9310603254446421 3.2975171001049177 6.015376786682433 -0.7173997455849516 -0.677053223447105 0.042222399004320836
P 6.9294639453457405 3.7718807199303996 6.053372023230057 -0.8374936602557705 -0.18592238312985399 -0.5476575717593858
P 2.2299750070075377 8.625192863552975 10.2408450404587 0.07061252011123968 0.4619768444611141 -0.6848346671647366
