# total energy = -340893.99602180225 ev
CRYSTAL
PRIMVEC
9.04337445930111 0.00000000000000 0.00000000000000
0.00000000000000 9.04337445930111 0.00000000000000
0.00000000000000 0.00000000000000 13.23589263949296
PRIMCOORD
 96 1
Ni 6.311995008464494 1.9968946383063868 11.279018676315898 0.7236596104517343 -1.0622690116970803 0.5360032753499091
Ni 4.570412917103559 0.2736434669177673 5.987203120100539 0.40996779838367464 -0.4127265920757343 0.5810016944374703
Ni 2.6705446430709663 1.4520855890650377 4.895295239211827 0.11031472379686807 0.1144184615525965 0.006808538281401177
Ni 3.3102186900970194 4.321702033492982 4.967999447952545 0.6408562047012576 -0.023999191128074797 -0.6433054375726985
Ni 5.165801559539364 4.313852384486584 2.683193610888074 -0.5886065033679218 0.6392441230191314 0.39783733366872776
Ni 7.084434835516977 6.052477292408472 2.3854124732756308 0.583694410778285 0.34279130053717743 -0.0020717949273641742
Ni 4.870463037360825 4.539584053667137 11.13887712010327 -0.5531201375358539 -0.42717927716595455 1.263587160556714
Ni 5.8937660711385425 7.963034835018904 12.418986666282496 -0.8207547502345348 -0.18097583775785606 -0.07624297892413967
Ni 1.971265715167983 6.526540023473488 0.02518851080359752 -0.22067547034032314 -0.1296242227587574 1.3204687042351064
Ni 2.725664010229953 1.6445557270871418 0.5464911168855772 0.35227995675390295 -0.26892762047849167 -1.3324135353018087
Ni 0.45650592394402084 -0.14824622837798923 4.506979975829845 1.186899123675356 0.5856949861480817 0.9371344492785602
Ni 8.812316214614441 2.574350269244855 1.5423384658897616 -0.4442076934031511 -0.5294222796982817 0.8836616741714006
Ni 6.806124987392641 0.5666786416286465 4.865262192725363 0.0871043471186758 0.5881753293677742 -0.3284705130391311
Ni 0.6981177586259995 7.344341416673546 2.2768250591288184 -0.45573806264025385 -0.6415694287181982 1.118760004805273
Ni 7.557991137613837 4.013711830485004 3.7169426464714275 0.879783422162917 -0.7298343718038787 0.27905262472763553
Ni 7.752893943357971 3.8277167485557366 12.758011017326488 -0.10901528825915417 -0.00399909385706408 -0.971217249894882
Ni 8.211121725793717 8.920294105324581 6.833691001334238 -1.188956520425017 0.948403080213844 0.25908003826045056
Ni 6.9468941537908035 0.7743913872547655 0.46866835821672337 0.12242487679684076 -0.38201013682848406 -0.0608631540339597
Ni 1.9337628414012367 6.530627628716451 9.158245182036756 0.13429386032028484 0.9597879250120179 -0.32093306701150537
Ni 0.2183387105829378 5.010843338658439 1.2880577679669258 -0.1909802572687356 0.11254258468612231 0.28504355220374783
Ni 6.302372858069554 1.9300007976378013 6.993197135216682 1.014699489448233 0.7963369835118027 -0.28200245138457886
Ni 3.5838802437636494 4.424416680284086 0.5726327993542373 -0.5674131571197583 -0.9284443777037301 0.044384182542330015
Ni 6.103680878438692 5.813777424293384 4.710190929664046 -0.5667544404898368 -1.693822450940173 0.9127835312380216
Ni 5.207446298795662 3.027043506528625 9.21509273804957 0.18175153958161602 -0.25175445113331485 -0.3746475258158257
P 0.26243963033478634 5.669508471990296 12.28990967868661 -0.7868773807607996 -0.33220246927773756 0.3330794725660522
P 4.058784008650779 6.084328057155634 12.441182724486767 -1.2305531129198806 0.7319519323675137 0.2982199416847058
P 2.3419265029851126 8.307198535752223 1.4585425584090113 1.6485869761411414 -0.09540772477804858 -1.5255100675825986
P 6.432841620990424 7.833244325180383 6.050960718516337 -0.3940806948397729 -0.7694998087143005 -0.6825759530375469
P 4.982456186318478 0.9640598878780419 12.623362406743455 -1.6507654718496987 -0.17929330784911057 0.07971242552997884
P 4.066715048027059 6.155906365779652 8.121425016496522 -0.20041749142223547 -0.20647963845591535 0.32592537801977417
P 4.7797579918145345 0.9093474725684648 3.8465758015948426 -0.5346318489236792 0.20723528567501728 -0.5608820408694598
P 0.24018298152182763 5.518339424996099 3.525167943943093 -1.2230825155744485 -0.07915321059239916 0.03869176014324304
Ni 1.7211078916483928 0.9141947212636603 2.551191996001092 -1.6513707095338654 1.5174005511015867 1.0768157991630034
Ni 1.576576681486796 6.484434072121191 4.888491908627134 1.2152730468323587 0.8341921066863633 -0.2895218996900756
Ni 5.9454127825158976 5.477481459315327 9.279340487359548 0.4522027957934857 0.7370887393734467 -0.7801341484996951
Ni 8.783612544169383 2.4638131035706468 10.484216392969609 -1.344535258266007 -0.0569206244464439 -0.1872884102394452
Ni 2.394450421682307 5.405306287978843 6.9375532523406775 -1.219880463697383 -1.0934685772283363 0.6490677939777725
Ni 0.37590956233707656 9.086963496094087 9.251995131754075 1.0465963381568297 0.24553495258616423 0.2500402966556855
Ni 1.406470808433384 0.8729759249430783 11.523141856077459 0.517356092562367 1.068999388442378 -0.1421166987988133
Ni 3.9686215655703676 6.711368510101113 1.403030708799704 1.1063744866567267 1.1506018319062183 0.9218199304086769
Ni 5.644358847696753 7.716901313121257 8.102046873765056 -0.6564198634674694 0.6353956958073186 0.025797163568762025
Ni 5.1682794441335504 2.698977012283083 4.942361481439711 0.034943605954720465 0.6422368870988682 -0.13579692722837258
Ni 0.567502493039341 7.247911915112221 6.919340800573412 1.4199539415166382 0.4101660304374097 -0.43976534136108125
Ni 5.146313087639837 4.573632358401114 6.923800992842946 -0.7030995269121956 -0.23335589402146906 0.2737522955606447
Ni 8.139796631653779 7.1632297569372 9.059346839255676 -0.5233488198106923 0.4747076617642212 0.16985453103371392
Ni 4.614644061447219 0.289397025177153 10.479742635638429 0.0762604624256364 0.10646783924695212 -0.16160463232009586
Ni 8.06285560199198 7.057042454364464 4.733882761999258 0.4036439130481758 0.3213210464785434 0.008358913487656572
Ni 7.129488926933889 6.01540850061443 7.144350808474345 0.8278859619626775 -0.07585885611184355 -1.0782494462857366
Ni 2.3026420844553934 5.322505151685538 2.8226469663064764 0.11894514577835645 -0.7815024896021315 -1.168462514236723
Ni 2.33750429288819 5.356869974524612 11.163773529912737 -0.3350170559083972 -0.7710013329604914 1.1772585152617985
Ni 1.0487691761763573 3.044045050459535 3.812850345328065 -0.05187637715431711 0.923278003011442 -0.35063136540688644
Ni 3.567801124024736 2.5759147730214758 2.6166434184478793 0.7693576267094814 0.03270083266713078 1.147717311269572
Ni 1.126903931263092 3.3419428476021427 8.31436450565161 -0.4990382680897857 0.021321387185595536 -0.5219236573283915
Ni 3.50232709314187 2.8036178978280613 7.226651846161596 -0.4428082419524632 0.19760676144631775 -0.9788187163912238
Ni 4.099216935733278 6.746610540260026 5.884505655720855 0.4443699300126282 0.7147944467516206 -0.025866840464432873
Ni 0.7836355245984762 7.556842629061058 11.306920199448896 0.9505229547703243 -0.9042754937670104 -0.384801326420376
P 0.2736036760702694 5.537004949822375 8.001454706952988 -0.3905305155946694 -1.4122077219123164 -0.291430172456382
P 8.50199282100318 1.6611231890453475 8.104257978813518 -0.1864044649725951 0.4852967501339771 0.380000562597623
P 1.7568653941498917 3.092110585562081 10.51160153942258 0.7116520444678969 1.311404022929677 0.48082560173650096
P 4.088789925013948 6.095505667952764 3.7452547388036077 -0.011331880073051451 -0.5603135699604995 -0.35231595219816103
P 6.804117358268885 3.8361903903978973 10.527855196288018 1.746571974728063 1.848616488096339 -0.7727270574023466
P 6.344017597325852 7.785233050324425 10.224144318060947 0.7697134673870034 0.40747228565533045 -0.08024515810499729
P 2.532615096244244 8.383407052085081 5.770492216915241 -2.1599845371272286 0.4100127926889971 0.16085052776289072
P 6.95033063607471 3.956123622106263 1.580193126921887 -0.08684338014780528 0.296822804226863 -0.7385265002612378
Ni 5.478901269101047 2.860943848348294 0.2512394111015779 -0.33013016012974117 0.7397809414936292 0.6991670246270087
Ni 1.5009198109942472 0.9251100742022818 7.268821101134911 -0.10896360908561234 0.8684075762258077 -1.201663169358408
Ni 6.704549805779886 0.7534623058083268 9.096922964355315 0.5514982856617148 -0.2844563122417101 0.6804054277487894
Ni 2.9739588986166883 1.762915411644455 9.384022972426909 -0.7519628282718017 -1.4734082046810366 -0.4807147871902495
Ni 6.350393176299943 1.851233006340873 2.588649652895682 1.3099282097150988 1.444114855033558 0.7818722142367245
Ni 4.2849949766761934 6.900691553821113 10.419175539722005 -0.4430771793431337 0.2223952812449073 -0.45652096355286537
Ni 8.27453386730624 7.401929625052289 0.3264287391360269 -1.3074843761602963 -1.495644647481734 -0.7137850316504997
Ni 7.54269879145045 3.8686922781041155 8.257092815377966 0.8445233134090423 -0.8381451777968405 0.03449931932845026
Ni 3.2219101387750326 8.469888841771938 12.604620013234513 0.7903288296445099 0.048602334388735645 -0.3727420812629968
Ni 0.0063014233037542635 5.170766372102167 10.07731880380612 0.03562032030677091 -1.7327697787376481 0.7338272950133555
Ni 8.684732288137166 2.231624465046119 5.946568525768221 0.11280817964268314 0.4510663681961974 -0.5848421512294831
Ni 3.5983044259816293 2.5146097377514556 11.648631337036436 0.11086905363844131 0.16946372335319848 0.12451801188044362
Ni 1.1940057695435982 3.5941716038665086 12.665994682487653 0.3003616706180569 -0.5489634350550029 -0.3532991420470367
Ni 3.1275153964607574 8.356032757681431 7.855595025087427 0.745959045279883 -0.23007105262261024 1.1846805187574823
Ni 5.4855481493080775 7.75220664690119 3.572354463050913 0.35100340403432456 1.2118737913428226 -0.6042984601818818
Ni 3.054218846694787 8.402280574523278 3.6033397768649964 0.9492456307197974 -1.3660451073133248 0.258493055408729
Ni 3.250586679096796 4.4287846301344205 9.244053240328476 0.20371107457184273 -0.6018831658721698 -0.8059719354984055
Ni 7.282258651202431 6.143878677785976 11.366296282952714 0.11189929467516857 -0.5140925913197468 0.22327279875385417
Ni 0.524467787132947 9.207330809775156 0.5607561357135651 0.5974333576309324 0.13045854573459467 0.02944478762367832
Ni 4.749109995866739 0.5140290200268568 1.592608775678667 -1.269454675081085 -1.4736997677795265 -0.2337942671104683
Ni 5.90649009896343 5.562245007860231 0.03056298822813994 0.7991878226970366 -0.26211985352803885 1.4564314676173822
Ni 8.09367542205397 8.928369838691763 11.286775178565655 -1.7949480520386054 1.0493528178560445 0.4796549784671675
Ni -0.05068540067530356 4.799345940832806 5.785210308802239 -0.013531458827531534 -0.4239214323502893 0.2899258199967136
Ni 7.8258016280233935 8.73698490560142 2.7521258281534826 -0.19332896000657024 -0.22580687802961757 -0.7239218629741855
P 8.460085823888372 1.6276084434028197 3.6425970652714215 -0.5878819664970714 -0.4774119480692617 -0.059551377201071634
P 1.840028265420449 3.297386141778955 1.6289676625798495 -0.009946055469118356 0.9029089524367869 -0.25178530437125024
P 4.677640207735898 1.1922151814061939 8.154964179250014 0.12672504683409144 -1.4474130661688556 0.013214698918061112
P 8.604589903926675 1.703672265744779 12.766376138675472 0.3255749366588909 0.5950041793641494 -2.536516167339644
P 6.257481547392407 7.818530754980601 1.3838650853673757 0.4720036325694968 -0.5877066172614718 0.2558643595366303
P 1.7201131204609459 3.2001336931443776 5.919527931881086 -0.023425063792159657 -0.10901271715599291 1.1473018209987078
P 6.878309202103559 3.8938057288999333 5.885181195790876 0.36574636667145394 0.10468606475618099 0.08448130767353193
P 2.567658172165667 8.442161855765466 10.173821556700341 -0.9691133161780019 0.5519335734269205 0.3203196017972225
