# total energy = -340893.7580749853 ev
CRYSTAL
PRIMVEC
9.06261809944013 0.00000000000000 0.00000000000000
0.00000000000000 9.06261809944013 0.00000000000000
0.00000000000000 0.00000000000000 13.26405765200963
PRIMCOORD
 96 1
Ni 6.491779810567217 1.8922836927738742 11.452691320102378 0.598050422389641 0.30075016430572726 0.5593293516703594
Ni 4.608069354383991 0.39122959230832727 6.076477186170369 0.36971126485647293 0.06393407964979958 -0.6259389212697929
Ni 2.6700013156735865 1.6609966198035242 4.9716869622902164 0.30444741065165637 -0.22748040907729858 -0.6547144507405885
Ni 3.683365130782657 4.460403057335331 5.202959535071829 -0.8002684573557249 -0.39653378436595577 -1.2657797973326588
Ni 5.331465645228366 4.315528046618509 2.9060752634506812 -0.5118583026725895 1.0422974536711598 -0.3924683560473305
Ni 7.242445518854786 6.020269923317447 2.544404305882376 -0.05684117735876017 0.8114072475813638 0.007250253804510093
Ni 5.004848893931339 4.421841617913331 11.488265720644591 -0.12372456944487077 0.7822977318099171 0.3927308656800978
Ni 5.404374406720724 7.597355763424546 12.550464358895702 0.998297651051442 1.5085556991164473 1.1335682734626993
Ni 1.9315792042506752 6.774397551665935 0.26242713454448185 -0.38199496731983246 -0.4898576300317821 -0.2046310152829508
Ni 2.8088678106825857 1.5959904611727371 0.4332946398338622 0.16483188100814194 -0.21400165786457337 0.2325866199556123
Ni 0.41789000182457564 0.2053407977493903 4.856170302456489 0.12454166602952746 -0.02087041569110599 -0.30033133160075376
Ni 8.663400576738102 2.225217088789381 1.2624090879730534 0.10287677946158412 1.676304753771384 0.9323820221952394
Ni 6.869835981408136 0.7007442772520625 4.419372054519091 -0.5325813941525538 -0.5354602583622454 0.955371026891245
Ni 0.904125736998389 7.398956931032912 2.326701190973045 0.23887245296432405 -0.39426889959117906 0.9249085966363296
Ni 7.797721183913613 3.9192197632051076 3.7159388985181425 -0.5693170590106905 -0.13419461573825922 0.16443593112130392
Ni 7.523731055113307 4.033608127102751 12.698279282878918 1.025030953281228 -0.5431900229063354 -0.3030178772939814
Ni 7.696446428204838 8.985241328369936 6.675561546450334 0.5699042989727282 -0.45539070660316405 0.2144641993232887
Ni 7.096356117331255 0.7033180607528492 0.4059092208807724 -2.3126700125808237 -0.6774136921103172 -0.2971429065704431
Ni 1.8205802594702651 6.552263722835706 9.211370865458957 1.0997402691696607 0.33811549232806287 0.42195453843190556
Ni 9.19311965914827 5.171401686809717 1.3784540984338793 0.010368487718517626 -1.2230205519882615 -0.5797017446791242
Ni 6.434050934158725 2.121286986018174 6.932831145113485 -1.4063183530110748 -0.7798389858567795 1.2838785638158987
Ni 3.31324781327515 4.0349131440890655 0.5445609318441076 1.4757345388213683 1.7047923196881156 -1.630834537253727
Ni 5.95928756706113 5.577986978990345 4.954960994582287 0.43166765195461143 0.1606517814885233 -0.5127016245094912
Ni 5.088741548391844 2.810725647364492 9.559565710119971 0.7705020247265698 0.6766176785715832 -1.0535192905289081
P 0.1094256743024644 5.799486424563336 12.447774022261495 0.3513649011388013 -1.0986994866099724 -0.7422561425069991
P 3.852509832397743 5.962314481459942 12.6804259254967 0.24849172122164298 0.10729830556804747 0.4594036844172991
P 2.5526222878489726 8.597306903952052 1.4908006545050183 -0.4572280169222191 0.23165228106680105 -0.5826937374279126
P 6.296734146820973 7.657350294323168 5.559722178752719 0.47140096598849135 0.7989564234125208 0.8681584363294791
P 4.928006956244117 0.8688712468701826 12.799776072727726 -0.09379332910307718 0.7585710776169388 -0.7937627950267233
P 4.033309060710054 6.36541066572577 8.235123002207182 -0.8340429827030087 -1.4939209799224078 0.34561848557332736
P 4.532632122480649 1.2261993979118084 3.832503196988106 1.2354253534105175 -0.8518388732338492 0.6765521154409703
P 0.43296294801650725 5.57316566623535 3.5368479736913896 -1.2870070821425512 -0.12651421637486598 -0.019313098506315123
Ni 1.3893446464370323 1.20746696658742 2.5788241288964184 0.534285521327854 -0.1700437642263846 0.12645533811247256
Ni 1.8018568907638373 6.44115602663977 4.896094759619749 1.6621498024272405 1.0082825301782958 -0.4772903348897329
Ni 6.111965491841956 5.61174523089327 9.223719588691957 -1.1464091339811096 -0.40957082005557205 -0.06499723080699128
Ni 8.556733563342819 2.1466895041615026 10.122598069891204 0.43913619241751467 0.7977114952618262 -0.09895276181682958
Ni 2.280934064010639 5.241491974116355 7.059715046655089 0.028924653454150184 0.003465332840781129 0.7961829744324417
Ni 0.682027252378207 -0.29541778270615127 9.0400384478682 -0.22334170431857667 1.1308609018338653 0.21963108823620883
Ni 1.3755332166652048 1.1220789801634306 11.412633642455098 0.6097168029839758 0.09543497847155823 -0.2525052132564103
Ni 3.938423450663443 6.611515119061565 1.6059058714833385 1.3219997961676524 1.5581931596379166 -0.1945656606271488
Ni 5.717333792751252 7.685544098798336 7.88731241254769 0.12107710451969471 0.7727597104124949 -0.40502690943863146
Ni 5.545488430983931 2.934022564717323 4.867763203351582 -0.2135411732883871 -0.13841071070213581 0.022260354060097146
Ni 0.7779015940443107 7.32228718308694 6.949822647527658 -0.04664392511078419 0.8281883236944446 -0.006072431446325025
Ni 4.940585869973314 4.549996098493 7.164474378969684 1.3429923392589191 0.5204427019074908 0.6570338429023845
Ni 8.180915859138146 6.919236311910914 9.257635530147393 0.6118603316895398 0.9058747199333302 -0.28819366779695527
Ni 4.828544724127445 0.5356415032473668 10.531078355487377 -0.8940347898756086 -2.0441681667858407 -0.13079973112409735
Ni 8.334500045715025 7.2379867108182125 4.556840187576782 -0.4169043776025078 -0.2875838021270983 -0.17431282391538366
Ni 7.616940080837223 6.256913003502463 6.754416291586587 -0.6943336077941075 -0.3178711402567299 0.9490962496261267
Ni 2.4461184015769786 5.14163098680942 2.603469012178248 -0.9593456952682768 -0.4065132641761709 0.6310978397629131
Ni 2.147369200508541 5.334374745593692 11.455967456495104 -0.16277139893468742 -0.6445084567418642 -0.09876969927174602
Ni 1.0575712655204716 3.3313549239602627 3.9246355836983122 0.7260808182987173 0.30213804579218934 -0.8537322336018202
Ni 3.628799108042385 2.7476588889772553 2.6707444503463487 -0.4682904453839677 -0.09223858302144759 0.10605080631419156
Ni 1.2059263215341323 3.08985428054841 8.313008953483456 -0.904798713260332 2.1646351485253623 0.5383478643226858
Ni 3.4995933637792964 2.735959049190228 7.175749181974363 0.6079391422582627 -0.26159020627681395 0.3003349311451795
Ni 4.116603582385164 6.914115932763222 6.052867253859631 -0.3088529959185197 0.23311652431715335 -0.5788473670986288
Ni 0.8681770503344068 7.649755820472254 11.376369576686091 0.5254604668370563 -0.8346039974128013 0.09417102415747007
P 0.272845520151892 5.449759997466992 8.11849164036431 0.10837199824820046 -0.28859758810359326 -0.5324050164756896
P 8.418809580601712 1.6479736377942615 7.956312466913678 0.42131664773759053 -0.5587076589259603 0.740694454446834
P 1.7223324181603021 3.0689286956775765 10.43569611397653 0.29779442411151297 1.1666673700095134 0.6439533555693425
P 4.088609155505128 6.053865048097084 3.7285794380494717 -0.37432408103813597 -0.0873678851927076 0.6879971240531184
P 6.817127795349771 3.849491980616891 10.494614912123236 0.9448025073467792 0.6306620377770752 -0.7277597486630369
P 6.34506508840441 7.742729218129196 10.077898519324549 -0.5213418166829924 -0.25646985433111313 1.241526838322565
P 2.278169965532681 8.643064062034702 5.805372594928692 0.36515244184119694 -0.7228489416249809 0.6064977818260459
P 6.956701174559691 3.815996544634821 1.5807045434587332 0.22962522333444324 1.219195007594584 -0.698385666376294
Ni 5.352608732930252 2.9063543920838653 0.25256881872703163 0.19857272490401287 -0.357950524776119 0.17992965588152882
Ni 1.3592114417183139 1.2184871100274084 7.110250923188319 0.35568461156007775 -1.538519078247757 -0.9923743435884717
Ni 6.93775124040425 0.5028112634235986 9.115444866870476 -0.3256559264084714 0.4875762901967732 -0.19715167618677013
Ni 2.889026666543357 1.5255739196195213 9.249518143240158 -0.7194656269750448 -0.5877174158947491 0.39180886808646065
Ni 6.18899774450635 1.9929512530792952 2.4676847135376208 1.2303050014648167 0.31399777334425283 0.412755902651773
Ni 4.306764495050689 6.8462550494748715 10.68529964410688 -0.979402613919152 0.035242625252378014 -1.9859730465023473
Ni 8.127464538407018 7.338808335628961 0.22778890243759048 -0.532607876515115 -0.08572237916948464 0.5847228520427994
Ni 7.560090278370901 3.9015295329461788 8.161587107551956 0.9861083080741018 0.036082861765486245 1.1967793589035454
Ni 3.1302644940343543 8.631536411988924 12.451939201476149 0.27740094805682547 -0.3094890868406218 -0.43295628885904797
Ni -0.12188677399817503 4.792738320565443 10.280533219350929 0.2644482445508994 -0.6838949289592866 0.26060110289066735
Ni 8.52415345177476 2.310632263067252 5.887477194865586 0.8287835340762824 0.728547791781971 -1.2746585878795273
Ni 3.6657474014674123 2.5083604617298083 11.46282513950583 -0.9378350748900106 -0.12034896810441854 0.9376640965297852
Ni 0.9843271871635748 3.423512686000758 12.787771728977225 -0.08105248449764105 0.052703243930986646 -1.0237736838353595
Ni 3.1772088550698316 8.525231903312061 7.893308240590368 -0.22076957271602624 -0.5350915621689172 0.5160044636304791
Ni 5.487551114362348 7.771222088997062 3.5435325606990666 -0.04742631180276348 0.07933190226210854 -0.18203718914283487
Ni 3.009477921856586 8.600632884743561 3.7078740747950785 0.3902736623888569 -0.6145198807995739 -0.2510476548742773
Ni 3.3643247281006223 4.490962205098193 9.430413435302851 0.016703943018242202 0.0713617395724384 -0.4218018149041252
Ni 7.079825902171272 6.131522621400752 11.425937565621139 0.42065356023229494 -0.11643960574768332 0.43434339901456165
Ni 0.569380723652575 0.1631180606713424 0.2898823356558676 1.224079075159763 -0.9838017714281121 0.3818898092005359
Ni 4.744516130397534 0.3545749277052209 1.7155599237584078 -1.254774961581723 -0.8679910575136793 -0.3233689301465076
Ni 5.931148138293725 5.546050313297483 0.43874217948992883 -0.3562715944117993 -0.03297851180854965 0.31447291320845844
Ni 7.942822760079449 8.735856207332434 11.435275687167653 -0.9805822360495497 0.37015195193831735 -0.7292219350308603
Ni 9.245048460062032 4.831172883335995 5.704924349977916 -0.32003292379473913 -0.35149911272382045 0.38899839522085905
Ni 8.23202902443546 8.838970674487195 2.3226692322424105 -1.0931952689622915 0.7497570788697346 1.0851975954687954
P 8.541762118472045 1.805708503397057 3.558813040842294 -0.500006802650642 -1.141721755807769 -0.11764005381368772
P 1.7728565132901835 3.2405837424677255 1.5952817644482247 -1.8331500170296235 -0.7520145074453436 0.7296307404335047
P 4.824276231068041 1.1167139103308046 8.276214724563756 0.4995900268281977 -0.690753860862649 -1.378548124876342
P 8.547217814484275 1.6095662628775913 12.381281594285182 -0.1554877207890806 0.9032215985811993 -0.6262124866461537
P 6.314261249956614 7.88568295383839 1.4297992667509833 0.6522755022817928 -1.4900578974225758 0.27558137834958346
P 1.8308028925297282 3.348383583108074 5.968574031685272 -0.36753508314076055 0.02130981722136975 0.697915668718411
P 7.130041868290497 4.083488776357435 6.081848599835567 -1.3078049927245088 0.43175404102083065 -0.991743137762376
P 2.566569656890208 8.564672416676231 10.265452116802832 -0.11919017190962698 -0.13676906133365477 -0.25228692659801716
