# total energy = -340863.91172683204 ev
CRYSTAL
PRIMVEC
9.37614352569933 0.00000000000000 0.00000000000000
0.00000000000000 9.37614352569933 0.00000000000000
0.00000000000000 0.00000000000000 13.72293380497529
PRIMCOORD
 96 1
Ni 1.3063686678101745 3.2999617577230462 12.198027685977765 2.1462219361254973 0.7675449989807749 1.1285839328742306
Ni 1.399998834658084 3.314354137666121 5.036810728895055 1.3415998297867668 -2.0365579585387508 0.5492696534415121
Ni 3.3360411570852286 9.033482752882628 0.39580545026380354 0.20948037295545216 -0.2871320593016603 0.6160931388239649
Ni 1.9338670571849341 4.995449748020213 2.9236980652946536 -0.3076093533194057 -0.9964145750961162 -0.4105640372067768
Ni 1.4780177229358185 6.1127672387670575 8.621350624315975 -2.130033756401409 1.8289771165988564 0.6976336187016179
Ni 9.60229586143413 4.582280618006194 7.001358402138445 -0.2799730796593759 2.1930000728213006 -1.5704051283230762
Ni 1.3462360290596547 1.2624133080882638 1.5095093753884594 1.4618377262346178 -0.24658010602122699 1.6646761683935203
Ni 8.455659170633869 4.2094195279760696 12.898446216911664 -0.17921488920269135 -0.17463935401686698 -0.915113722033095
Ni 5.982420094813559 8.326240264865623 10.087014340858962 -1.173872629508701 0.17920974699636877 -0.6576995015108416
Ni 8.207838327457711 0.3589272034937056 1.4817334885198186 0.17307020975753418 1.2991910258032529 -1.9194922891712942
Ni 4.572257520834111 3.813361859457889 9.35595269843975 1.700276176985317 -1.3099816886608535 0.2283486706148648
Ni 1.032857192032048 9.127891139623227 4.90881699690619 1.8217541164878561 -1.558836192538554 1.4242808510267666
Ni -0.15481231462806833 1.22727152305462 3.713549063727593 0.5330735032976239 2.3229747369409415 -0.6900853740407148
Ni 2.823044229511658 2.0248156470532224 8.722570779153408 2.4195834240056264 -0.11100249389251207 -0.543636880635767
Ni 0.8981398276932284 0.8579424262001023 10.646704461993778 -1.4549785372209394 -0.5138956448175923 -0.018820989361245006
Ni 4.758730258493958 1.1085789252048617 7.369970224031629 0.6997421804041885 0.9405239345760834 -0.39266041745347857
Ni 6.739206123950568 9.464279032273181 11.895752077828718 0.7050147416570375 0.3639712770489022 -1.6660362819658403
Ni 3.1410455051789627 8.439241543741149 9.76669434495718 -2.470203560155339 -1.0398279090847447 2.0343072148313612
Ni 2.848734862113628 8.131000833233935 6.8408135135056884 0.361467536790442 -0.04690103542691277 0.0029876218734142096
Ni 0.5546195028460765 1.2662293984054176 13.075855974471853 -0.3170021073882154 -0.7207185255455394 -0.5373153092931132
Ni 6.874025688251199 3.995502818919885 11.051901994986558 0.12295066739332372 0.018826902898515966 -1.1812092723794303
Ni 5.510275023534434 1.9337545434655097 12.572525850625519 1.183241986538743 0.5991223152975811 0.7653269082835336
Ni 8.354828125742777 8.157535318731592 9.594059857172242 0.8889674026550303 -1.2448749288591916 2.6443670029770523
Ni 6.665790922025961 2.9155211307354643 1.2433459831030935 -0.013060432728383958 -0.9725228560801831 0.23917378625482683
P 8.49890194346609 3.3120757348477707 2.8846839330841436 -0.972538282699151 -0.7763564266248179 -0.7896534008440401
P 9.084479596211867 3.1524000146975704 10.979362524844804 -1.8188505696878159 -0.6758077810757781 -2.1296187803511777
P 1.4577933818692312 2.9850171047667793 7.304333470576582 0.8288606671711207 -1.0795403971830182 0.8205377491277224
P 0.953675661986925 8.741265871250148 0.45439790726853735 0.15859027097380426 -0.7928775642082925 -0.26059030425738994
P 6.503574267045419 1.2722676346812092 5.957687704055356 0.5348820172612724 -0.592685815643618 0.6351504125657319
P 4.509868663413123 8.746038328182411 8.429407844663432 1.8460759810626721 -0.7596869363889368 -1.8570911012262532
P 4.829492011868799 1.12426521292132 1.3953885850046575 -0.3494645987922949 0.515604399978583 -0.20046042884502896
P 4.776835591178047 3.7808266422575842 11.829443054900107 0.1687103901269417 -0.04275770268250056 -0.5903119160948027
Ni 3.9720437084198377 3.5588933306923907 7.092643595550678 -0.9723570199262801 0.33024894509579256 0.35414323521488683
Ni 0.027126120138963285 6.2558190568722605 13.628409912952158 -0.1531261625354395 0.6522821871500121 0.02684591654825054
Ni 3.2897136331121146 1.8487879330133008 13.286447903119038 -0.8034861929620744 0.7469910860888233 -0.18322478169303283
Ni 5.643528771906404 3.1497371900045192 5.586839671988605 0.17149386640934983 0.306576284069201 0.3794552316171142
Ni 6.076519068825737 8.937827339085075 0.1855782535904202 -0.554939964353412 -0.33549219577260286 1.476653965311844
Ni 6.073781234986404 6.520066903084422 11.802532586056708 0.4118249061970714 0.3948360849485587 1.3469641794224738
Ni 8.901644802146754 3.468994868872066 8.666732095431593 -0.34836648063210973 -1.210231113533077 2.4929490813819712
Ni 8.082882465893311 2.8564514280375044 5.066355894001649 0.39564341134120246 0.7067684911233506 2.1098799071613534
Ni 6.9248725132878715 -0.12742928816308535 7.891894177627221 -2.72643250212024 0.35276640947201826 -0.5056174639692002
Ni 7.702839250106579 5.099965617222461 1.4192939999250893 0.32983062661145135 -0.4576753888722827 0.6538071084349708
Ni 4.226502861042051 6.668753783304144 0.4410856590319399 1.4318848886262694 -0.06429017743763767 -0.8793684461126856
Ni 9.68274317082278 5.265773335081305 10.572998599627322 -0.9155317834071199 -0.49375130865923356 0.40567868409001745
Ni 2.144380226228522 6.160913734537538 12.302157258076655 -0.927614425603267 -1.2322767804792067 0.934038841072372
Ni 5.366285591100692 1.46833216692201 10.064111235655739 -0.10162799465614757 0.0639487349378189 -0.28055209209129744
Ni 9.393582911901337 4.711408863332592 4.195045900319566 -2.31059153278524 2.8650843822989045 -0.18046161712559888
Ni 0.6244286400631232 8.572954723134103 2.6734328615639957 0.4141964917530415 -0.8361394602207212 -0.5215698735333985
Ni 7.383403424516609 6.968940386729207 4.526838545145352 0.5407652155149267 -0.09895893246441667 0.8314309990014584
Ni 8.308041170748679 1.1253997262588522 9.188477902304761 1.6477775928659686 0.46929934626445624 1.4882437270319724
Ni 3.949662854397611 5.461603463739972 10.776687811587806 -0.6960657599938657 0.05983676965197436 -0.4878326291819534
Ni 2.100396738076755 3.8340737599753165 9.820213370830189 -0.6405445869981097 1.3436726531553957 0.6464789502046738
Ni 1.4872532240719283 9.78072386815511 8.31526080107843 -0.29104964918851167 -2.3383602182580763 0.48705358492408374
Ni 2.876778906680231 3.378215049582915 1.6221056048740572 0.14563576769566533 -1.3328120562918078 -0.7413122905364911
Ni 6.678861265765795 1.6836365451844324 3.637949220417489 -0.13365288430217626 -0.1716684443140011 -0.9264962528384237
Ni 5.112660915230879 6.238107522206159 8.679124544011895 -0.42121508916271977 1.5670909763481786 -0.03262652778576961
P 4.3995770899470745 7.945034407311501 4.372771633908472 -0.14512771771099522 -1.195371165702109 1.1378391329239113
P 4.005028980497842 7.117064698351806 12.026888693046846 0.10260835629154587 2.7940067496257877 0.5899635316164484
P 7.169674238326133 6.977397667972629 0.2383659402871688 -0.5283832969108061 -0.9554263056092126 -2.8519131350242692
P 0.8656468031377076 7.26662355989707 10.833117192336598 -0.0683185818707404 1.6944387443679336 -0.2973462808305008
P 7.697804261162323 9.179806844994433 3.4625572088923176 -0.5746814086463974 -2.622922459950031 0.7192702231347871
P 1.0876607495351553 6.751413862508147 3.706042523413309 -0.08004152673462345 0.4796117839340579 0.6557881434207415
P 6.946268872265132 6.4059404870146475 9.86160154252056 0.8796777498229882 -1.124806210999353 -0.9921663413427235
P 7.928588651988925 5.19984029549844 5.809192097158655 -1.7916580684334242 0.3893673485245036 0.36556716078111234
Ni 4.293748560684872 5.844656421521316 6.164122250769799 -0.21458478406155299 0.36527096969693224 0.8145311379223263
Ni 5.495151304415099 8.851698086865477 2.8013994027373337 2.0879445405408426 0.058369955298460764 -1.3327531780294144
Ni 0.546225979376995 6.94509685435446 6.606576826721406 -0.7354172652082946 1.8897101728128554 -0.4638835745655237
Ni 1.9644332842953074 5.580361694592728 5.460849621819827 0.6231870695562687 0.7321753612322294 -0.7866709211769484
Ni 7.882889329615932 7.36900166843025 2.053293807053939 0.6564717997513275 0.9632985092684379 2.1860259554963126
Ni 8.09930009278603 9.175709470378717 5.686523076941563 -0.5524382809774809 -0.4578309406135405 -0.4858148274209762
Ni 9.629299154096053 1.2817187871128826 6.7105826337289285 -0.9036304039838436 1.326018173298426 -1.4163775370192897
Ni 4.659108736086684 0.7788846612463466 4.738089616665499 -0.4332347393314152 -0.1717880006110009 0.7719582975571221
Ni 6.32760280986521 4.76118680803473 7.509861344235327 1.0821906903216718 -1.1658865259794307 -0.9774398337658263
Ni 9.488375720516634 3.1174926332460617 0.938059695345107 -0.5280778498552453 0.0242303333022744 0.704188131990684
Ni 6.17081494184691 4.65073584013283 13.28722987346904 -1.2601621940355652 0.3230200314475211 0.935536251553505
Ni 2.8464002024355657 1.6593242056454147 6.190085729141374 -0.9950544615237961 -0.7811289083127967 0.08119878026751821
Ni 2.068199062034724 6.946118853972566 1.2035751961294525 -1.216551656434466 0.07708938608483498 0.19825313678106501
Ni 5.393326388335758 7.719134987136586 6.605945812278299 0.5611877450353367 1.479348995645504 -0.5396267310351094
Ni 7.66012154129834 6.883336198533592 7.59579463506026 -0.3991519387150932 -0.6883982161462789 -0.3481687627990068
Ni 3.218539329432715 9.228769065230741 2.834951931484104 -1.2583925037296524 0.2939297989497841 0.6439196741179297
Ni 4.16562356269001 0.12285654308280039 11.733423846743081 1.1019925555389474 -0.35689585825935954 -0.14135076716706624
Ni 3.7596178061460304 6.255987827451398 2.7007558807119523 -1.4853545784096354 0.7676241889581424 1.1791385058933308
Ni 6.60045795561336 4.323292788177137 3.7522612841243133 0.5998090569519605 0.627014670832475 -0.6585502795469109
Ni 6.78269267650821 2.3611097782703236 8.267381525391583 -1.6754994842612692 1.3159998698304756 -1.3567158594925988
Ni 2.108178937003629 8.69642915405941 12.108759300986218 -1.9413091279360692 -0.7128033844635209 -0.10991594569655264
Ni 4.606639838261638 2.811305298118349 3.3766923639133677 -1.0074047555590326 0.6097723388122595 -1.1286821490149916
Ni 8.81695009984982 8.47627730971844 12.298383360404285 1.022169572573033 -0.5421752084885759 0.09636931736036951
Ni 5.815627881909747 6.396048655848562 2.912239480585578 2.0962196360654413 0.09678095097649139 -0.549255512374125
P 8.944559409963984 8.813565312123794 7.727576328936424 2.1726017116706067 -0.7962125421187964 -1.3704005560685433
P 4.664800055060916 4.609508938106968 1.4550564856442256 1.1262686544774925 0.0363541131490019 0.4010931216018641
P 2.6502887894783376 1.881445040076316 10.851821660576624 1.6768135750870026 0.1698193069204043 1.6979678405671146
P 3.756561183434993 4.238176159432363 4.9771025108393605 -0.6178741419837875 -1.0518861258008596 -1.5397164409899675
P 7.784646100271611 1.5228825685564122 13.207692049979071 -0.9569982780820228 0.18901002091624222 0.6960714164208205
P 2.2209364361537354 1.5099997476822855 4.134596029329996 0.12146122733199081 -1.0016701670681005 -1.4344616482145103
P 3.1916297982036443 5.215948509662741 8.374790872411703 2.347103511668345 -0.7139135868085641 -0.46732139660247907
P 1.56124974688023 4.6394844681903615 0.46881278995549674 -0.219409459143706 1.2997589824915807 -0.640681112575974
