# total energy = -340857.6865094282 ev
CRYSTAL
PRIMVEC
9.40287069881918 0.00000000000000 0.00000000000000

0.00000000000000 9.40287069881918 0.00000000000000

0.00000000000000 0.00000000000000 13.76205172446080

PRIMCOORD
 96 1
Ni 8.33939638917075 8.19519396812357 11.472596429275503 0.3007553065120498 0.26549828308196854 -2.574687279092727
Ni 6.9034182243910065 2.8747395792093275 0.1339457699726972 -0.16699392165646723 0.06232071241609267 -0.11960154841543273
Ni 5.455611248599438 4.5983045363552675 10.73382230178099 1.2503994582218463 -0.13153660929012187 -0.5550047561530764
Ni 2.5615675763795567 8.775520325856345 1.9841438847511939 0.9022679764186784 0.312336840702062 -0.6115039767913856
Ni 0.3076355927154921 4.5173082103967115 2.7867879499873003 1.1984899138367489 -1.278952844379507 -0.6520482167623352
Ni 2.734025623094888 0.07313834713297325 8.9826834270737 1.181746632940139 0.08837164386687361 1.1718867094269236
Ni 3.648341938808611 4.2387669793925 9.117124728318514 -0.15409109755187012 1.044993512446084 -0.7914925109353079
Ni 2.4854513401786615 3.3205390695762964 5.4853609903802925 0.19398279154048528 -1.4411218338435052 -1.5278430865911494
Ni 1.3789027412171204 5.080239257817979 6.3907389374550325 1.0806598554994422 -0.5966090619574241 0.636086037006124
Ni 1.9250496649053923 1.8660560557732846 1.6135316269857805 1.8039533408610093 -0.4717030706099425 1.0537157228104304
Ni 3.392141927966638 4.528807920943184 11.723809157636815 -3.942461710392333 1.6617844486680218 -2.222190835452644
Ni 7.747297637648781 7.250186683298084 6.166596132799557 0.3121941444766107 -0.08525186729096931 -1.5952872362767363
Ni 0.30351337431518677 1.4700635701198597 5.98579021770879 0.26579704526931003 -1.027152370499605 -1.0054309196621136
Ni 9.00483753011421 3.572733457611404 5.339538454756532 -0.5364164516279278 0.713349743885294 -0.16708416737742837
Ni 3.72094150146545 2.572879229517256 10.64868965311647 0.5879220757063875 -0.9987589069585766 -0.6890618178722068
Ni 7.702596391583426 5.477745605612027 11.635511502782645 -0.40066349026361314 0.37669952324884803 -1.0321937895782545
Ni 4.78702014605903 3.8735312829439073 13.060310594897874 3.1381494219845374 -0.9314643954769766 0.965368504423589
Ni 0.954917910267826 4.777071909134935 8.723502706302673 0.11873971463576971 -0.38700116228517223 0.4764367286401859
Ni 3.905040301783833 4.998067573054592 6.740267138835853 -0.03260775873269223 -0.4188944114493431 -0.39912519924221584
Ni 0.34829078363109534 6.788947679670847 7.474307861351549 -2.4282133317664827 -1.0388503756628238 -0.26789223723544187
Ni 9.317078648770554 2.632916557268054 1.0263327112493943 -1.720891282132507 0.3696387597473247 0.16737778735844724
Ni 8.053981659875882 5.809309623019803 3.175386958614813 -1.4911344183162063 1.981331176854962 -2.3797236116962113
Ni 4.36956090719416 6.053530376922933 0.5982313036220577 0.09891882325510061 -1.9172238048520915 -1.0825444741166648
Ni 6.046647475761838 5.615629297724432 7.798651414549484 0.17362968180542998 -0.7025629376824353 0.21926522025635786
P 5.234239469862235 1.726780738835959 12.105471668741732 1.9038299000436887 0.79324034686435 0.7089755260769983
P 0.2818472802504429 1.886601327681741 8.026261997822735 -0.0734967836375702 0.30320891025886487 1.1007946785761042
P 1.5622493119004117 3.4581030640937875 10.631569846908814 0.7278253117936497 -0.3081019766851081 -0.7387365593895148
P 6.534214516617303 9.057709870590756 6.347264765981921 0.28245213732748775 1.0423301066813082 -0.31355862892430514
P 5.3319258908494 6.4800351771497855 12.005215443263685 -1.5334293224296753 -1.2530551506771388 3.1287687521005862
P 7.044254417821149 2.4622826674178215 4.998776549485667 -0.24633893654469835 -0.3575458331385326 0.12038856309310235
P 4.17950068701767 6.084089705848554 2.779714170556302 -0.039585989822738275 -0.33747348786868975 -0.2469390320225425
P 8.768327129970775 0.8865957133735307 12.397392244093105 -1.2879671320629753 0.657048498190404 -1.5946652864220212
Ni 1.8731176114727128 8.02042281528033 11.011209800582378 -1.4882447554732368 -0.09714784739760687 -2.4603719187768984
Ni 6.792116447008674 6.254949264589314 0.8004644798684271 1.1855708917822356 1.2665696402238058 -0.6928696216540713
Ni 0.2958923478246586 9.37553629428766 1.9066219194197207 -1.5002412657134807 -0.7877255876937078 0.6963778919176459
Ni 6.143130329332855 7.185269265789625 3.5911931728565674 0.07127843583001273 0.364936726285965 -1.0003200807981096
Ni 3.3512958587811297 1.4941349184428108 13.15206192406416 0.4284146922349525 -0.7244078014716685 1.3265197955251928
Ni 2.3400735603266507 5.192594156689442 1.5917188481421936 0.14918646116140113 0.8132126762212188 -0.5813184543469408
Ni 9.424120925844177 5.916182648425531 4.8116951586641425 -0.6225255247128698 0.4866735758768456 1.0012294799862562
Ni 5.30769469372899 9.194013880469466 13.34109817164988 -0.11726287297992709 1.6954643574189705 -3.055504396188796
Ni 6.11378397069382 4.734900035217576 2.335778329110274 -1.7207401012666235 -0.26446007162544133 0.3205818543196737
Ni 6.138438296983968 6.988918525289677 10.26446768067815 1.313253674543906 -0.4022727437322621 -1.274250039587199
Ni 3.027385777910417 7.136891497382757 6.214171836358009 -1.0704417773158597 0.16406209272165295 0.014458855737807357
Ni 0.9277003614961016 5.48162899110319 10.947326698822172 -0.5226235116088934 1.2740651772699025 0.1673541332093634
Ni 5.917527258898258 3.578224733947577 6.43791501901984 -2.0154150059125486 0.060656437339792306 -0.2849383940844512
Ni 1.4284370626879435 0.5134766503491727 3.967089843808503 0.9198211548110932 1.0894103479985624 -0.2851104008859412
Ni 8.349297611742651 2.9919839707088896 11.746818921887241 0.21948736356949294 -0.20298473792877947 0.9051807791900992
Ni 1.0053266986894438 0.8200111669362985 13.634724427698824 0.25879181759607045 -4.690817538039166 0.19990738455503637
Ni 8.390707853154478 1.5584975665953895 3.419429057979608 0.1849214526691654 1.6737999850716592 -0.0816716061388787
Ni 1.2498201358352947 5.040060792433615 13.149199690302634 0.2276300472812854 -0.34969702651807516 1.1672574381850285
Ni 8.187257945473347 6.005058579811678 9.23161125791842 0.12160829443281637 -0.224969983950619 -0.15345397818850345
Ni 6.4539422116825245 -0.08045095947311355 10.331612638193526 -0.48036588849126305 -0.09279599818681439 -0.25730057776252463
Ni 2.1265249697944064 2.998453145570682 7.722437388496028 0.11156787947767882 -0.26453206251395733 0.15464748427597236
Ni 6.573969852831928 0.8465714550643612 1.2656037941536173 1.0727429146452105 -0.5314123135451171 1.1662991880368172
Ni 1.3842905859784684 8.692098059324618 7.396304469053618 0.5771666369620964 1.3588143938928405 -0.9121744368991129
Ni 0.6557298563544196 8.097601575840791 5.119868595568725 0.12636097862645335 -0.13579564167679192 0.16268166743435855
P 2.2665713221077013 6.680447957679232 8.379891731288895 1.1120424835757816 -0.8167101478515159 -0.33029599628364403
P 7.726442071015849 3.4297346039803718 2.3844814368343203 0.5515836462866694 -0.1872686127451033 -1.2886854982862386
P 9.131823295388216 6.7629393400375335 12.783060378004889 0.3548562021215114 -1.5815814566548698 0.9887264624232391
P 2.509202990906699 8.71782431284477 12.826961439795914 0.6385087875150036 0.7797176297875669 1.0847054863237255
P 4.765769658867674 6.393970704024796 5.075210602707387 -0.5664885884229599 -0.4595636070339311 1.2258623923124308
P 1.2859365611901599 7.2915311046168405 2.9192612304493046 -0.6265341316516306 -0.1921817337760045 1.1640942099656986
P 3.750663974922031 1.6196538359283872 7.931854357757528 0.7499704804321213 0.29537244493358167 -0.10623026931484932
P 8.047935614183828 5.1699708504140425 6.825412951518986 0.2710102140391333 -0.22346203194652484 0.3459506721017655
Ni 2.1967268004893885 5.646310863965756 4.156400655211033 1.559793671355817 0.19993515246917826 -0.48188386779768616
Ni 1.88137333171785 1.2016680363189534 11.105163282005398 -1.9561500496036441 -0.586329534408287 -1.0314060035696366
Ni 6.700833380790232 5.235706317650664 4.931231969976648 -0.22920561929852137 -0.47077875902346017 0.8085180989590268
Ni 6.692643480638165 7.818326920942365 8.120339597135542 -0.7380621590303095 1.5013519822791563 1.3851172934534275
Ni 3.7282475317962827 6.595145117059774 10.117392682711964 -0.9270698659537064 -0.6322121558730144 0.11490774248418921
Ni 8.502188285075146 0.10401737365350912 7.727515878819944 -0.864675362876885 -0.7222550167947239 -0.04957164028054043
Ni 1.3001913127751579 2.662479181927179 12.759210937424289 -0.91697160117744 3.905180714553687 -1.3487138151237288
Ni 2.7826572690036 3.528041614416487 2.8546211976187856 -0.8351357015465553 -0.8175413855035597 0.1923668532036171
Ni 2.9304139750765907 6.570171093174712 12.52971507862809 0.7343163188346321 1.171931189511614 0.735859494952036
Ni 4.736009573929338 2.878895647943212 1.3410364416736216 -0.5620781180600901 -1.231105900099557 1.3281421616199642
Ni 4.433434606083928 3.710419689444597 4.111922257175072 2.7913420583094317 1.0935706500238394 1.4900792375788143
Ni 8.40150234841805 4.6712331994774585 -0.1092801602380231 0.3237751644459908 0.10048745329380113 1.1607862286383879
Ni 8.542103470087227 1.3416391656687394 9.97349585495404 0.5189347499033966 -0.5337540743044162 -0.07087400130274245
Ni 5.166247313720336 7.956078972868629 1.2349269293475125 1.1703070236446296 -1.8918524159668388 3.3191013484829934
Ni 3.999840041546331 8.447181493009026 4.03559727725044 -0.3279357235815836 -0.11259117853587063 -0.020578338371983917
Ni 8.096416814165522 8.652850478113681 -0.07148344193577036 -0.2615228433739883 -0.16153238432126377 1.4919000928376371
Ni 7.8695161476103905 8.92164093247301 4.205545697845695 -0.3597168726479224 -0.8645892309209819 0.7973746807476977
Ni 5.912158219877788 1.3095565717320559 8.065181418855362 -0.49026000767652345 -1.192664051183591 -0.6451008389102244
Ni 7.650165986017497 2.6910639080606833 7.420058000355742 2.3469111931518807 -0.022651933071560992 0.6946308273195521
Ni 4.263355485589576 9.088476062666027 6.564292418576466 0.5577067284652718 0.7903288296445099 0.9184474143920182
Ni 1.335527299883615 7.024320332491205 0.7377116031349459 -0.8850652393871467 1.5437864972942832 -1.1137173001750431
Ni 6.236876947606223 2.18736154153249 10.253319637486085 -0.10380417637185994 1.2820494810269596 -0.06075105393612764
Ni 5.317783973709665 1.491314057311215 3.424837589055921 -0.14483049818555055 -0.1161534419658322 0.7985841276747667
Ni 4.0048235628788165 0.2646372064865766 11.201814446957266 0.2662698711406704 -2.6004985837288763 -1.1570097923150913
P 2.851674338023312 3.4758932949637185 0.19707664209781225 -0.021230627244002147 1.3563605330357091 1.5569780562838929
P 1.0425996771082635 2.7474905335630386 3.798518943732511 -0.10406771444589175 -1.3658723291808865 0.654437542930118
P 4.668628604365951 8.308968700431269 9.274686747684932 0.788641671750074 1.168332159306446 -0.31707564093862806
P 7.8007247474812065 8.161211994358279 2.103983468491824 -1.017796383206002 -0.32275726470443766 0.24426354207290835
P 3.5385070092147073 1.0032862758042562 4.968059252336675 -0.21781588940434102 0.5447810215425392 -0.6769220971858794
P 9.395122473411373 8.122359333705765 9.288627443397278 -0.5664937306292824 0.21448708214142415 0.5470330508015094
P 4.458606090248202 0.3751886348079056 1.7061094684636247 -0.5621030577607545 2.91559010435794 0.6241072673776928
P 7.599315262685264 3.877856603345688 9.91862728508337 -0.34832071499583883 0.7751055849368522 -0.39881949507633896
