# total energy = -340884.1604884649 ev
CRYSTAL
PRIMVEC
9.09251921366284 0.00000000000000 0.00000000000000
0.00000000000000 9.09251921366284 0.00000000000000
0.00000000000000 0.00000000000000 13.30782095512518
PRIMCOORD
 96 1
Ni 6.895739222045647 2.022085326802099 11.634841110119131 -1.5279945245673492 -0.32453466831983463 0.06085929737921776
Ni 4.85497786097379 0.8423773430015429 5.987348371738701 -1.7440332674666095 -1.622089186960929 -1.1656983212280247
Ni 2.955759745022344 2.118502399536527 4.9459585165271625 0.39429126818868226 -2.2143559127892574 1.33481160322034
Ni 3.563831053602843 4.916370550063082 5.173282405516975 0.17214821216389706 0.4292158479800092 -0.2982315116489316
Ni 3.831660296762529 3.2872002519362797 3.1985081834450777 -1.7998447180092743 1.9547567688005432 -0.96704203547127
Ni 5.614348687689039 4.800650059239707 3.2403874172537823 -0.43982704783695226 0.39720381384978687 -2.3493126035045218
Ni 4.945512073838435 3.1961659505201068 1.1182161862528697 2.1824032711420607 0.13262058638292 -1.9017367649600863
Ni 5.646572575445622 8.424555386659636 12.87868317752326 0.3335618115191094 -0.29390125970469383 0.1970956261378541
Ni 2.7538785430304062 5.3483561333913245 11.862857849065788 -0.6002574573432888 -0.6543460116575762 0.8490001182334733
Ni 0.981246478249152 7.5264145331551715 11.783742930962287 -0.6411233423197152 0.46924972397344344 -1.4271003227534325
Ni 0.3785088413836677 0.053013023469521824 4.702171712421076 -0.1959388868255916 0.24694366000823278 -0.48099092366977164
Ni 8.76299713329495 2.724473336200612 1.4737209542662901 1.3957750302775898 0.13790446048967864 0.1106134859842095
Ni 1.8417624876405392 1.4596584641973478 2.696816620797339 -1.6258625379604323 0.24995442181009855 -0.6165657075850091
Ni 1.9256409765103149 6.892111306917295 0.5428752187438647 1.2586005059754002 -0.7843350739549202 0.38286014353360515
Ni 7.720376150994744 3.9351149792948115 4.024883602049665 1.4657555732317855 1.2557913186613792 0.3815398820602849
Ni 7.874794403187198 4.066711008499393 12.726840835997127 0.975641604214823 0.05948350007761369 1.033010629052595
Ni 8.07596638868788 0.18810603552714522 7.11913877978384 -0.9824876806023789 -0.24928310677468682 -0.7024282118767838
Ni 6.98807375369579 1.3523667385969844 0.7313458642876688 -0.9451465209497593 -0.9939622569008818 -2.470272979940694
Ni 2.1034088177995267 6.418654743888777 9.979321600838322 1.04084632304693 0.9650604862648668 -2.9860401307493865
Ni 0.6797685495869857 5.089010210569361 1.6049632844771546 -1.6764327947088162 -0.8729203764944967 -0.8404763970331784
Ni 6.174757011049444 2.0033001823029166 7.235422097540661 1.578384546984127 2.182367275697803 0.4707034257008345
Ni 3.7606204448883225 5.0162609651008445 1.3985185471395543 -0.3192140274378696 0.3618303194464994 -1.5188899911629195
Ni 6.24977938629763 6.052253500963538 5.010980029996718 -0.888778683682992 0.5744829194823461 0.6685413293213519
Ni 5.579042435951223 2.8408666734387684 9.51101958689818 -0.04051724338775602 0.4994519585884366 0.5218295549526883
P 0.26302202830164284 5.8351514219669385 12.743170091082355 0.10886487872421896 -1.4374006762381761 0.6682762485854233
P 4.261199992447847 6.421755292908245 13.005000999379451 -0.24673180110774282 -0.03858660202394645 0.8160627440755042
P 2.4818758335952484 8.88163632275542 1.418480263612693 1.30616385757666 -0.04793127646364003 0.3532045254507014
P 6.54104914374526 8.18464017719428 5.841467994998681 -0.8685844681233041 0.8227296145727186 1.4856862507174415
P 5.0593140431277694 1.514031728527023 12.800393860155735 -0.5728767513374908 0.7284714300180809 -0.27716980588262585
P 3.9300322611074723 6.450915001721835 8.415067342959297 0.04758057799244064 -0.19356395883551178 -0.12764987264120597
P 4.965088267500942 1.7190043870193104 3.7392848487763524 -0.015385224206818664 -3.0155527954965224 2.672184539409953
P 0.1935560914868789 5.799717874961462 3.8130633674091032 -0.13017469594558873 -0.36972154926911804 -0.06742512352219356
Ni 0.8487111918196119 7.708410395834567 2.573067435592174 -0.07697034400846743 0.17113262641518914 0.7009169174385799
Ni 1.841771580159658 6.785510612769952 4.8218756358703425 -0.321498195486356 1.684388816331099 1.4977472956470335
Ni 6.078494511140033 6.113209749135133 9.679403948456919 0.26732813720185566 0.4335952079946275 1.0700915930652926
Ni 8.732537194247389 2.8029781462712506 10.517130467929261 1.3917245143572998 0.006082201638337912 -1.0539203826220687
Ni 2.1950795955540063 5.85921932007407 7.02020853476501 0.6284094942974726 0.2605491666068093 1.6495737655344427
Ni 0.616160013588472 9.172442361727997 9.073112955119857 1.1503776317105543 1.0882680068640032 0.12246112935141491
Ni 1.594100451886074 1.40584893605303 11.241715135000282 0.03452554458069538 -0.8657886505457218 -0.4466317294636115
Ni 4.2908779748512025 7.31550445967839 1.7788431645912213 0.7343260890266451 0.9881019414653629 0.06811829293447623
Ni 5.324824693912194 8.151416112334642 8.434150722085572 0.48882584633315806 -0.08521458629513066 -0.3101902266727045
Ni 6.998884758927894 1.1807999953467088 4.987704999556734 -0.1886089288230816 -0.7504247943607205 -0.6689599049160092
Ni 0.8618935260378666 8.012127811955663 6.921423770052079 1.0298877671528974 -0.7404622838313699 0.26873864439613715
Ni 5.468350108200475 4.7942943883757545 7.97459207452995 -0.5874981007950915 -0.8245538122656509 -1.9657032405097181
Ni 8.090341661414504 7.589825761488809 9.433222174814976 -0.5130173559776972 -0.09977654326970559 -0.19312712840840932
Ni 4.456034492122812 0.5248693031331529 10.679246446807587 0.6153279785231661 0.6821545492294123 -0.515496670756125
Ni 8.304197711085736 7.105085382234017 5.432997484615156 1.7737256523247196 0.22395439820191107 -1.479099598638859
Ni 7.13058080584278 6.64541307818941 7.401290559059263 0.03288749475664013 -0.5903096021019575 0.09546583170949365
Ni 2.3354226281507526 5.921957701992927 2.847075045493 1.749510745641413 -0.4405466996117961 0.7983115907396703
Ni 3.936033323725798 4.6168902478512885 9.712593461743907 -1.2248645471755357 0.35541927371383303 -0.30043391861688906
Ni 1.349775370648162 3.4218968301603288 3.9180619596877366 -1.9808889471112208 2.042821422949959 -0.21045173572978593
Ni 0.817832996892592 0.04041170122295035 0.1986760890026047 -0.7581571300079717 0.8959764869830118 0.30527967674496453
Ni 1.0431665334473277 3.7883708132385183 8.151159703295496 -0.13224597665232063 0.09042775506495394 -0.11352577453499801
Ni 5.352165898902049 3.3775798919759077 5.09897106526387 0.5269979865275054 -0.708790920870018 0.9499688820390673
Ni 3.961892448099309 7.562839164744583 5.98171919315233 0.3960051655559954 0.07104960764865828 1.4031792931614606
Ni 8.357061617241712 7.447937000641889 0.6939883402366812 0.6121804340331198 -0.320434530108532 -1.6541811823994672
P 0.2948403897055336 6.34803314789403 8.267111144104485 0.40406146020156863 -1.1334268627888286 -0.7818436749916341
P 8.590903023935791 1.988333895833578 8.2478277295576 0.19163897389865703 0.5445714766348944 0.34233133018162337
P 1.8313333682114192 3.7132575127991454 10.260902369913092 0.3213380157594079 0.2138635896248123 1.1472632544512886
P 4.225966480862983 6.792257261956008 4.063809585648624 -0.2990640348525559 -1.5172992496370319 -1.998606676105958
P 7.1440286416193 4.318182809764583 10.802290961781054 -1.4778348729938227 0.4523578333141112 -2.1739355999906818
P 6.3219103404660775 8.351324237677828 10.615635183053337 0.4103259530540417 -1.024356810032339 0.23949106038492946
P 2.338541362208458 -0.09225269897807499 5.560393679238822 0.6157072162394557 0.4208433076455978 0.5006675761630925
P 7.119042399081182 4.200834758018965 1.5343916973375598 -0.8617013678502256 0.3982093722961658 1.0055165373973844
Ni 2.853978086007898 1.707656923159204 -0.0494287524329402 1.2950641481190728 0.03046140181365076 2.3284419307030997
Ni 1.3435833651283446 1.403303030699801 6.978873942851514 0.2812951409049091 0.4528298878545233 -0.3901350799284636
Ni 6.88541921284595 0.8192314263330442 9.102109907841223 0.4377269707748139 -0.2839138094746788 1.97255754442739
Ni 2.515672727159363 2.0597556335107687 9.02364692335853 0.5015551209743685 -0.9811309094641683 0.09335881266881986
Ni 6.674736452347136 2.2629097881793205 2.7731637760811156 0.8509865525358827 0.5670655439723524 -0.08963842639443917
Ni 4.179676466029809 7.310885459966102 11.072519720736157 1.3327565204635239 -1.5910888819246727 -1.8825468222951964
Ni 7.594290188376078 6.660588492598478 11.60022770833816 -0.49521015259294715 -0.18716062641232928 0.7978814451807871
Ni 7.773812885855195 4.269301426982587 8.54906379721121 -0.5677954801598415 -0.3375367370064574 -0.6004921990619142
Ni 3.051058437905175 8.624799935210211 12.535727904397437 0.5076761462704418 0.01592181343657903 0.8808681705866636
Ni 9.217177555791878 5.291600629052556 10.275540416442245 -0.33704668474391636 -0.570369668644921 0.6533047148772555
Ni 8.375964964489437 2.6582070568637097 6.071001366134333 0.5615330441898975 0.7794782600832512 0.8150260752808738
Ni 3.673114040890196 2.6883578502612355 11.081568595763063 0.45163920998053186 1.0249561341792348 1.4404286644312225
Ni 1.5128133309651208 3.391400521036293 12.706800014607657 -1.787112872264903 1.7095689151411524 0.10703708148686084
Ni 3.022289707413688 8.74824906728446 8.236223856658347 -1.1217414560311005 -0.8133882825671347 -0.2202286126108917
Ni 5.950508212025566 8.286931017279374 3.793248040493775 -0.9629902339993996 0.24437461372947591 -1.0233440524971085
Ni 3.3724608037120936 9.03396329555058 3.3703386097497945 0.45315744639727124 -1.5533782547477764 2.8334693264967843
Ni 3.74403569001586 3.037292363959501 7.174273087963749 0.34895063527035386 0.21024244793245725 -0.009641893965138234
Ni 5.19530175906667 4.841884633442898 11.751258087906997 0.5317637833472649 -0.5593072401831722 -0.04828943113400715
Ni 8.304816002385806 0.25251016694854284 2.2985270040709938 0.7990230149843981 0.6244327690379117 1.3421364190165272
Ni 4.644731541392671 1.0687256046899227 1.7734131121735486 -0.15954055070221557 -2.2043905740464296 -1.325308548825911
Ni 6.3096263471367475 5.939724484350817 0.35149951334164403 -0.2595991439887142 0.14480247316109257 0.8981156448132016
Ni 8.478501302590733 0.1122826093446038 11.234515678362117 -1.0992900690061196 0.19294637985617094 0.31654650790803546
Ni 0.23470155900270634 4.964506346277347 6.020937046614998 -1.4277968345998249 0.3767100647718093 -0.3310860962851072
Ni 7.530397056529151 6.324401690704594 2.530442615215738 -0.18912289234502266 -0.8504077972142773 1.4520832179510155
P 8.734201125246107 1.9054646765859753 3.7788354884387636 0.15753149069198677 0.3073710120563545 -0.25816986774135536
P 2.1798587185493448 3.4168322970112266 1.7969018168128215 -0.44392898582046775 0.6331441807689805 -1.9278476031145249
P 4.529847562328214 1.1536133631818708 8.442322169017526 0.48995173240748524 1.3981540720327275 -0.4558679033498988
P 9.03643646075086 1.7492824756844976 12.642962347127352 -1.835983886933993 1.3293793764611752 0.12757325376699963
P 6.62070870374397 8.242850484592038 1.6543483928183254 -1.3241273840336163 -0.12024278154385744 -0.6142476009747938
P 1.9206491835141624 3.668222265604349 6.061433308265752 0.5171869139743545 -0.2197303328182345 0.868712509060736
P 6.827290738120262 4.412772286156157 6.288517154750831 1.1500246192465098 -0.23434602584888028 0.8001355313222865
P 2.3878864634655064 8.590248362559247 10.419984175161515 -0.6081044641915334 0.18713800070450998 -0.6590966389686842
