# total energy = -381167.7230474071 ev
CRYSTAL
PRIMVEC
9.22464868761360 0.00000000000000 0.00000000000000
0.00000000000000 9.22464868761360 0.00000000000000
0.00000000000000 0.00000000000000 13.50120579609870
PRIMCOORD
 96 1
Ni 1.2760917982015263 0.8381312999792866 10.635358712866797 0.8441273635222042 -2.917202186040066 0.8862327773326867
Ni 7.417152702340859 3.6171231825047268 12.086657956472314 0.37822958674012924 -2.1771024277544377 -1.772071147440432
Ni 7.71103156529748 7.109455315411953 5.821720165436184 -1.9255762905818448 1.8571134698237566 -0.5144731145876172
Ni 7.175430003963204 2.018952769822366 0.5918239511248466 0.4068112550325639 2.0333019134952983 -0.46696324193211197
Ni 8.037676380957407 0.4587390197493218 6.435282001568164 1.3624134240980084 -2.3726163112274685 1.2364465955861803
Ni 0.09332208252203389 3.499942468205714 4.849295505082461 0.09357427111373562 0.021544044719362897 1.3990220764599777
Ni 6.062789758675494 4.197039956898316 0.355667405861262 2.6665437961844076 -1.0200144739032433 -1.1888061108900816
Ni 1.8430479409655698 -0.05093758846632455 13.196996651872784 0.3893470368095295 0.20077538898228645 0.1536835777008063
Ni 1.0243234572298685 8.489527355412935 2.310987625474542 -0.4711600536222789 0.1361810500406687 -0.11545050236153666
Ni 5.770165447962018 0.9686065781960939 6.214766770888962 -1.1317613021609476 0.7192018317906969 0.9049789475919382
Ni 2.85235366987309 3.5081616303280803 10.918330351027139 -1.5402836263473474 -0.7813343394553834 0.5318473442000066
Ni 1.0969491175995554 2.417429926051168 12.88424138998126 0.6143455600052387 -0.48190880749835063 -0.585039869062586
Ni 5.754197580808465 7.426727887843683 11.646154222563052 -0.38325737897202383 -1.2176975971134512 -1.270115448593535
Ni 7.275443646758599 0.4168563465908703 2.0346448199754046 -0.5935021408973262 -2.042807024772256 1.1303819053149178
Ni 6.742471110345619 -0.12037428772972389 13.051535009139707 -0.5432098204006773 -0.8302210378537572 0.5508573096436062
Ni 0.942214857845824 2.591010143398608 2.0318368368664843 0.5320345205101481 -2.3126782401109396 -1.8857625010190167
Ni 4.2998394436454 5.166439854895222 9.528584421780675 0.27884899335726165 1.9403570484354453 0.7873936582755859
Ni 9.044758969492884 5.576844482082744 6.55262137982734 0.8107328472221587 -2.224936002297949 0.08268050701936729
Ni 3.484906290585672 8.1754372868333 3.824985884825862 -0.9396451315155561 0.9020448046642787 -0.7902604383004197
Ni 4.20452114711295 8.660432424594845 12.784656693357233 -1.1629001896575972 2.3505511038973133 -0.8188081680311252
Ni 3.0460897449504634 6.120582183699765 11.393033548070475 1.5122969113264344 -0.44888812959795593 -2.6772897218470018
Ni 5.168284784664552 1.1067825932700857 1.066511466265144 -1.1633951270161447 -0.0555049750458399 0.5163513054469365
Ni 5.9898227862984825 3.4596123034481536 2.771824330371592 -0.14606771302676136 -0.5899015680302614 -0.8523176126424805
Ni 8.331536794616335 3.9387866877874624 2.868506952468461 -0.2059235088421292 0.4863532164229495 -0.9654541221588598
P 2.9671636494185134 3.8528959823762907 8.86543179591398 -1.3079919119243344 -0.6534489537646037 -2.305962518653661
Ni 0.18162503360660476 1.7361803840771128 8.16263993148834 -0.7620330680236103 -0.7209470966165777 0.49182349550890136
P 2.598306840636309 8.376211768980667 11.265257402106199 0.15357173471329036 -0.636356259948375 -0.5258492176350428
Ni 3.1342312646802175 6.335230537712499 -0.043570783897388714 0.4112088698796273 0.7025097158469965 2.579113947405513
P 8.196912269348305 1.543671187296344 11.993931786265774 0.2913227003442402 0.8589418028272177 -0.002809444424337097
P 8.617851445518703 4.229252430670823 8.35762502401955 1.2073213960854496 0.08372694600601065 0.1361288566464946
P 3.1097859452365912 1.779665378740228 13.498667575710172 1.0986935730727012 -0.005868028745002797 0.26754539541898437
Ni 1.57442616655108 4.218441142222547 3.0534196509240124 0.5675869636934613 3.429463894798661 2.5906245191482737
Ni 5.701635531680245 1.8476510407400488 12.346758000282268 -1.6507287050744925 0.3926509043717818 -0.36994754923699513
Ni 0.41399393805375434 2.742257485888305 10.47180568881567 -1.2080225359175325 2.1241919529086513 0.05512933687397602
Ni 1.033068424336494 1.290749765218855 5.688057771042858 0.2291122882537667 0.9160380336195773 1.103927310667815
Ni 4.667146511421366 4.802868769902149 1.7173805497276373 -2.7588870231045193 4.402207351530082 0.3761469931794877
Ni 8.86160356664262 8.776958188825747 12.331421099109825 0.5591596588617144 -0.19292863924435805 -0.5168873804560646
Ni 5.173985617651783 2.621497607836791 7.746019735907944 -0.19940524810763724 1.706458394536629 1.3984242949749788
Ni 8.07659517444143 6.77456366368312 8.268219727397804 0.4610077956796254 -0.4221319445500343 -0.2716679022277902
Ni 4.136323318189656 5.6913869468116145 3.9160922066949304 0.11313136731005677 -0.3036691377247351 0.3976568422268054
Ni 4.018358508738678 1.1399452058737976 10.454051007180519 0.17844252981304107 -1.4054827444836566 1.5290671888062377
Ni 3.3849941189275903 0.3148215832331741 5.674327803699502 -0.1326360130018877 1.2605612292461967 0.72147160166148
Ni 1.6519870140537252 6.061295365562337 7.807922664458283 0.8046866410280786 0.18668702921002042 0.679018831813908
Ni 1.2355679158181863 4.604501921103756 12.196409138590234 -0.4786517340136337 0.8126436910916263 0.24326184028127137
Ni 7.8810510681901125 7.5133657898114325 3.2924985649422163 0.907006262434612 1.0704307215722662 -0.6145206521305223
Ni 8.931886166205256 1.3268734901023422 3.47841029286786 0.41974724636794164 -0.36594177051171173 0.6091928121597056
Ni 3.994891002072796 4.889654266251445 7.1571781137552195 0.5757383891560021 0.7507060730465652 0.07681402093626126
Ni 4.512799686919195 0.24729438628103162 8.266451362213902 0.08924864715518822 0.21101326466021078 -0.6846341211181564
Ni 6.676800835206308 4.544698522630916 7.520144984248836 -0.6137449503067623 0.47809997527522174 -2.6807375711862864
Ni 6.909953834805423 6.081257505666492 1.5768328774351714 1.2973413741890236 -0.38912952148208474 0.3160942508619653
Ni 0.7987217551766224 6.220798768769788 1.263014935996513 -0.8092840305907739 0.2267263045200934 -0.39105142109514585
Ni 2.937986085116555 0.7608720984939269 1.9220312293203687 -0.07423803267896892 -0.36271657870619467 0.34759617812498844
Ni 7.278008099137968 3.247279336295931 9.70378909979001 0.3239739107203582 -1.2816262774466123 -0.6523531495972635
Ni 6.885462392117563 5.577859193455875 3.9705296269336743 -1.5166667582593556 -0.6241862002447445 0.6876338271764286
Ni 0.5091314314688092 8.288061024602067 4.927926411851318 -0.17436604575082232 -0.41934821115731 -0.3102997556673753
Ni 2.25869216869799 4.405083462336846 0.8912984860718468 -0.8657074036858251 -0.7853920544645248 -0.48773801258561805
P 3.193444285626873 3.6342072321687255 4.402162938511996 1.0796663812379215 -0.6816765811517291 0.4266419166052459
Ni 5.811630244527716 7.1070661313606704 7.5498880195250955 -1.2154869626153775 -1.6653857928660352 -2.3271064997211277
P 5.617276117977617 5.125952871107268 11.758740139271547 -0.8846186387680314 -0.16853812621513556 -0.7187246350439621
Ni 5.321921311205531 8.232814602659472 5.246150045579137 -0.32510699588353686 -2.401221376558671 -0.10248160090569447
P 0.641260689223821 8.125209073863283 7.141935304001013 -2.3926284926833374 -1.746935528715069 -0.4277107241893924
P 6.6167391465657595 1.2806118761363854 8.432002445205216 0.8986836015015297 -0.5950594580821171 -2.3544162432796742
P 3.309960825208927 6.804977330930529 2.0151088586479666 1.3415466079513283 0.1340714598968336 -0.35939137098770363
Ni 6.964342364405279 0.2852851800910809 4.443071488752241 1.568407381166757 -0.43450589273435486 -1.491823988184063
Ni 2.52913119893527 1.8217297774809582 8.957482721824945 -0.21553352112806753 1.4974073958091114 -0.5842623674666131
Ni 1.2722635689301656 6.705305000142461 10.053200348803474 -0.027052376132101798 0.6635945268390377 -0.4127222212003601
Ni 2.6497988304983178 7.2479818671421175 5.994387142547805 0.40003665531289173 0.7273655985484119 0.31967759733784945
Ni 8.879167298046644 5.00823712717515 10.503681462905272 -0.8737536710290693 0.8634641161776033 -0.6293852279471805
Ni 6.658563704436478 0.9557381930550152 10.417219751730492 0.41532186360673634 -0.39577273783021516 2.136754105844378
Ni 7.850766546026556 7.35543980155676 10.698328933288696 -0.21976684248312478 -1.9741120333987032 1.874035699500392
Ni 6.50337743688926 5.496488565979564 9.42103331841268 0.23739149754342337 1.5528411512973836 2.9885305012714083
Ni 1.8846234333174279 6.5775251643186445 3.4970422386083264 -2.246902736377027 -0.7376767506664329 1.6288108219554789
Ni 8.723695066385181 3.7364532399850097 0.4997379715482641 0.6797158578809326 1.7262507466722075 0.25648708072229376
Ni 9.21295199191388 0.9472238421695558 0.8702718214907895 -0.3618267199020736 -1.1427041743256965 -0.3537488279899456
Ni 2.1506807553525484 -0.020508239315875466 7.838476546368161 0.950674135636208 -0.16865485429865795 -0.14967239965888418
Ni 2.1643978081875193 4.997296693643022 5.644206557820532 -0.7354211218630367 -0.013072774023558132 -1.2878681445912656
Ni 5.0450527007221355 3.2288023646560884 10.45364604509615 1.6903967130880757 0.007490394839774197 0.5188031094215387
Ni 5.350139512027439 7.279188854190339 0.47775194348715505 0.285116057312896 -1.3500402472446362 0.043948380556492056
Ni 3.741240832736422 7.296485070777812 8.790013834338412 -0.8647828349890267 0.31927290570026307 0.22932029049951475
Ni 1.186538907198234 3.61501996256769 7.227587091007057 0.11142415481096295 -0.22119766139238034 0.9706690907008959
Ni 5.359677798934876 8.08866101513285 2.526696814104639 0.6692905487825506 0.3716174807402503 0.8713401764915704
Ni 9.035340603020453 8.456254047023062 9.397379473840097 2.0491139408268904 3.053354953945961 -1.7659228684508488
Ni 5.0072593143974045 1.274661977630295 3.7529570592365538 -0.7721876399591089 0.014765331234632638 -0.47325087471303656
Ni 4.01661505010666 3.759173550094312 13.03712887503589 -0.49345948845042753 -0.2741536447641214 -1.0998955638006025
Ni 3.5615077746082653 3.052279484326566 2.3411632967817075 -0.021298761477776224 -1.9225215629159214 0.522464617433526
Ni 5.560581426166098 3.688549638524349 5.20636229017376 -0.9518468157880704 0.21936189373522222 0.6448362723949281
Ni 6.30583158183822 8.234161401391082 9.229343270449494 0.40109517848439313 0.8120939892357433 1.6286604124205435
Ni 7.584469383121422 2.5971906581258644 6.474448938106162 0.13444118453142653 1.555519469460495 -0.19009554067093712
P 1.9315307727026503 0.6755376394082084 3.8536763876687172 -0.0950048329126751 -0.5700153706292957 0.0716874983429733
Ni 3.2707652922595054 2.611175225777388 6.517585241042873 -0.788405644479868 -0.35877122090520147 -1.457057274126839
P 7.129989383744599 2.497269261818936 4.160517727184653 1.1860138928569253 -0.9917737338899952 1.6359739153628214
Ni 7.4808120040316 5.704338353792314 12.647321966258055 1.0722104391805083 2.7845373766827723 0.6612093144363128
P 5.307540083653603 5.995053162194534 5.721486975998238 1.1941586334512466 0.05356893436539161 0.24550538489980947
P 9.001504591050935 5.861341877162321 4.427031669337683 0.8933351927054227 -0.45771935473634073 -1.2005755927211839
P 8.347357067388343 7.860913659757872 1.0024121488244173 0.08761111155176525 -0.05501569411424719 0.03436047975774082
Ni 1.0657236812536401 6.971306974284501 12.368994938792005 -0.6791273323673143 -0.2485485426015074 0.6071181890188642
