# total energy = -340895.7379820782 ev
CRYSTAL
PRIMVEC
9.01912492731990 0.00000000000000 0.00000000000000
0.00000000000000 9.01912492731990 0.00000000000000
0.00000000000000 0.00000000000000 13.20040099825765
PRIMCOORD
 96 1
Ni 6.322677118665912 1.887711857714925 11.470039604618556 1.4151027840719241 1.0669561327601045 -0.5904476703417186
Ni 4.756785675124755 0.3784334610816984 5.7915435598808385 -0.6171945994182596 -0.725878215369608 0.36723374985025786
Ni 2.6482315254570556 1.4713619956134825 4.717242223975619 0.29033462539935806 -0.057909984942906716 -0.19262961994670053
Ni 3.2767472813711698 4.14683127822554 4.8312547854815175 0.2558155085765658 0.748464071089924 0.01145760701763833
Ni 5.200201931008371 4.79606396400225 2.5567992450151524 -0.5611728326370012 -0.4758266058600128 1.2227320742135652
Ni 7.291267997522578 6.292805777044267 2.742158495842361 0.32856358697356963 -0.8528557445341377 -0.280247159256369
Ni 4.986123982719918 4.78855103297241 11.272574884369677 -0.6215755020947746 -0.8380382199053309 0.33713950156803874
Ni 5.712154516898893 7.819427950832814 12.394925608103794 -1.0661382648444993 0.19302814093669982 -0.0009250829174306649
Ni 1.9825118793891723 6.475307769107666 0.3684655242579539 -0.2868237840326221 0.09379281488244492 0.11859753263095059
Ni 2.9436800184648555 1.7085649801090295 0.489894512157414 -0.9470216264852851 -0.3737414690617886 -0.347613147405853
Ni 0.36648763017050623 -0.075560424467939 4.808761088016427 1.0965225335633115 0.2604056990504096 -0.18255320954730495
Ni 8.798499052806736 2.3686206157486547 1.2893677802811516 -1.699458823290344 0.41569595911670343 -0.39617023037895
Ni 6.933082471809415 0.6226289731011772 4.658144408161663 -0.07221560293230143 0.5078203851577899 1.2690723520410017
Ni 0.8552836129168344 7.384994743335419 2.306545586809907 -0.21485115034906224 -0.3308490405736366 0.529822600460494
Ni 7.395393794328703 3.9120364000744914 3.7794859292783975 0.9087039618520092 -0.4191240109616459 -0.09867096891035265
Ni 7.519920851626423 3.927567333127774 12.555653628867988 0.6713145211911148 -0.9065293227981935 0.5090370311737105
Ni 7.914336202005691 8.768681825934406 6.954723861972802 -0.08910852203289815 0.011683606985515363 0.3646454202977913
Ni 6.889366773488126 0.6460408174796387 0.4876595730107221 0.3772463968912535 0.14748696197179118 -0.4599035068718531
Ni 1.6486509334929111 6.568168678931475 9.272767029187078 0.578031813175869 -0.26681983010686955 -0.7884179857750422
Ni -0.009494432767241923 4.899675670689887 1.3784785379774598 -0.2863620139048552 -0.700415038101497 1.1189381822543503
Ni 6.531749452642767 1.8627829965306784 6.867666759012982 -0.5365295801670243 0.23636357049954126 0.47135879989664625
Ni 3.619329721031963 4.334519267098253 0.38693128054906356 -1.2747552613583917 0.40991766187202955 0.31966885558710106
Ni 6.0425070232145925 5.594058095644723 4.867991484966204 -1.1714197970928342 0.6116081064694175 0.12577759531915755
Ni 5.367488659389489 2.788352649682258 9.186898646887203 0.44384131120266784 -0.6457158467864041 0.2550691173288446
P 0.15066267739168127 5.549377350960657 12.63480366504046 0.21391732568088323 0.6560072014100831 -2.4308746806487296
P 3.8939350164287667 6.1803643470934695 12.481454190345309 0.6542686214524216 1.0022021283121707 0.8120541371367435
P 2.4461490132666666 8.511537556316439 1.188396873360066 -0.05092789719811875 0.3454086835553664 1.7210738304569586
P 6.3549475475071695 7.753236593296205 5.744880411546882 -0.8630882208954233 -0.5034929614270297 0.8978371943408344
P 4.834187804894367 0.9913010353190149 12.596099894418188 -0.8520301633090488 -0.8149178318377838 -0.07000805375802137
P 3.923346382681237 5.927801792917469 8.266737762929614 0.5081793111591054 0.7918290683391201 -0.2755361269339448
P 4.627920418756984 1.059016624961318 3.6279186336606744 -0.2012880669526469 -0.0845116466908351 0.4846251779882493
P 0.18112928125578617 5.430911145586169 3.527833404803371 0.5243754613029936 1.0901983911174966 0.4952307214182375
Ni 1.3421540125000524 1.1986146399431459 2.438497187713586 1.5829654814865899 -0.9787924911389789 0.6400002844588655
Ni 1.779942334454952 6.532795671129516 4.7251096066134695 -0.2629945428235083 -0.7467684285550559 -0.9066213682913676
Ni 6.1341052555543945 5.718233407071898 9.260662461677896 -0.7665983187967894 0.21164447048630647 -0.190633158341962
Ni 8.575618438629778 2.550951244439224 10.173404213504458 -0.2840595910239237 -0.46686194046755725 0.5767205505636132
Ni 2.3315971080926 5.133631770226559 7.015181761819533 -0.5191304108539705 -0.5693810794794065 0.34698476979323467
Ni 0.5147701605048348 0.1734467906780939 8.94669048997972 0.5207514913971611 -0.3513677293522787 0.8087356142864717
Ni 1.4122055554877677 1.1573611627156695 11.30277722787463 0.17687312844339215 0.11058109008437729 -0.6138619355006009
Ni 4.025199360016151 6.78470884831374 1.6320846049027429 0.8330109418940685 0.7341162870086841 -0.08579179895483935
Ni 5.572258870795835 7.633291251440454 7.924874147522216 0.1754947600386268 0.9658832392764783 -0.28406576167151076
Ni 5.344498910055681 2.7835183987434897 4.862961519017414 -0.17411562030291303 0.40700434487997644 -0.08380407910084922
Ni 0.8087214787815982 7.297437078944439 6.927319251007414 -0.2133681380456325 0.06419761772383137 0.5142602272458627
Ni 4.963026003887482 4.380859530761299 7.086634876814496 0.4185874217318855 0.33916270264565457 -0.012960931036042194
Ni 8.3403996616091 7.122285673662936 9.331997426136857 -1.1711542021362733 0.7905424883172127 -0.47109680448451124
Ni 4.625223700416141 0.3389143615697539 10.444143911975223 0.01498490344460645 -0.6662471339705365 -0.5973117444514036
Ni 8.165636078697684 6.99781273111453 4.981488152528636 0.40128544011832823 -0.40117642534428977 -0.8561300444100353
Ni 7.2995114776681636 5.949032812898554 7.073091758886034 -0.5955754784865872 1.096469311727873 -0.41618266894513484
Ni 2.375835915657264 5.309125902253721 2.5291439023779394 -0.7869074626677867 -1.250748356920833 0.46938496399972707
Ni 2.1660059751900054 5.225248040816132 11.518577829016264 0.022718524643438293 -0.7334706830048852 -1.2205232394877044
Ni 1.1411177187964117 3.2958046922547855 3.838610802467012 -0.7937404264292202 0.4460596590102254 -0.9558073430977151
Ni 3.7947426809351534 2.852514704119571 2.6879715935287014 -0.8284040392496765 -0.1557186058529641 -0.009335675578629082
Ni 1.0622274334206494 3.3432543082787807 8.399322506400274 -0.2884412650313871 0.0617625259197775 -1.0380409923876508
Ni 3.496155532467108 2.526094536254063 6.876168186130301 0.1255009446190032 0.593455603930107 -0.1796730597860325
Ni 3.7757574230506235 6.8440817474367135 5.994856280705645 2.098050775736909 -0.5554300166159531 0.15202367349988014
Ni 0.8908243764416691 7.330365903902357 11.493245812949622 -0.4731392888358367 0.2603252235214613 -0.18968827793018944
P 0.1355150571460436 5.464290926788375 7.9871800660580385 1.0822783649394716 -0.03324539231669114 0.6467057215034991
P 8.441233477831922 1.72531349502189 7.915910941210746 0.24697348480490366 -0.19790706629555593 0.5813140834715665
P 1.7710584964424765 3.274988552018446 10.517537942645601 0.22458534691769064 -0.2934569730784236 -1.1051061614672644
P 3.9259529097732226 6.20392230129508 3.876561476161323 0.23018135294822936 -0.649082963486424 -0.24365907571969006
P 6.743924365580323 3.9841082270366175 10.452500131181882 1.3333489026318843 -0.3864373193619022 -0.3193644369728048
P 6.35341429627659 7.816262237997912 10.207157386476934 0.0870495826213404 -0.42275543706664614 -0.24269156960009813
P 2.3069658780295836 8.341987027588994 5.7423460374539825 0.127643959103935 1.9747046726773798 0.08832253579649305
P 6.903427589185029 3.866101997031304 1.551733221295487 -0.03032333357388971 -0.47437598945641524 0.09770783366613495
Ni 5.189694650516458 2.750003330667997 0.5571825952801318 1.4899188007415503 0.09993955121013111 0.21933875380677068
Ni 1.4751500280655025 1.0301915018264218 6.85792520222387 -0.3344233881884563 -0.1798682065159741 0.8026410713529596
Ni 6.961537810823995 0.7984441859742721 9.365076870480367 -0.5601613606533514 -0.6095980180179243 -1.1813712518785913
Ni 2.8703455140187226 1.6607545990896038 9.253995524562342 -0.34933475808265 -1.4814413593981584 -0.5419106419732796
Ni 6.450721634669078 1.8217730356751174 2.6052707278887044 0.4002747394656268 0.7101340651614738 -0.31622820533666834
Ni 3.785308676304646 6.730458812125881 10.29711774573748 1.0938874099333096 1.0677320916941806 -0.008210560835250376
Ni 8.062899227123967 7.287615251943844 0.3211917811692311 0.4460174929183802 0.1052085129185543 0.47927548364056166
Ni 7.454514157954875 3.861772817086138 8.205579978991748 0.7389422476424178 -0.9192549978949781 0.9858504264270246
Ni 3.0492578943775883 8.490486918833069 12.297572272174389 0.9109017408342763 -0.34118976037801235 -0.18559996679342874
Ni -0.09415785998238077 4.975932371599007 10.145762399554574 0.4077885313441687 -0.8924587036377404 0.687092609960978
Ni 8.71761554083122 2.372237284827845 5.735732313175253 -1.7078385627136068 -0.1296260225309703 -0.20334032149598527
Ni 3.6804974260072028 2.6524524759035923 11.510670762228916 0.2212205442105158 0.17101229878724097 -0.21094847286054635
Ni 1.1327389517775386 3.305076352637349 12.578041802571914 -0.5516214415031403 0.17541454161999467 0.6350812498906934
Ni 3.222073346313679 8.244778899570248 7.892519840819521 -0.7697016403124615 0.6378647261731014 0.911160908032934
Ni 5.591153937431507 7.962029334401602 3.603088982850171 -1.1503879161231996 -0.30944537808687994 0.21615341410025354
Ni 2.888248476916961 8.391213411215485 3.4724713105170966 0.8472929057343795 -0.2471418920619679 -0.29550742784954914
Ni 3.42649181184948 3.939779228223096 9.170991616326184 -0.6956788089680922 2.066106361619829 0.2364723281632637
Ni 7.238686499438583 6.062745939458243 11.51688764501267 0.06510496002944917 0.6793710729470042 -0.4081245745273487
Ni 0.7032049329180885 9.16830121137276 0.14548119014481087 -0.7191095291872067 -0.4058949138658816 0.6371610152378576
Ni 4.598545129004057 0.22806300333631577 1.507564762904932 -0.02931391847276887 -0.1571597091748648 0.2835895933660406
Ni 5.935450010820595 5.598242969591716 0.493331700651378 0.18807851024090835 0.6462056419386291 -0.926830753359707
Ni 8.04063100778102 8.76648115946228 11.362720135690381 -0.26485139352658904 0.3620756026880861 0.1197254755878067
Ni 0.2344232902057553 4.943057661390403 5.712473793919849 -0.6121002156144878 -1.038912596359327 0.23635585719005744
Ni 8.008676248310765 8.719365251059058 2.711388849382095 -0.32550705953543296 -0.2838181644370789 -1.175194433643918
P 8.588254232594734 1.5577020781448845 3.6088044022902785 -0.3946651065883332 1.378737615179329 -0.36231214417892443
P 1.7958250133787794 3.326316391743319 1.5310749157446486 1.0594107163126787 -0.013180760356332139 0.5507668068123289
P 4.685498512027691 1.1067548529816575 7.914208130432314 0.31366687236739527 -1.1873822339593614 1.2848995488812451
P 8.497314396371591 1.7103056712119817 12.308265346638947 -0.7754506269810968 -0.26020746699667446 0.45334308004551604
P 6.26562213463858 7.734548966532906 1.510244344908492 0.09674366998065274 -0.198994900043096 -0.6984692272290358
P 1.6001460798572815 3.1238280189330707 6.026048924123054 1.9492561506972883 0.8019304184391802 -0.03828244051996633
P 6.935752132775601 3.969659588969626 6.1321805743037725 -0.3708543773219806 -0.1536056732750193 -2.011597431938671
P 2.357400824390766 8.51066270120252 10.122450667462344 0.013906325668447019 0.592519979489715 -0.3921631661020859
