# total energy = -340886.77483264625 ev
CRYSTAL
PRIMVEC
9.09397359623793 0.00000000000000 0.00000000000000

0.00000000000000 9.09397359623793 0.00000000000000

0.00000000000000 0.00000000000000 13.30994959103618

PRIMCOORD
 96 1
Ni 6.549443193069587 2.181053085840305 11.520666424418343 -0.055570795286768816 -0.24250053663521462 -0.1055674389198698
Ni 4.883736480033436 0.7508848281997669 5.783652433237653 -1.2076620672543201 -1.2579646721636142 0.28343918383110545
Ni 2.8710219339058076 1.7751617756465872 4.672617161736655 -0.03370999065793549 -0.673642140883027 0.05355222219484325
Ni 3.990426389032627 4.624840154222826 5.117448865590882 -1.866578214781082 -0.6886026188476012 -0.14835650906093803
Ni 3.6978368921542484 3.0799650643924625 2.752364679715486 0.26340077712299154 0.3664552198130204 -0.24731132776029663
Ni 5.273185886505015 4.9619810262863595 2.543357891415748 -0.2481569635900436 -1.043867626371757 -0.8416009975559248
Ni 5.046818703180075 5.019618629046824 11.32327991519833 1.0531516227768443 0.6385702368805583 0.7391391941445722
Ni 5.651158698674967 7.9218419853368465 12.237459765519903 -0.3070074580693487 -0.6448730391701345 0.3018896772268091
Ni 1.8248421517716134 6.583072706324272 0.18270792692028334 0.34412853129136217 0.618930865383076 0.34984717894269424
Ni 3.1150132374815804 2.0983252107516432 0.5054066599898297 0.9918223277397434 -1.0593960610246593 -1.3333195920558456
Ni 8.015191621237156 8.78862495622843 6.763424384763137 -0.763988134867452 -1.1822153450464414 -0.30997168290399524
Ni 8.431177241791257 2.134337345010311 1.1795983737812505 1.576839313984194 1.4591851191031193 -1.169828027125682
Ni 7.060224391278324 0.7181856284134305 4.548834544195781 1.5925880921780184 0.27980107285788586 1.7876417481851792
Ni 0.7005842430958417 7.3829240337452005 2.45845382851696 -0.1361226859989075 0.21021339446673473 -0.1400796137641265
Ni 7.9429490973606764 3.7897405863002325 3.603189546264365 -0.2353050473280399 0.9735818934723168 0.5518417850440626
Ni 7.766635143065965 3.914146141011994 12.808217536421258 0.06549088261395818 -0.6061920776601689 -0.8675465137770929
Ni 8.35873465050223 7.178073191242484 8.90200043072748 -0.688494375404511 -0.10340308427869935 -0.3297712341284256
Ni 7.0944086369041655 0.5202616653715302 13.263697373609697 -0.5193471548504669 -0.2761714465250986 0.19841974426591635
Ni 1.8854080139339182 6.759286626912709 8.893029226069354 0.5147209689323651 -0.0790267123168639 1.5788771703498292
Ni 0.1478661870250222 4.85782775010845 1.1460679848355098 0.35753040651956486 0.13201174915432748 0.4385337829468253
Ni 6.695083175431346 1.7288097937484987 6.921280301455621 -0.008207732621772962 2.133630729724048 -1.0709904507304782
Ni 3.7385233286879047 4.636553191830191 0.25997123345439144 -0.046541080984332746 -0.31573686752254654 0.8594372544063973
Ni 5.863894016026739 5.8454423442058205 4.727134622258697 1.1667848694239842 1.9521082754341028 -0.3513368761143433
Ni 5.496988569360019 2.647364754623566 9.473103772614143 -0.817623917915037 0.5790587117784867 -0.5961151530401412
P 0.3518731088057161 5.398355334973778 12.269709723025336 -0.5644533031604859 0.7650482007008501 0.12692045067434918
P 3.8189868044254536 6.519205731854924 12.43195802882058 0.6858967898806638 0.3565212485287602 0.9806326296715112
P 2.0221449964372846 8.729277686488008 1.2474766998721907 1.6616756910042996 -1.6160499227453844 1.6051047365877904
P 6.139141305826512 7.879273096330577 5.722266294683901 1.4052024942390768 0.3206242775218349 0.4377421402834654
P 4.62795029309062 1.3222091536375646 12.339893371347229 0.5229896366990606 -0.29609646758379976 0.1761367644979999
P 4.158901338344768 6.275878288329879 8.203347747560057 -0.013821222153808455 0.44435270362144763 -0.7643766285551222
P 4.792978626522955 1.3553748742540703 3.639166214027172 -0.3222042204144451 -2.1886731633111722 -2.006110697792487
P 0.2328202667769473 5.732886236700889 3.8341437297206356 0.29217322126999357 -0.7656112722931718 -0.9536692137087898
Ni 0.6476454963382702 0.01546521098997237 4.829102616653183 -0.9113372857097981 0.7328592746731314 -1.074506948524169
Ni 1.9675447807582334 6.689181186761176 4.8154061834696025 0.6323162855510465 0.039940287838363474 -1.0609430937968052
Ni 6.250742546135192 5.8279637275277505 9.365585726316107 -0.8133851972433411 -0.20087669044684114 -0.8333842660730874
Ni 8.682871140750134 2.3765462298197453 9.51399118595768 -0.744541596107066 0.06291206614318842 1.5188077158617586
Ni 2.544511916627219 5.583590477073477 6.964164751335317 -0.22156815735792162 -1.9001930746220503 -0.3791266446331019
Ni 0.6389061879992348 -0.10544371098884547 8.695949183749475 1.009272404895391 1.3490483156450122 1.1188880457427053
Ni 1.4501249820422166 1.330821146350433 11.083088073666314 0.6996889585687498 -0.4366787320159576 -0.32433232250104144
Ni 4.156964322032371 7.435860052310782 1.7227068282684503 -0.21884278800695856 -2.7593786180289572 -1.4796534142598001
Ni 5.777164792687114 7.7031592094484145 8.070248354375748 0.42779377082150194 0.9683003333584033 -0.9041988748928041
Ni 5.564838704133736 2.9590606894002933 4.617022065378842 0.7044694106765287 1.0064922710470923 0.7827175929561552
Ni 1.0247907569381371 7.604144028183674 6.849086885034948 -0.09577770652295763 0.9922694425794911 -1.3486428526764773
Ni 5.401892890586561 4.862829435422153 7.056110277758471 -0.11536488462626583 -0.08217759924101976 0.6174277984749883
Ni 0.5847615803823958 7.253271256440699 10.904255998165487 1.2759443965704864 -0.9526687974687335 1.1463091180681355
Ni 4.759994785372402 0.07255171896859906 10.315303914887538 -0.1882626012272564 1.0783340355797428 0.0021412147127188932
Ni 8.103139436998665 7.314755609906065 4.7190428048184545 0.051521050697427406 0.510733702149843 -0.928918232016355
Ni 7.586401686279972 6.223387874455881 6.760389725873713 -0.7393271417856622 0.4528381153846394 -0.736281670091119
Ni 2.2902262352785145 5.34841123362312 2.5830885513558224 -0.7190838181555937 0.5183135713796299 -0.3749316327151478
Ni 2.447333717968602 5.114787059606662 11.495031423089616 -1.670758112921542 0.8172233400425089 -1.3514800650149563
Ni 1.2158733238682202 3.3643881732495577 3.8776274724406474 0.7432776417929781 0.978518668652302 -1.334381457661457
Ni 1.7016915653749263 1.4949128005331105 2.268853579234393 -1.2165426575734017 -0.1589625667115585 1.3649012235168687
Ni 1.151924503639192 3.4866384562897776 8.065429457925328 0.4324014447968424 0.5372541170378746 -1.151246407468753
Ni 3.8002532194323084 2.957896660818195 7.1681398442094695 0.3952070951347323 0.5766904686566261 -0.5033420376714622
Ni 4.108975424940707 7.154001443923623 6.13613938524096 0.6784459900295735 -0.14475053687723458 -1.9270492755829458
Ni 0.5906290119540353 0.42112280606994085 0.0007729877302996891 0.03386245707539975 -0.8938108467902607 0.1978733848441431
P 0.4188702288841146 5.780047582222467 7.703532062353619 -0.5606532126881054 -1.8692218230515163 0.6245176154422342
P 8.73475225841319 1.4701771931635206 7.59404517083664 0.30384988627697346 1.274470126017805 0.05485397172540231
P 1.844939832759405 3.2787775086255424 10.118463044065388 0.2513752134170251 0.47400806459403527 0.44510757950960117
P 3.9303606954016925 6.170388198077214 3.5858600707483754 -0.2106566526517404 2.11379184062125 1.1157615842985815
P 6.986081226982637 3.97698549649871 10.27458837763933 1.0127747616216947 0.4649721796440121 0.10848692655950994
P 6.877471903888883 7.888967271865865 10.222094326176013 -2.7700782638346486 -0.8364477354897595 0.6691491381086798
P 2.566319264594968 8.805266927363117 5.606017124622795 0.8174711943872567 -0.02891694014466633 0.752700991989407
P 7.001741049001179 4.072081175272167 1.5932804908990597 0.6973132592477217 -0.6303547909493015 -0.8564285494870606
Ni 5.532555098927102 2.6491653613364994 0.6971694561225766 -0.025100651722369676 1.0014472524240172 -0.8184335583005259
Ni 1.7099488931291864 1.4440320199327956 6.844082471529255 0.6380791561767526 -0.8037427890575707 0.17807434784034493
Ni 6.783085555032642 0.6724947783740808 8.947825871571634 1.0168003378413197 -0.7599242492107234 1.166262935482243
Ni 2.998428499805792 1.65436652833399 9.10810442275061 -0.6538647011457835 -0.40924351862314035 0.5869540553661633
Ni 6.783367468204869 1.896075244612054 2.608204286809254 -2.9594976043741674 0.9324807525566328 0.16855509549600003
Ni 3.9104357999065558 6.906790873800485 10.19933392980667 0.5928326256341274 0.3688244913761454 1.2227611276792876
Ni 8.409615431102544 7.35706986766 13.186485902723383 -0.4029561429525318 -0.2953835006771751 0.6365637479734909
Ni 7.578235298258687 4.309915858925435 8.032820288474637 0.8011261773703299 -1.7453491580645555 0.2643705972354286
Ni 2.9351890094939797 8.802138600548727 12.64994875334106 1.3164780950184747 -0.23087169414703465 -1.2253980510815023
Ni 0.2616327023758709 4.97564017417942 9.80490739174929 -0.18460469275969496 -0.557363229082924 1.0003709886407028
Ni 8.9685583118956 2.4886476386597955 5.600067847291476 -1.4548204143765202 -1.1525268168430731 0.3792832248156242
Ni 3.7709069676008125 3.252968812406831 11.302116420540058 -0.5643730847418539 -3.4129730962324896 0.6224859297241859
Ni 1.3751178902832542 3.246775816591135 12.690770690076853 -1.3455521295662958 0.348796883301309 -0.36518715173387434
Ni 3.3798206459356583 8.464952258618705 7.856836445410631 -0.4778426078487771 1.5540981636329365 0.9826733142506239
Ni 5.733568284698213 8.28684679158436 3.5791387150840874 -1.206733899013096 -1.1116010251629889 -1.1491769265342338
Ni 2.9548501797634845 8.582464581570854 3.324812110855543 -0.19766178305396925 0.4481659067199507 0.7786603921676462
Ni 3.9226671939918862 4.473252713324408 9.20195331778496 -1.0839495819943072 -0.7335825259924011 -0.0521676831424908
Ni 7.318829709943409 5.892776475220055 11.440513962567573 1.3472997083850218 0.5271242276927244 -0.03474331701845629
Ni 7.937647310928151 9.032761763376964 2.208214055888377 1.0376339867572193 -1.1234952054974137 0.2598482838850428
Ni 4.882390571985384 0.4418607027778869 1.4309657990987417 0.2118586433796416 1.3477409096874982 0.0004543139285992175
Ni 6.117015668793346 5.697219673427531 0.2587990202963252 -0.19499297797255452 0.822428538392532 0.5526002604766418
Ni 8.410733989818155 -0.019883063217967532 10.902379002076854 -0.12253003491613736 0.45925353199268 -0.2789973460096679
Ni 0.4008196012856222 4.74684489998401 5.8104587383271165 -0.9971267706717923 1.0866386987906962 -0.27565002680398976
Ni 7.555945969706164 5.989445411374004 2.5067691992500096 -0.4778066124045191 1.6578534890447318 0.09350716532122606
P 8.797737117472668 1.7338660429019885 3.4218284367894625 0.5483206592646815 -0.9844805426626916 0.8935375385242159
P 1.8895821476775365 3.558608160967328 1.5411320104210533 0.1852767791260551 -0.26566566189776825 -0.5623254581842058
P 4.787331269105119 1.2253128681511742 8.018405431400543 0.7354589170795076 -1.3252584123142659 -0.4461835861825993
P 8.623105548238021 1.654111897081656 12.039142033434214 -0.9269395110234294 3.369689088732874 0.9056451204210273
P 6.413997554774486 7.782276777137913 1.3087237006344892 0.01244979572757856 -0.6718840205413396 -0.713831568617719
P 2.192029511610561 3.565792399872466 5.850281247397497 0.10666838529353241 -0.941148969754592 0.4881504175326884
P 6.955670980275318 4.272685132244883 5.621883379835194 1.7025996829121708 -0.9012166523360285 1.4831146333355234
P 2.4407042114346194 8.550471983509745 10.147399157701159 -0.6069351264737806 1.2565675347057714 0.07422183472905282
