# total energy = -340855.59038401145 ev
CRYSTAL
PRIMVEC
9.42918526900105 0.00000000000000 0.00000000000000

0.00000000000000 9.42918526900105 0.00000000000000

0.00000000000000 0.00000000000000 13.80056575783553

PRIMCOORD
 96 1
Ni 7.167962991814651 1.8548339111008494 8.644881754001432 -0.11431973119120312 0.7047072377189476 0.17157279927640132
Ni 2.279835582961481 0.9517159662305402 8.603245300194608 0.43995868831880997 2.404368406828085 0.20708076237502399
Ni 5.567811377364915 2.551726142899833 3.1908014388093067 -0.6779855054533872 1.252479480679327 1.2134046261650524
Ni 5.027000450877517 1.5804917629681516 7.279618690289073 1.104689128534504 -1.0141415600622339 -1.7102042347323063
Ni 1.4546215675592025 8.454009583456466 8.42916462294384 -1.957845435028196 -1.6657244071523765 -0.36268006904130445
Ni 2.1139479248725124 6.661521445974913 11.855500511687882 -0.6052001460605447 -0.24214726706085396 -2.030372398553329
Ni 8.76914238746894 8.29506180579457 1.8162647712925668 -3.0425231534377795 -1.4494079851116972 -1.8386529491257237
Ni 8.081999933335164 9.319259919909491 11.236655532974444 -0.49622676678291955 1.5880776059021746 0.21129660022858449
Ni 3.27918779364524 0.49894251472064804 12.502940437932757 0.2216193223108312 0.30220592291564724 -0.050371767584332615
Ni 2.9055468944561595 8.438602294573537 10.368779168397863 0.20893658463684014 0.22705334884220896 -0.08060382699599666
Ni 7.2294695679366505 6.316281253098797 9.723988843239953 -1.4019911863906307 -0.830230550935454 -0.6829029973596626
Ni 7.509770961218682 4.244142336125249 10.870374112961086 0.5296223115242298 -0.4444689174843378 0.6347089541529392
Ni 4.428011450701211 7.494410818262567 13.08685594238798 0.23449720671476387 1.1069596697362356 -2.8702993508409405
Ni 8.973284250575071 3.5074589420949556 3.124737737401432 -0.6770923042151564 -0.42528565968766757 -0.5728741802343295
Ni 4.034540974694016 9.167610331718455 2.597266279446885 -0.21307888893998786 -0.9982331163620938 -0.8766731586687095
Ni 2.708231761552746 6.935778731439345 2.5702724075900614 -1.3255885419601752 -0.005173573781139477 0.20631251675043177
Ni 8.144355136139822 4.187340923499321 7.568713741840518 -0.21890269471061655 -0.020131737752868552 0.6014417074593771
Ni 2.077522981815746 6.293547487188918 0.22911128886554735 -0.23134066336365322 -0.7712458448711298 1.6306622733419207
Ni 4.529676927283673 4.130218918571056 0.5941942594192865 -1.6085932093570234 1.1426301265546515 3.748066256794461
Ni 2.775744728750894 2.2448815928213226 10.402991081649962 0.39099537104622983 0.6580856812056666 1.6024374741682725
Ni 6.14810230296665 9.26008235257212 9.530988505558586 -0.6693463417211505 0.44247785519623795 -0.19824850879537473
Ni 7.424408546128622 6.942803474534682 3.3930206910199496 0.8746808108290292 -0.8444330676880811 0.15295492706489788
Ni 3.1353455709346605 3.289409030578591 4.600873877203094 1.2459511926425058 1.6238833027468744 -1.2167205779121626
Ni 2.51123722095167 3.213315504700231 12.966446188222669 -0.15335653337869073 -0.17928148077456868 -0.44686004342433366
P 3.718446393774531 5.009556457956208 2.5487851799851535 -0.8818475037807973 -0.5010208457374533 -0.07806460551391071
P 1.79033828321882 4.465747050523416 5.7555398575099 -0.7252822336568219 1.1992465894971154 0.42858309949201673
P 0.6111649072353795 2.500327653486829 8.073220418843794 -0.3040442616759667 0.4073285609886146 -1.2777300277159995
P 4.402194341177673 1.1075143959812384 9.277057714980893 -0.25939731239055325 -0.47322336390921077 1.1798504443586906
P 4.6994871264835965 1.8066696322673104 5.059535854972099 -0.4811683297879003 0.46104841910957367 0.3929360397123684
P 6.133289052761581 4.22548197829213 9.041578897239802 1.3237322054777267 0.4909236094024512 -0.6619755031783761
P 6.676721292779859 3.828013527691078 1.7898639951950674 0.0842571074778678 1.107744113310744 -0.22641494392726166
P 0.3616922354972511 4.872276948258186 12.450221862568954 0.9471301270386914 0.9541248131889696 -0.4695168615919011
Ni 1.380706183499666 1.6999029664035352 5.199183976033273 0.14408230716561637 -1.6911109655462813 0.35743347593038444
Ni 0.4235024313879354 3.49801089836136 10.71394487070961 0.2779709616276826 -0.28894828657479266 0.6520037366776448
Ni 0.14490489190097464 5.756677960183198 9.883744702087448 -0.10365968037419566 0.5658159878359675 0.31706947029104104
Ni 7.222887996553367 1.468557903525524 4.865196572969207 -1.5416874486734093 1.367075605460368 0.6714176224278824
Ni 4.979005897380509 7.416686043316432 3.660600227410397 0.9153106685352494 0.328114415251293 0.8323360273142311
Ni 3.1923449964532087 9.363067915105384 6.7378365577093 -0.7432907544191005 1.2669128824958373 1.5900427000483455
Ni 5.003370912358165 7.1926108823531925 9.16444495419214 -1.291051427415254 -0.41450091036733777 -0.3120283083227077
Ni 6.502479376459387 8.170021378697554 7.206724487004336 -0.12513636219073285 0.0593343760942591 0.22106987756526442
Ni 4.976554309186163 5.036052468825872 10.826875395045095 0.9392720644468534 0.14224653950845825 -1.8645218464726858
Ni 5.631345228339932 0.2762364714720982 11.7641401917885 -0.3995342617551764 -0.5143016220067594 0.9499776237898155
Ni 8.840747621114573 0.30154629082311335 3.8468388962680473 -0.14149397761314988 0.3792060917207856 0.24915300895472575
Ni 3.7820085323056363 5.291253370671944 12.679145510645778 -1.6738969156608396 0.19399873238008525 -0.41838096214803433
Ni 7.989160174252348 4.921072982511037 13.706639125045022 3.5570649164798027 -0.1010860061097485 0.4431147174492885
Ni 5.404714758143356 9.217915035629366 5.381461444119982 -0.535723025105329 0.6775224497740396 0.6023320804841304
Ni 6.1308657521233245 5.151805148340461 13.028010282375384 -3.100595374990163 0.9034293437166312 -2.3781400692591754
Ni 1.3449035666768492 8.712312687286923 3.1121384599195654 0.548391621711933 0.8348639359424073 -0.17019288820973913
Ni 2.2642962854834714 4.940280233095203 10.202993345510812 1.6954422459317833 -0.20280013272179911 -0.39257737082136906
Ni 3.420361556898127 5.076579107515487 7.2490228696236345 0.3675147714257864 0.9911453562773769 0.03058301499317959
Ni 5.3426141433434955 5.251528212738173 3.9237489895988316 1.5537963161218014 -1.5151585491449455 -0.3712035331312833
Ni 9.210324541412255 3.1799644760717607 5.445413950925111 3.1682441844873885 -0.3488465055923218 2.6252724482394463
Ni 8.136255465913116 8.256703879738415 8.884100186657438 2.091126023592618 0.74302181702843 -0.006593336946801548
Ni 8.264718687296854 0.6885351448118716 6.916443243934244 0.8562290318817447 0.18281674762133676 0.31194346191838535
Ni 4.300151697180696 3.2472511428211996 8.564231102837198 -0.3717920586449016 1.249389014679461 1.1725803930598386
Ni 8.29552383587735 7.079243786735408 11.719468483213369 -0.7817560003738343 -2.567062158447301 -1.8236788443143948
P 0.4132868519658022 6.7609710639971015 2.5000004607547375 1.3784005435548843 -2.1125667099648973 1.3418952495399987
P 2.550453202875845 6.62501164024988 8.774441589642873 1.0922498743298865 -0.9177928115271548 1.3988462130037456
P 0.5132786481463554 8.67678351683963 10.420420930793226 0.7986718022925664 -0.33471289440441715 0.5128227234683878
P 5.474820751316293 9.127281705921462 0.4108277204231658 -0.5881298208418194 0.8563131069551189 0.47700494243883007
P 8.785907479044122 6.368980970091876 7.95155469718815 -0.31342570289086663 0.047633799827879256 -1.4429678859133086
P 5.797864641848213 7.390576629046644 11.263994513015549 0.29347728479339774 -0.10196712316312115 -0.7304714911672452
P 4.828006922979512 3.288230382408232 12.279771421682891 -3.9397967619656598 1.9072584661092635 -1.1095685681139924
P 1.0292615866547818 8.9549161974882 5.396118169848028 -0.22148408228454758 -0.23726242816472687 0.2044512951719769
Ni 5.891581315169777 2.6338354890397033 13.760364737405583 4.218258290076516 -3.4754416470803564 0.7846492627612293
Ni 6.0727442535465945 5.799750478920788 7.285898527740746 -0.15013005602159304 0.7535286300970249 1.6709733142561416
Ni 0.7355641497277212 6.634223954349404 4.750554651490363 -0.25508660083034135 -0.4627893130600804 -2.2063366420292065
Ni 8.480524452696857 7.964964884611223 5.688151355558541 -0.27753721652437363 0.7902372983719681 0.6646785039318359
Ni 2.7436289234049593 1.4061555547940516 3.432932546823905 0.40201563341613344 -0.8285981575383536 -0.5686609134839303
Ni 4.352323379793455 1.5955784595487437 1.4065534664163646 0.4557228931316022 0.681843959967529 -1.177681718842146
Ni 1.6250446638077116 6.6916854099507335 6.801926730620726 -0.4232514028664581 -0.10317759853145457 0.2925501449934381
Ni 3.147122623452885 5.928345708899607 4.624279944029347 0.15606930432416347 -0.7238691553593791 1.355894649142884
Ni 0.3835575734352099 5.011847749999385 1.3322458282457326 0.3981309536497466 -1.0910260292251146 0.20017657905602299
Ni 5.7275229190412045 2.586953579415514 10.632659635370455 0.5674100717959647 -1.6918419301750347 -1.5545748461590387
Ni 2.2915372019968023 3.1966069882372254 1.8513319116570797 0.6499692227461195 0.6674146719160764 -0.07518342731137374
Ni 7.606335248519832 5.765079364341514 5.427569217625879 0.13948851714734686 0.13720434909886048 0.8489952331374668
Ni 8.231084783107498 2.723903067625836 0.7507837978219294 0.11875745524758258 0.091757529619971 0.01605448235970138
Ni 2.731616141252663 2.7471742971013984 6.87486242232106 -0.9489409549951849 -0.34977518805417823 0.6384437386050231
Ni 0.948114017421924 1.2902048623868414 12.227329121450218 -0.4177183888633709 0.06119611189334623 -0.38535694181352986
Ni 2.23136957019633 0.8314212481266559 0.9941765308380794 -0.8642989533740728 -0.8096429565920895 0.19797777163249128
Ni 4.53623964029623 6.933676023103425 1.3438738996352237 0.2628780718503021 -0.7474027197049451 0.7476878550455317
Ni 7.434790079213141 0.41396292455632 13.533248664162818 0.6285658173696789 -0.2192989017077707 -0.09728308742389052
Ni 3.122559595582609 8.452123746383894 4.800733947235948 -0.7491132746381486 -1.2657512580875685 -2.1509993029094825
Ni 0.03203565727035024 1.3805553165338598 9.752583790771391 -0.18251515722051792 -0.9945045025575969 0.014008912684582325
Ni 5.40193314846131 4.124608553280148 6.012091961618471 0.19343283257428623 -2.1897180596359194 -1.0046750153326955
Ni 6.863381446223229 1.189887759311269 1.8775120448170874 -0.15327477229816183 -1.5926359146968185 1.4240833903039798
Ni 6.685518722723416 6.368009763999501 1.1715065053648908 1.2151308648275396 0.2916520586592009 0.5139406391229149
Ni 0.5805587144660403 8.063150991794787 12.88880344718919 0.3976486146966894 1.6347927505705264 0.22475529683665163
P 4.4156215011344 7.631020855799825 6.541565235625555 0.7109038534479628 -1.6660653354315629 0.39106916170695877
P 2.54113716773733 8.355795188716815 13.756859909206202 0.0862276009406773 0.2838518458884918 0.13415064987420122
P 8.009225480704535 7.67762931904849 13.610476521040331 -1.2900787790893393 -0.11164449835188513 2.1958059177012115
P 8.139301092785324 2.1438667300288983 12.112977618880551 -0.13505902062108352 -0.12028391919443801 -0.8938008194879317
P 7.5043868963764835 3.786232807348202 4.872028017764605 -4.293458686668754 0.21386050430101877 -1.6433786924673246
P 0.7903760042420835 2.3300742825748517 0.3960635019819842 2.285088246307813 0.9793036264474424 -0.35025341324217746
P 9.18250844459179 0.753821881345846 1.7170801133790754 0.7732929572081456 3.5775841194790776 0.2191685467774935
P 6.684292928626244 8.850214523218895 3.7830249984877535 1.1157420439145558 0.7220626982782596 -1.0980461692966896
