# total energy = -381163.8620385725 ev
CRYSTAL
PRIMVEC
9.32308051008620 0.00000000000000 0.00000000000000
0.00000000000000 9.32308051008620 0.00000000000000
0.00000000000000 0.00000000000000 13.64527071793273
PRIMCOORD
 96 1
Ni 7.183163209848521 9.264046823830826 12.738133373563603 -0.448440500537576 -0.9128791762756213 -0.8366788776639591
Ni 7.221126793929561 2.142294745696895 13.733965172335363 -0.9268176407335844 0.06944832459980943 -1.8880914062625096
Ni 9.029291655078223 3.3854995704646935 0.8782985189499392 2.499451658387179 0.23877140861008556 0.1280180546139021
Ni 3.4930879202424943 7.2744827840316715 5.750485418656611 -0.793748139738704 -0.8645210966872078 0.9309679154565321
Ni 7.416314808743083 3.2879894707830633 9.591547065785731 2.2781524384199283 0.24830994422814012 1.5679551241206868
Ni 8.611216753077711 1.0802000840819175 6.301127067898069 0.6351815229139836 -0.36468784349995254 1.5265685907540998
Ni 4.054551801409609 6.242072810951575 8.068353349955805 -0.17214435550915516 -0.13573624919376623 -0.7400303385002738
Ni 3.2296736018177126 2.6540199920230587 4.703360827512882 0.4444367786948217 0.5688205789902462 0.3914322014733323
Ni 5.398334019366568 8.613528877059071 4.425202057166645 -0.6948113187614743 -2.031325249384902 -0.748354284984937
Ni 4.7881850114629145 3.5147081440843246 2.553016534051849 -0.010045814271776247 -0.3929249839687749 0.6666387129820003
Ni 2.2847887091287764 7.155781322214431 8.98940844870782 -1.2440588607157994 0.668861431664932 0.4025727914711841
Ni 1.2206895851912485 1.121808992665828 1.3384745881884583 1.1047618907539682 0.7789750951945875 0.15527689032985517
Ni 7.0493210651856 0.3871194775839418 3.046238262370734 0.7935229111017753 -0.9757683596006743 -0.20176937746443963
Ni 7.355621554232382 4.437674474353192 3.300558848007537 -2.04870616386551 1.2466201936850723 0.9572332769109644
Ni 1.118564560627468 8.884308429134153 5.938148775142086 -0.7887601996058092 -1.540994793481759 0.028923882123201797
Ni 5.173918146966096 6.063004402443583 4.5143745258945245 0.6539184372018544 -0.7278075711818368 -0.05085796319213176
Ni 3.3272862553856135 7.09180634334309 1.2305440813537387 0.48345969692523827 2.5313418222275565 2.1840446634002255
Ni 3.5847897407290152 1.294136813921709 2.4728501611545894 -1.7170425978103783 -0.6363590881618524 -0.6597926365944444
Ni 2.240494753340706 4.882478648347894 5.609898025201295 -0.38005558420527447 0.33354921311361907 -0.8422368313677107
Ni 0.998073067340787 2.338965130321047 5.4643442267263405 -0.6315380126241252 0.8135633746924181 -1.3055390795084678
Ni 2.0845848769685946 6.5896652238428866 13.048262851800486 -0.6515728197878133 1.8503010748876134 -1.3202311343030038
Ni 6.747952485760348 9.173100172870475 8.39263339988183 1.1926913048771006 -0.000385151253560627 0.25623254150932645
Ni 2.7096135214619688 5.002811649264886 9.81571214731887 1.1253006341372684 0.09919367418304208 0.2879293583919751
Ni 0.7968278470809366 6.373630800874845 7.018362843844858 0.5205185494507487 -0.4948751378510316 -0.03840996723676611
P 0.09344989809339566 6.359786026228394 0.6877655182650187 0.3212392853980145 -0.7718410552529675 0.06766937832251571
Ni 4.531026480100602 5.769299395246871 13.504506445654577 0.3152074773816378 -2.2907192193413453 -1.5173403872876126
P 3.3177953593653533 5.102689811411296 3.3135496284737753 0.482637201023943 -0.7296297119922401 0.197069400885609
Ni 7.18047816264436 3.0091827463372116 7.339572803339184 -1.5023948217213738 -0.3343845645307209 -1.7987008342128183
P 1.6360048553430415 3.6252332642416754 13.40293055053637 -0.8254231022444818 -2.6259316790900002 0.40382337604883356
P 5.525025361232299 3.8916869069322773 0.55544862958335 -0.24083986110334002 -0.8217510527095332 0.17179031460384608
P 7.985535492944437 2.708811736532949 11.815344181825566 1.2616241232930723 0.0013264321209073928 -0.9659827409688203
Ni 4.612817865941213 8.712679838921021 8.569093210446336 -2.995874600341305 0.4588406128249775 -1.0649362741165982
Ni 0.14471751814782602 6.771884833583538 4.627398231644635 0.033663453690716216 0.8222465042887129 1.0022196118136677
Ni 2.8771958947077203 9.397199060531566 4.494861318261514 1.1371382502021448 0.5663435782046633 0.6852164759841877
Ni 5.400496974058808 0.8702657527308272 1.0104354721766071 2.7089109482967086 -2.8007803209041957 0.987548640065054
Ni 7.636954833512704 0.9528188342540067 10.579765636964028 -0.3177590401588979 -0.20648272377970894 -0.5655457648937163
Ni 0.7983568322944166 1.5770456938183612 12.53922638191071 -3.017272863511423 0.7524999317221944 0.7330310243643053
Ni 8.100768768789639 7.9269119623202755 6.851672689409656 0.4572529566228835 0.0996140495499123 -1.241718385508081
Ni 6.113675345341534 6.890856664737309 8.890126031409833 1.087644000126759 0.4105228995561962 -0.5870738687734793
Ni 5.434628772025579 8.49046421353507 10.730845225292823 1.2027705434899738 0.5120575631675891 0.27338488491889695
Ni 2.4209989162564773 6.975258513137519 3.6977864095454733 -0.760291145631839 -0.5490166568904415 0.18157104813969374
Ni 2.511451443946618 1.288160719276339 6.613016743746566 1.6499162364755262 0.4710137578524017 1.9124232981396547
Ni -0.17360135406174323 4.281270474710871 4.847291477660601 -0.0260514456714132 0.4498875173967478 1.1952140712989545
Ni 7.887298192978346 5.318985280635297 8.050505244512596 -1.799093698775863 -0.1457535242204522 -2.170974717590145
Ni 5.115984524304117 1.41610135393845 3.929169420055906 1.2826971419132875 0.005297243843197329 -0.13820193712543943
Ni 9.267412455916595 5.468126600513589 2.7349489929109443 0.9446991489996958 0.2469012368060716 -1.77840968806395
Ni 8.56006100999012 0.13606663168692296 0.8400151532053479 -0.2214923098146637 2.995642943946473 0.1286006665902495
Ni 7.3421030874058815 7.292905191237992 3.27359556669104 -0.3070977037903098 -0.8569607678414468 0.1453370055083239
Ni 3.8699361599624673 2.0491198784803144 0.3429784203172194 -2.324252060991468 2.7614041330994183 -2.0195858494607863
Ni 0.6005863241630053 2.238779306515826 9.98728759597275 -1.4778832097332548 0.5217765902275658 -0.14652151273472827
Ni 3.266024292960143 7.528900329706404 11.371490962049002 -0.5689177666897427 0.7450005380213557 -1.036681650146279
Ni 7.399850248456462 4.944710211152644 0.22981673297467262 0.3903646794407664 1.5378835015462868 0.14764637036779088
Ni 5.3741965637708375 1.142040077502728 11.958579330162763 -1.0265638449859869 1.3903548877032827 0.01090919071333605
Ni 8.803962120781893 7.17241369795131 8.873929043535572 1.5133785744263872 1.7513434279747773 0.2198275205177311
Ni 5.186905198200107 6.201825072130884 10.935525068434659 -1.776708131991811 -1.368250856715392 0.9363865153689422
Ni 9.339862115026067 3.615182983387215 7.4439866441829 0.9993016668359243 -0.5725779891501493 -0.468622889022722
P 8.211219304302428 8.676347793939732 4.772692848479745 0.19332227513835093 0.28526338152403774 -0.16259476414750706
Ni 6.366657136608485 0.7387804828360022 6.041034563080378 -1.352127211680652 0.01388215729873093 0.344208235489362
P 6.767353816426518 6.898520236965849 12.408013345968527 -0.3809318161626407 -0.2493522694497254 0.8791612151978858
Ni 1.006314670564667 6.670365809256807 11.04066144802255 0.30281990235056233 1.8243948965448127 -2.26736228978296
P 8.702527004180292 0.5854195366917292 8.494317442734651 1.3008987525229792 0.3350857043628035 0.9192521696815008
P 5.274915078780908 7.960605575500256 1.9221824072875358 1.3282267509139705 0.9064102807218261 0.3528473992215988
P 4.568216248494332 3.963437334998998 10.51324452478902 -0.5662253074592442 -0.6032257959429933 0.005726360960815945
Ni 0.5345789137274048 8.148717372161148 2.14133912993847 -1.1627011862729135 -2.6926127253573173 -0.4813835311225
Ni 4.116279917863579 2.9449001058070605 7.8975144246669515 1.86506614901193 -1.5485358390538104 -0.8794666622534467
Ni 7.671860447166784 7.608743191707884 10.64232910143707 0.5828060946360608 2.757980966350482 1.6374301881933735
Ni 2.266002701780226 3.2548552424372827 2.6273419969720035 -1.0338935458781806 0.48015917179709555 -0.6476277190971362
Ni 2.3289894341111466 -0.051223801575751356 13.127719738266366 0.6842818799850602 -0.8310774723167816 -0.14828451817242203
Ni 0.3881245056693878 4.832935798198914 11.935409610330197 -1.2631688420723728 -2.298262578906242 0.8168137633089159
Ni -0.04820405577912834 7.846612269370865 12.720735572911925 -0.1294442455374674 0.4536207591869349 0.30660199510081393
Ni 4.871132459294204 7.939647290378897 13.182696079771544 0.9629773784835931 1.932058041651447 0.17883976525145973
Ni 2.729108082933839 1.852542724661863 9.304314141120713 0.4888021921840743 -0.565037200688414 -0.3360267281198342
Ni 4.461355099000992 4.562622400152332 6.413686484235793 -0.06819696869121158 1.5767089590539167 -0.11229910121674853
Ni 5.813984920418881 1.8959603108763532 9.05683017046589 -1.5086801405094532 -0.7750947863035748 0.5806227138314969
Ni 2.699488655962949 2.098271159245355 11.665696618672325 2.1046469408971884 -0.18204798777611225 -0.43305579055138965
Ni 6.273678054083875 4.053218600888099 11.944373752298253 -1.1949060531402325 -0.8190624501337765 0.780457593277385
Ni 5.764954839701251 7.605983559859164 6.60601697485461 -0.25073166629575533 -0.623651667897513 0.1681097804284653
Ni 0.47546032752497736 9.227192686337615 10.72282178215428 0.6490857916999015 -0.8766744442202902 -0.33133755017428096
Ni 7.227475811797731 5.461190228569509 10.438427735522827 2.351062753426409 -0.9664295986982517 -0.4858109707662343
Ni 5.61623305844861 4.568477294750292 8.696744829610777 -0.03452348769816635 -0.3593885427742262 0.2989632476086335
Ni 0.6735673988649657 0.5195268001471397 3.6319887684226977 -1.2738684878780644 1.4929622155535642 1.2540421971807563
Ni 7.626587567918864 2.2453427552371057 4.579679908363204 0.9747671720296697 0.34886861707950884 -0.35403961975748705
Ni 7.5745368090965535 7.529907222407964 0.8458085154715459 -1.9895440516830574 -1.701399749066799 0.018906349986199698
Ni 2.095026727206995 5.260995719489896 1.0320762067956912 -0.5837113800591495 -2.626244839455045 2.9148637677148765
Ni 5.531253179053059 5.782799215912231 2.0584438913583716 0.3326801802451045 -0.020379592097616514 0.16963598726500465
Ni 2.255504913058406 3.9027534035688674 7.866607480269344 -1.7337516830349433 0.9026502994587616 -0.6150688113245084
Ni 5.5580850049335195 3.0418601437350614 5.23993394817421 0.9639657105387915 1.3742081027400914 0.7620281829276038
Ni 2.8848874361779706 4.519120906212712 12.086749312606894 1.5616631204643878 0.8725377963440973 -0.5948550553807949
P 2.4492571734641477 8.755687209590432 2.535673739575535 0.9225514092580629 1.119347244767311 -1.6143805054627616
Ni 7.356208908308291 2.5006459935659877 2.2292138258510055 -0.6762428117306676 -0.5360022469086446 0.6941091504881272
P 3.6066337185045256 0.21946904585002955 10.426651752454859 -0.5583772721697352 0.48058931735597876 0.771431992740007
Ni 0.46105337112015626 5.216757702185246 9.291228265232661 0.4707530479918473 -1.5868175082428286 0.44642784098292143
P 4.117053733550889 9.192053995669285 6.375384472330063 1.1425087704854389 0.3166313543123579 0.24569693208532523
P 9.426659995132766 2.8430454505798104 3.0906534182062138 -0.37458839044311615 -0.13516289318879948 0.49462265552059326
P 6.801411029748728 4.967449204662874 5.883267529058722 -0.3323703623141695 -0.5365411501312501 -0.34225419708678473
Ni 1.4731958993491303 -0.05768283179464741 8.35887452513786 -0.5390865422609231 0.2642721239843513 0.01387495820987933
