# total energy = -340893.9637837954 ev
CRYSTAL
PRIMVEC
9.03495069830409 0.00000000000000 0.00000000000000

0.00000000000000 9.03495069830409 0.00000000000000

0.00000000000000 0.00000000000000 13.22356361378303

PRIMCOORD
 96 1
Ni 6.688429265853359 1.5662628718319926 11.417727102060487 -2.1546919212697215 1.6304491288898502 -0.705157952103121
Ni 4.386233539305041 0.3692394518778853 5.877265992642166 0.8062015350107083 0.09661717170511748 -0.043569142840202385
Ni 2.8130860352230203 1.7120146926423117 4.731509592079578 -0.3104933597354201 0.16033605002031742 0.5003513304742544
Ni 3.598593663109827 4.418650941553208 4.982995631125641 -0.9911664393232994 0.06251457359445363 -0.11023887625361013
Ni 5.075491839948336 4.780148344382472 2.5207150383582837 0.06951054529631255 -0.3614559668262162 -0.22689059801209954
Ni 7.171211843649007 5.9617933751597105 2.705011764818304 1.19196214002056 -0.02946535644896861 -1.670512058349007
Ni 5.072600655801343 4.453146382407026 11.703038188636283 0.9864176117844045 0.9843661285720143 -1.4520055706355444
Ni 5.4826699523001 8.059230019447659 12.614605059312197 1.2304343279538292 -0.008052437990831293 -0.7398732440971193
Ni 1.9663214432217846 6.597609943835919 0.48372311613846786 -0.07839113561539403 -0.7862577448989297 -0.7893646659590277
Ni 2.7050551325805094 1.5203291836966304 0.46415883441378 0.84387462408145 0.5533546221441632 0.19264633211724885
Ni 0.32636861194824457 8.797358367125607 4.492493591657519 0.36982156518209214 0.7315171588229402 0.9300369190018305
Ni 8.67034503356799 2.1378228728412663 1.3545288078170017 0.49180086980108206 1.2298496590949528 -0.32494887303911785
Ni 6.908909161913005 0.6821161723051746 4.713182195072776 -0.38564079160253584 -0.09593711491895736 -0.022470927409006462
Ni 0.855125535156323 7.261461963787507 2.5067912762053712 -0.4194893647208646 -0.37172932372776624 0.5611406938474852
Ni 7.8097931071657785 3.8657571481929622 3.9916781562400425 -0.4864678876239429 -0.318812935344709 -1.4456474896280005
Ni 7.614087045265684 3.6349774086096507 12.589453564223444 0.36365066048468986 0.3911398670438941 -0.34940237809579183
Ni 7.658105323903663 8.807884084410755 7.031193602400195 0.8386784245924911 0.0604494635353088 -0.886801248241647
Ni 6.871043684537847 0.8076550019478242 0.36167900533349684 -0.1855940532561578 -0.864303324249447 1.1314036617112126
Ni 1.780273743362741 6.361210465066889 9.302300967912917 0.06914930530215188 0.2286482041331546 -0.0604908582962055
Ni 9.333645921541558 4.6919581929487055 1.409248081779041 -0.8564079806617703 0.24736146427194175 0.7611594071694052
Ni 6.300712436791045 2.00618364464846 6.90432663504002 0.029065807017704778 -0.1992070160539021 1.0917101997763328
Ni 3.3506746225051183 4.431408291601818 0.3711810627316008 1.2121884943697638 -0.10536612154234112 -0.32884512276973044
Ni 5.936622003179947 5.569884329084257 4.739800966116129 0.07729456011710559 1.0681540097229476 0.27007638937095424
Ni 5.2381028783158134 2.470824041921724 9.429961203923423 0.5182742335012623 0.5160934237998596 0.07464272431655532
P 0.10201543262667224 5.327467573309296 12.566973703985523 0.520902929373361 0.943178598590111 -1.0540399389190687
P 4.165916272353663 6.318484184344597 12.640496516843573 -1.4308495053832198 -0.9880170950610402 -0.6609630027534618
P 2.4903666397653095 8.34452665010272 1.6884370859235782 0.011380216812483626 1.9758812094839842 -1.4177067973536743
P 6.280880720532761 7.781622131633509 5.541519102117111 0.20288935000149572 -0.6800117918547965 0.46253683072964213
P 4.764129377218035 1.3043035182134457 12.626202321721827 -0.20614153839020624 -1.3751059319640124 -0.18541947535150646
P 3.764737367106911 6.250017329763604 8.20831573697748 0.7809131927575648 -0.40887790775360555 0.14057557956393854
P 4.938612340489104 1.1871021408546893 3.8021971752064436 -1.2440413772143026 -0.20660459406955387 -0.10295982609369365
P 0.559282406830056 5.437811423269401 3.5693836682747317 -1.2868841834114417 -1.0174040328635896 0.037038026589903954
Ni 1.439041734413811 1.1185901115213983 2.666028664071324 1.0112210439813294 -0.731588635490824 -0.5666102016024887
Ni 1.754235016138879 6.563367481594963 4.91039799719463 1.241732783685784 0.08749464057855899 -1.6615880163864996
Ni 5.96068207625321 5.826440782328109 9.094241418249744 -0.9377345447564044 -0.4233940990919095 0.7743352824297309
Ni 8.66556554477499 2.168532669452615 10.256751327449116 0.2681022963637189 1.14917718364455 -0.419640031366116
Ni 2.191400129065243 5.36201722386587 6.902488022621542 0.19545603365190212 -1.0973177757710972 1.2164830079800597
Ni 0.3314733589577803 -0.009531872734619811 9.24250405179272 0.7924512753041514 0.26997431657545123 0.03816031311980525
Ni 1.6250894342728548 1.38174207860058 11.406195794789213 -0.10067385827299435 -1.9341822870833012 0.010350489996388627
Ni 4.152770419435301 6.989753898623316 1.564492925037005 0.6369956933045868 -0.824250164982303 -0.31130068612806383
Ni 5.426716504105313 7.905608756787241 7.602173559589978 0.5319208777504194 0.15135904333268774 1.248109119525773
Ni 5.508925518334987 3.0780901671463696 4.870912553202109 -0.9374815482053338 -0.9857208428276959 -1.293777053876533
Ni 0.7784422966275909 7.3254384479902015 6.8299970011059505 -1.3170013145117965 1.0045161211573281 1.3468258540723967
Ni 5.196135533432108 4.8439621994768975 6.974186678981847 -1.1872752760678522 -0.49424161803209077 0.6563571285503341
Ni 7.942471354661411 7.274210278885658 9.002509566235911 -0.41867098258462737 0.5396043624376061 1.1635769040096478
Ni 4.402921092803471 0.35692120042160036 10.30788643656393 0.4338024389094271 0.04539076942997344 0.38818798350442174
Ni 8.23564646211703 6.765696162181764 4.632994299260861 -0.5307790508364922 0.4160026917238448 0.8102685059912303
Ni 7.280661233513637 6.265521304751856 6.95514461739371 -0.02454529343953192 -0.6667834660899807 -0.7910644222589538
Ni 2.5521747358577587 5.120377473830413 2.5371387713032996 -0.29685545723701134 0.9983025361474483 0.9489949481615721
Ni 2.262875622149203 5.140796461868557 11.558148302099786 0.6615157899331382 0.4016245686253019 -1.184072452859838
Ni 1.2044040709843546 3.308824731977385 3.6505626981520383 -0.33369756576602533 0.23842610945552484 0.6250755448282332
Ni 3.7608613733598473 2.8512587009137964 2.6897255321361206 0.16562198100960507 -0.9003324499588623 -0.027932978964842217
Ni 0.9580842166109518 3.2837527444526735 8.136286401430363 -0.37511263837770237 0.8677763703997119 0.014446000222000927
Ni 3.5431732769921416 2.8043763429802016 7.234175509905208 0.4625771970492743 0.13741183712397625 -0.6994781281095244
Ni 3.88078227080687 7.006586011329095 6.031571201052357 0.08005772468453955 -0.5987646748478462 -0.8443834453970684
Ni 0.9008279285599256 7.182731405484685 11.582280654776724 -0.5115189170552996 0.39129053368914546 -0.3871060632941527
P 0.013672590530142333 5.702725205688157 8.21601170777876 1.028455919802377 -1.2589452909093286 -1.441836857632659
P 8.329230478975031 1.6851266800752707 8.08720041907973 -0.1169563974831018 0.17766528532738435 -0.8095367700315285
P 1.821545397061076 3.3550927132797432 10.188477820807952 0.049748275067720775 0.31812413680780055 0.8063475736702694
P 3.9849552496032365 6.2564502144906635 3.8127499973429706 -0.09765281205848343 -0.2567765869382545 0.18282188982765932
P 6.834226261415974 3.8482745190541094 10.326254490847798 -0.8976006528499961 -0.04889826836259965 1.228652039242426
P 6.15490640627797 7.673871312455239 10.271032873640218 -0.3861755810600833 0.7223195514840721 0.3983767511119655
P 2.173944604777769 8.651254183247373 5.6527032024699375 0.6266084365329919 0.46499223424867014 0.7453399236386454
P 7.0272941177819375 3.9913700644293786 1.636058767625558 0.4031348346222412 0.12698035737800714 0.2018773637972136
Ni 5.483699936652467 3.0699496767824903 0.42041973574499514 -0.9410206717068439 -0.25891111678275414 0.443023700397379
Ni 1.1409425789578431 1.0670818589526139 7.107903042285259 1.0493921557344121 -0.6435507208142851 -0.8423751567177881
Ni 6.870185364244208 0.5823377934122388 9.182085531080919 -1.2752771953001327 -0.6448532416757926 0.3588211003065304
Ni 2.5235068380502246 1.5941085891477256 9.135326951968619 0.5059563353658576 -0.5678967816243962 0.04928213406457964
Ni 6.504098206581593 2.0014402956572988 2.5337009726535147 0.13542925947630868 0.4215269639761837 0.27476582442682357
Ni 3.8683953537270943 7.049980878385378 10.510127478131274 0.529746752917236 -1.0077379705287355 -0.4063767385983066
Ni 8.31005831410028 7.18000285044596 0.25640737656127294 0.15726743839732268 -0.40508398792881206 0.23646127241967016
Ni 7.509652052905996 3.968800758181909 8.291451737124284 0.1428065257769863 -0.30383883053337996 -1.1453236142264147
Ni 3.192282906002161 8.478460755712202 12.502852660575478 -1.0689996455526944 0.168830974865206 -0.21071013159749521
Ni -0.1274045469125065 4.762015198810547 10.219830905892007 1.1091677331311478 -0.43122696487276696 0.2671831269835592
Ni 8.610208403310521 2.2010675260567534 5.7147082604824 0.028002398750196937 0.5579625532298197 -0.04330020544953188
Ni 3.5825114512921745 2.799136071713775 11.454819187676325 -0.25743427512691147 -0.5611214105737756 -0.1275801957455351
Ni 1.1392530432219439 3.352779765962148 12.571389987770058 -0.7329469492909313 -0.3009329697404946 0.8279381553568516
Ni 2.9944174909422805 8.352856874426246 8.113634877133713 -0.6172377939513692 -0.059318178144342995 0.005805036717551292
Ni 5.614282075641528 7.812331928244857 3.335907899474348 1.2790135224141135 0.09350562265932928 1.281872074908831
Ni 3.3468166986589734 8.453759201156325 3.6465828024746925 -0.8695398900580379 0.23635817118290264 1.1804176297160702
Ni 3.787749385926889 4.252624691912096 9.239634551526827 -1.0649645562513723 1.2025661407886516 0.2282039175068844
Ni 7.264317008132663 6.042746531275534 11.388820681560826 -0.2863311606669198 0.058227259073009394 -0.07127972138159336
Ni 0.820860485539218 8.99476299971206 0.35106745601898404 -0.12671116287702047 -0.2881286188869748 -0.12082822173368224
Ni 4.679679695274442 0.34200178672806697 1.6965305945450688 -0.14226890810596143 0.7579732961319398 -0.7426356373336049
Ni 6.122787157394963 5.668762826911442 0.2656112805942182 0.2828997663878676 0.19569926001095972 1.0768934464784745
Ni 7.877085418187057 8.635560474299472 11.398962413451452 0.6842785375509506 -0.9603383981988491 -0.11636427242505766
Ni 9.093406588827301 4.715132840876952 5.795808686290711 0.1668957055157061 0.3556861542219745 0.9082419346139262
Ni 8.10782901796853 8.695606755052347 2.3839972645122733 -0.7331814338992404 0.7435064699743325 -0.08428436117137743
P 8.538082393793488 1.5999361321940095 3.4961644297521164 -0.17267400276038003 0.23731256467637193 0.8836017674677428
P 1.9687789497467292 3.273362551424415 1.5144420099773146 -0.531970242931116 -1.6459747353292746 0.1268410035866654
P 4.500986445089312 0.9509466057480611 8.030048032958987 0.44332323391566875 0.3279557781862416 0.3952973408556934
P 8.677301945421695 1.4420865127186138 12.482527636022114 0.02433420586999035 0.4228333414924331 -0.6948264882701259
P 6.529802640638458 7.632048526778882 1.3234404467814063 -0.9932683161576507 0.6197603032629069 0.22976457712578494
P 1.7702449483528566 3.2912698232348574 6.02674473051697 0.34018703014511087 -0.4501428279406634 -0.6894264003004771
P 6.943720826032901 4.017706945018399 6.052741896968718 1.1944085446785235 0.23661065351334087 0.40413525086229757
P 2.1142777919441866 8.477683749972698 10.301433674945857 1.0428960064871071 0.5422019479614534 0.17449357246762207
