# total energy = -340855.35659427766 ev
CRYSTAL
PRIMVEC
9.43811837989707 0.00000000000000 0.00000000000000

0.00000000000000 9.43811837989707 0.00000000000000

0.00000000000000 0.00000000000000 13.81364026859993

PRIMCOORD
 96 1
Ni 0.316987700882201 1.9887153668828126 8.430382187045925 0.49782625005955544 0.3112613482496962 -1.3304507551484828
Ni 8.238033333986182 3.8367178264904673 7.1601624598529625 0.45955126573875693 0.1327303724879069 0.4978496470983232
Ni 7.1241843524994914 1.183417352237592 3.8660373413103932 -0.8667844388000879 -0.1256032745248224 0.18158184677297115
Ni 8.615539193882336 7.982194258427278 8.852636997727762 -1.2380046841019194 0.7664468808205896 1.7399410996751068
Ni 9.170991338154764 4.647197368139112 0.38981505391777027 -0.9143706732194833 1.0572702729309083 -3.4479845793106683
Ni 5.8416761951454 0.6923662088902468 1.54082851424123 3.490507797384859 -1.4179022011939324 0.2727410806873109
Ni 6.588627761821272 6.250006949746812 2.8371144368404932 1.6111954228665606 0.9679532344316297 -0.8176501431672821
Ni 5.132297777833163 2.7465302078409097 1.5939141550125662 -0.12515821656760379 1.2328745619642059 -1.1768167997386894
Ni 6.744875811988301 4.328056832449113 0.7736491722033542 -0.5915167350361813 0.8261023876996935 -1.0018156915070295
Ni 0.356275756359718 0.3982706641953084 0.7064507129835272 -0.05528283173270479 0.4319139636374626 -1.4051009356642061
Ni 3.9949950721142113 4.5098161166603274 10.986388873926295 0.3230182316753082 1.118661531554196 -0.9236713817951189
Ni 5.7843207496083995 4.993057217028922 9.095053181293459 -0.9425149968641834 -0.9681854050470939 0.5005958423848927
Ni 6.178484888486421 4.403656160859739 11.687707138122095 0.6087145869717064 -0.9446430989507796 0.2615606385904592
Ni 9.005116407216343 9.058583347971174 12.302152241474499 -0.6081548578134945 0.04728670090110566 0.5559223828713393
Ni 4.543283684518515 2.4712580464895613 12.073010771443077 0.40948417387903674 -0.6679546035799464 0.6096144730781565
Ni 2.9257034476096133 1.7112252477066823 0.06342132423481658 0.46521154934832787 -0.007254881790200409 0.5786182818069584
Ni 1.7348111055965891 0.38779812801498 2.6871946450628923 1.696801588173155 -0.8438286013348629 0.04123303850785802
Ni 6.2741685328593215 7.987054889404988 12.635378225069617 -0.7381668029289739 0.49466327895054163 -0.4355150507251596
Ni 3.037403578912954 6.785808931503518 0.5947392559381033 1.886854191421299 0.3559862019608966 1.571358750485597
Ni 8.17294806947686 7.870947156807297 0.6507261743066215 -1.832284840815851 0.9183767090550828 -0.48647354405089765
Ni 5.9266192607753165 8.430401063282734 9.04880451349349 -0.5236246991798982 -1.2613127627002405 -0.029002814990253274
Ni 4.1502426817304885 9.183940436604123 0.4040807698843946 -1.0610659925279144 -1.371187570746213 -1.8638212208612353
Ni 4.670858730976247 5.143783967930006 1.9412727771048235 -0.122727238528608 1.788407165596294 2.671484942239767
Ni 7.5191601695602 6.02211414278015 13.089999175191972 -0.4980167688038068 -0.5818128774848561 -0.3911447521399006
P 1.8841221387371756 8.37752872398731 13.344280017402488 0.31974521735099126 1.0414014242194518 -1.1942195685961692
P 1.1366231611939113 8.772523417284825 8.596173118730556 0.5449358019528486 1.5619328291860068 0.916907580708724
P 7.966394848220112 1.6312560704753176 6.354066924202661 -0.9508240309505109 0.2546410286524905 1.1028196794259328
P 7.4202392505749595 8.265573763487081 4.435172869643959 -0.07731230072891847 1.2036218357466755 -0.017084209175796384
P 6.516869747600799 1.5779401396149402 13.390666481731147 -0.37424771927424577 0.7336784281403171 -0.050757690168841615
P 4.815941487072143 6.751888333961971 11.026972783060588 -0.10883068305217386 -0.34339962354513764 -0.6316331434410929
P 5.948270304392542 6.359932714790327 0.6837199486209617 -1.0161701604564886 1.7987851663965082 -0.7221341749461434
P 1.1907979608289914 8.2835156265718 5.170762829385909 -1.0781057216190206 -1.4949203677211995 -0.5678358464794736
Ni 2.493399872263759 0.42502395462137066 5.507166627447428 0.7899393075155751 -0.16744849269538256 -0.9489705226815398
Ni 9.12503713964898 4.305065576018616 2.4652233135824755 2.093473697889188 -1.2014788212617438 3.616839465435274
Ni 9.349126384899101 1.0020922214729304 4.691513109290081 2.0419999554899286 -0.0896422830491811 -0.847475968279463
Ni 7.7220702771132625 2.583533903015504 1.640327989884593 0.6688807149386417 -2.5848613914122516 0.2803348338741688
Ni 0.2157855886788783 0.6250271217062104 10.337409695336127 -0.33611645962016307 -0.22361295570209233 -0.2289361676872186
Ni 4.544161429530024 4.4912796521162 13.642752017601047 -1.01107423399082 0.07694360453559007 -2.048651656478491
Ni 2.051082453291978 2.5824107669255083 3.5861310638230117 -0.08124865966884717 0.11205741751958764 0.337268056726103
Ni 8.675046530415296 9.268100138406565 2.7163282289502733 -0.8975983388571509 -2.031892948962913 -0.39657106536179443
Ni 1.6647330764519082 5.967155979317593 2.365267976820232 0.2570588940653637 -2.977619253675543 0.42141717787119676
Ni 0.932266190089618 7.723032965190402 1.3245568624645803 1.6558071480386647 2.7399441634534294 0.39132550069213895
Ni 4.043978906627463 3.304964797528787 7.820965713178813 0.031067925049398103 0.5618588029604323 0.5212965652673538
Ni 6.564249101985486 8.901061151819695 6.502950410579577 -0.14691977661441147 0.5408107240408816 -0.5765593423954006
Ni 1.8221986438929665 5.419358149070263 4.679342655608994 -0.27084540632649484 -0.0010662364809852604 0.2861226442005395
Ni 2.914660849077724 7.658410168482842 3.2701579606691684 -0.3023028535048277 0.7705274786478664 0.8204199926029355
Ni 5.419358149070263 7.3940862244793495 4.376506469460737 -0.21163521451492587 0.5451468895223902 3.326709242737238
Ni 3.3736365470313725 8.476194813775662 11.508544280283635 -0.11175428445687205 -0.591868204838329 0.2519146308602629
Ni 4.736368710813718 0.29688734011864176 4.1176387017062055 -0.4204532712960308 0.8471682072310572 -0.2016667904483043
Ni 0.731129504984539 5.405786134806283 8.627295314165517 -1.4897969304517054 0.6445015147633287 1.0624901265689508
Ni 5.82867046798562 2.172720923274018 5.770924284346722 -0.1571442825558971 0.3868754353405853 0.5463211123361494
Ni 2.325193726079718 1.5332789633304107 7.507451239869035 0.8269467379778597 -0.3712405570168058 0.11679776041805047
Ni 4.662449367478884 4.636900380961086 5.718916476697045 -2.5730865102645106 0.0730740942778548 -0.13842356621794225
Ni 9.160722665331948 9.335884704779238 6.584464607793566 0.02501066311172467 -0.7023875884468355 2.4446663351161835
Ni 0.14208143444364016 6.737599022699339 12.494879563082215 -2.4508891760974434 0.1666277965663001 0.20259367313794788
Ni 7.006226748694748 1.2660008882666773 11.004498735518592 -0.32156401572728494 3.4365593681928623 1.904825431187739
P 8.88017459579314 2.2641102237734048 12.45911664482834 -0.7343548853820514 -1.4835900303100449 -0.2907855968938476
P 3.8408989129431395 1.0793715349593476 2.0971735045146107 -1.4391652243377666 -0.057349484453746394 1.2079495165877518
P 3.917838454167037 5.9037601380024665 4.134864211604112 -0.37429065669703926 -0.9982775964467839 -0.9300034946607338
P 6.1208557375157255 4.234610022137802 7.040881631848073 1.1070162340057836 0.45237711658782087 1.6706694098624777
P 3.59657434183629 2.29626589317353 5.2796560642761 -0.1116424414693561 0.7589338602729961 0.5918494357852516
P 1.8377149105480313 4.661958585321911 0.31226675405685833 1.1937649975572537 1.089766960007033 -1.1103969775525586
P 7.366026698466267 8.809917242398797 10.719854522592742 1.1260711937547059 -3.6363068301312667 -0.9619201408636724
P 5.420972067317232 2.770172694441237 9.948307219357808 0.31801820735755554 0.7551031736729963 0.04563965221598592
Ni 7.620487808738286 6.0725136950539 8.306045359012375 0.09021461061288333 -0.7254627250987442 -1.1642747014076207
Ni 5.447257227070488 6.685651619007443 6.8935592102550665 0.5175633234771667 -0.2340737460241001 0.8744080167836167
Ni 4.677021822293616 0.7293051166971766 10.286120128496945 0.5666040309549016 0.40237430230713284 0.37156117358101814
Ni 3.1770216644533265 7.167816773878058 6.239400392285156 -2.1218440215017655 -1.397741152865025 -1.3034878534063936
Ni 3.27107251434245 8.932027618301003 8.921981685072504 -0.8989155150066777 -0.0860702494272066 -0.6062036476243946
Ni 6.988247133136415 5.218250722132234 5.124321623970513 -0.14359276912370755 0.1259074360288025 -0.06446758355576639
Ni 5.051686808550372 8.074253665333298 2.306476993474086 0.036641562482433665 -0.9748563893093662 -1.9301428269066048
Ni 8.175203779775254 3.001614233927549 9.518565149346616 -1.5609349840491118 1.7373224311053368 1.4754555741283686
Ni 2.166303002759758 6.31627197905655 12.460359645022056 3.042333406024477 0.13441187395538787 -0.9944402249785648
Ni 2.389788208432068 1.614578915256644 9.907557199339617 0.2629107248604504 0.41922299843335536 -0.8418596505339503
Ni 7.322941687955092 6.207743055536726 10.724550930310237 0.6130322405104538 1.0964747110445117 -0.2211225851800708
Ni 7.55561962095224 0.7083175728037048 8.757985883508185 0.12461622802120476 0.5009406273188212 -1.2616387785810916
Ni 1.257921858913432 2.8712643806592406 5.848695323801953 0.692965266691671 0.6446930619488446 0.5427099979461235
Ni 3.5823794117576906 6.705811439916943 9.042836791227069 0.6546553153678789 -1.0566956313743607 0.48078754940971397
Ni 8.549066525967726 3.1204967733358187 4.931193182330654 -0.894263360946647 1.9419123087377073 -2.101796101711954
Ni 9.043718311485938 6.909136824679753 3.7866637093502784 0.5302198358989126 0.7493354179512837 1.0519159505975304
Ni 1.1151420037079456 7.284811689605664 10.408826993482242 0.2928923588242052 0.1966207433839646 -0.8324555836112308
Ni 2.294057373467152 5.013273666648843 6.988113111855088 0.47315214435164316 -0.615302010381237 0.3744528933065164
Ni 4.708318622919039 3.410492399396353 3.7392277262551716 0.2845319026746519 -0.07437712935999448 -0.17848058213982812
Ni 4.690508893491967 1.0228088913682265 7.837279500838958 1.2245904675785426 -0.18954018238809936 0.11474216344060238
Ni 2.952318941506987 3.779050923046157 1.819477634357288 -0.747182633274339 -1.159364922810829 -0.21337945089954222
Ni 1.857685969089465 4.349688999829532 11.62369498767523 -1.1631387880309645 -2.254436839970543 -0.25475287164000643
Ni 0.587180266908881 7.303083886834498 7.2236224803732325 1.4132752439448821 -2.1548415594737085 -1.9686353265548482
Ni 0.8111468166197606 2.608837498454816 0.2540798102885252 -0.022561173129967593 0.7230687709452708 0.2510813363256902
P 9.389823551454235 4.77163895928694 10.619180945020005 -1.2513955035865287 1.0099717449552608 -0.18353717072712905
P 1.8977224673563655 3.746668738804352 9.042463985550137 1.3150524183155416 -1.6055680493774542 -0.7841095882076754
P 9.130001589929128 5.27670098940402 5.1850191072341305 0.9154191690886557 -1.4619032893652306 1.2401428134908448
P 8.993318759212189 6.33705471578067 1.778230225499241 -1.4072601480990539 -1.5554721611623274 -0.6559683777523476
P 2.2247910225051566 2.0547538813508712 11.904180765632574 0.08277049563001229 0.685737124374348 0.9448223048411213
P 4.2752599981009185 8.754996831409853 6.617686784573266 2.0371557400237497 1.649891810995494 0.6052996477528866
P 0.10229504631442764 1.7577362951982631 2.6643751623873353 -0.1822166521434926 1.7876183511464117 -0.5167737376963357
P 7.137586480632211 4.2598947413403065 2.982986219634908 -2.0611451609598115 -2.1154216629151894 1.3739401937906854
