# total energy = -340869.8560115959 ev
CRYSTAL
PRIMVEC
9.25213729911905 0.00000000000000 0.00000000000000

0.00000000000000 9.25213729911905 0.00000000000000

0.00000000000000 0.00000000000000 13.54143815763070

PRIMCOORD
 96 1
Ni 5.040138904002993 6.318543748982029 7.716601861997681 1.4526997684890917 -0.09030871298858639 -0.6124848526474161
Ni 3.050920092393446 3.9823975380630676 1.7912619283883742 0.23954171111720685 -1.370026460558576 -0.9653983292202599
Ni 9.04549099516862 5.394375491926281 3.2069647928034173 -0.03653023371554999 0.5585901595114896 0.10073839296234263
Ni 2.513907528435876 2.9116291625429715 9.238863444265522 -1.5415437240066936 -1.6737161671086012 0.3453590612643536
Ni 5.160823785369289 9.220152846627753 4.183911868147576 -0.4699032983970423 -0.6493629566206881 -0.3502667829786161
Ni 0.23079179394494298 6.271857463228094 7.099207652776217 0.9827303927408043 -1.5831164052421574 -1.2960938749351678
Ni 5.403322308875162 6.471398312386857 5.184583274433123 -0.1974506954844277 0.2839228083357433 -0.10107417903520657
Ni 8.744241398627176 1.3500904062199173 6.018939182485581 0.14543445031813662 1.1892120880792487 -1.3036207794398322
Ni 1.3237495707975129 2.1655738042286035 2.0007340219245195 -0.6766724430689185 -1.3047723765457724 0.01977563996503046
Ni 6.8424737905345125 6.61562988365481 3.2312312990014793 0.23770902878384223 0.17087885853317022 -0.7111013141707495
Ni 8.096508505375644 2.051106359252844 1.1922248851527173 1.295140766993279 1.0254652126051695 -1.2551783676677286
Ni 2.4524363269794467 8.9250189129645 1.2019905162691022 -0.25349765907666666 0.5795860450368663 0.8462143279582199
Ni 2.5822345637693704 0.08588019057177476 9.414536554351866 -0.09665008182558193 0.008101546061211854 -0.49931800411373367
Ni 7.181065013969115 6.672040165906443 6.920284266791071 -0.12796174745466996 1.891341537768691 -0.2462288933293953
Ni 3.8452345998343547 0.9840018301771706 11.378450769937432 -0.1720217138883618 -0.6910027436486617 0.023043512083024832
Ni 1.821088969215472 6.949558029796511 4.1475935276603595 -0.26668279030837294 -0.16573022445269522 -1.6391435713400544
Ni 5.73737073280418 3.3213230625568433 8.208820202317185 -0.7890918719136152 -0.8876168021644067 -0.29394111180369376
Ni 5.141514574436181 4.970368535221697 2.059192727415535 -1.4163173732053156 1.6406582082123682 0.29172353532708467
Ni 4.047458568864033 6.027258704512918 10.952816362249076 0.14654182444970246 -1.0077927350260707 -0.9185494871875213
Ni 2.2477235329660568 4.5893377571391945 13.030099794090821 1.2461447967105506 1.0672083579802265 0.08525135307033706
Ni 7.283282628913521 4.486861082345182 1.3495898655819292 2.0144076476939565 0.8305282846815308 -1.9070000702415546
Ni 3.7286299110993486 3.68539467262766 4.009850480411279 -0.5882815159283353 1.9267646544629915 -0.08417560350765504
Ni 7.458980719771077 6.271977741015411 10.884729882490214 -1.6945593291061976 -0.7366609078074088 -1.1140631135502361
Ni 5.459492035552162 2.2464004773055706 12.802509239716006 0.9664396260005809 -1.3499718559005458 1.5835146691218405
P 6.816179215799537 0.5457012462705937 11.928883559318322 -0.8453023576669121 -0.6078609807221597 0.6918378379554472
P 8.612601986477555 7.014313740060441 5.220725824308108 1.3934728645069743 -2.605225299780584 -1.6405160262075489
P 4.788462260111091 4.379434513996205 13.357356223891427 -0.5196502879131824 -0.21185118718047388 0.33930642731237043
P 6.811932484693502 4.258925423242142 3.3257363321376254 0.955894760605199 0.9481855648863993 2.767622346094988
P 5.472648575057136 8.44345440896003 6.311691615959959 -1.1214336949826946 -0.8047971984640139 0.9367989203160124
P 7.119279239838164 7.52880660137729 1.0197012026665797 0.016045740608953012 1.6923553794763433 2.034232652839684
P 6.9915164732951425 7.827002992548381 8.744939009793615 0.3345941094383657 0.7260700196654399 1.419079509331485
P 8.379503634657373 3.8725284054178086 13.037480224163339 0.23441158897949305 -0.4765244032579858 -0.7019543575641587
Ni 1.505137726208907 0.17550194554285417 11.498698950414392 -0.1824951026158599 -0.20673314922761815 0.6929074168705421
Ni 9.007955073388256 2.541885992193288 8.316352245033503 -0.9373198258164889 0.7127889862858175 -1.4412308486175438
Ni 6.52407073109418 4.178579861314443 11.8878392270033 -0.9462886049740026 0.6921355717015242 0.27110585907673307
Ni 6.651306125800505 1.0737475637905614 8.728283311891468 -0.7159175046124703 -2.2753522499669714 -1.579994314673408
Ni 6.522312824971856 6.0926250558509185 13.30296013197048 -0.11492471176505369 -1.3882452975594477 -0.45212720536054385
Ni 1.591635959564741 7.440494949074216 13.152284446943586 2.198406331438536 -0.3071596673764968 -0.9675161468942112
Ni 4.197111892698734 3.340197423028113 11.268805539019333 -0.9750556498043659 1.532888876545173 -0.9768083708294144
Ni 1.5568849311676385 2.5154156268460808 5.250367822385487 0.11513091423858882 -0.48479847034131995 0.3250859128376143
Ni 2.138455789257382 6.007588660217859 1.705178190791909 -0.15503109286763622 1.9360676770314718 0.04819815697178151
Ni 5.007691657839884 8.22552956261675 9.670536722090938 -0.3045973059659593 0.5780904343279463 -0.9053977802969116
Ni 8.979467742069119 7.81499371809166 11.826455920852988 -1.1751877487756988 0.670437003682168 -1.2605766558651643
Ni 1.0759125639622658 4.837831665735942 5.167426110679239 -0.6715276656431853 0.9742863757385091 -0.3018847921308027
Ni 1.5835773478145079 1.1154469474395872 7.344700167972533 -0.1728948605219345 -0.31326552316391854 0.5099749696069475
Ni 3.1311083679838845 6.041035137229448 5.796020032327405 0.18526083828645512 -0.554777984854251 1.025686841697672
Ni 6.670680101696013 2.2299039161681815 10.503200414197222 -1.3390181851025196 0.2083182343265509 1.629567754726161
Ni 1.5428401864640169 9.263147529524808 3.5569296688494574 -1.0885127758849575 -0.038470131050740194 0.08246453435381926
Ni 8.61762589713241 9.108053948848388 7.667216727739104 -0.5155020700727638 -1.241782663087113 1.3095890812081252
Ni 5.721882654652755 7.517926087693851 11.741497243174809 0.6158090319246426 1.9610438873608353 0.28511425754068315
Ni 6.449535511507635 1.2521380266565187 6.406210527302335 -1.3810433804943698 0.2723482161242664 -0.09448624140504372
Ni 4.769412109027589 7.887234407581698 1.9409217287193146 0.6027647971461748 0.0023456174140411216 0.38804785838213174
Ni 1.6300045737188371 2.7716535745185396 11.687209401262445 0.06944343950380298 -0.9725249129627124 -0.20537714942035595
Ni 0.9635546063332949 8.379068784195535 5.801721199446226 0.36834060976119143 0.6426300087722286 0.2834867492395892
Ni 4.168587552829653 6.526670581727722 0.08326646173200332 -0.8959785438655408 -0.7501923666349403 -0.20746797051111365
Ni 1.5800707877073452 6.8648917196628885 10.587279213600489 2.7273226180346772 0.5349187840364787 0.46695784261547324
P 7.275908675337246 1.000470634902102 4.122771893213143 0.34457333213826463 2.2634236168501856 -0.915339722000972
P 5.598394375628227 5.034448839449155 9.491763220733063 0.5205100648103165 0.5591156929976564 0.7208383389528552
P 1.097396027204564 1.2982414277488408 13.52203316857576 -0.5906621003453698 -0.3938145856625798 -0.2039805261831455
P 1.610612093548356 4.193188986404705 7.08014084784524 0.51772581719696 -0.7626730156004543 1.0704818865251757
P 2.844412383707788 0.6877474626643735 5.615567268015837 -0.5139902614139278 -0.7308206469765478 -1.3336777467262126
P 2.279624903017497 4.634201371808404 10.735949960434185 0.22052557502602022 0.6095607370220857 0.6080705256298045
P 7.445851936678562 3.1752688202041646 6.829705840803948 0.6236421548158163 -0.017769408168279075 -0.7950300917749211
P 4.590170449512927 4.342213164890364 5.769776344348602 1.0363186103799056 1.0002280353049355 2.0009360955700832
Ni 6.0241777427301075 2.7454422690209386 2.13203203020091 -1.822810325666512 -2.350640578287326 -1.3402078345352466
Ni 4.034857157608215 0.46273825464812834 7.517312670978535 1.213334177938433 -1.432135571184495 0.7377975925150132
Ni 8.288296063321209 3.7990016688172292 10.54412261829743 2.0970776131903626 0.3236255262420039 -0.5833390843213954
Ni 7.544812799227926 4.935450968349848 5.373324103504576 0.022077034404697462 -0.7093550209036041 -0.7606714117893932
Ni 7.767622774163768 4.824998951042976 8.20077639398693 -0.2887839930827865 -0.2797884744523956 1.0815682262463244
Ni 4.44791883566696 9.063902748765594 13.28748223117029 0.8540891027206066 0.8558310251123776 1.0343249769886445
Ni 3.1453103990247664 7.105706354146324 8.401189719710613 -1.87230843239664 0.6135341198475369 0.8998418834756889
Ni 3.708793328329543 2.4979753476851276 6.563305345316957 0.3882674305921055 1.6416568246802115 -0.4190993283712976
Ni 8.757129626145058 1.6210855131824136 11.960475907977735 -0.5175406977693474 0.7889872280149508 1.1173564395895272
Ni 3.09210135634326 1.9768672080658491 0.2509725562292242 1.002735889328454 0.3301694980081088 -0.16890245153308978
Ni 8.303691620097773 9.327727449176505 10.23444339929257 -0.10010075937834374 -0.16783235839736257 -1.1984852858510586
Ni 5.502384944936871 2.333370569673186 4.31182451931787 0.9718636252296295 0.1436922708160493 1.5282557486485358
Ni 3.216218780716831 1.541174801716552 3.5350335602752874 0.9039093686768431 -0.6415581158642887 -0.3594379079549229
Ni 0.4945276738359891 4.347477631119849 1.1483679030419756 0.3436148248797372 -1.5378673035963708 0.2914934215941496
Ni 9.028254263032357 6.318349454094825 0.29248412148728603 -1.80684223237303 1.1480312429655646 4.5670019515423865
Ni 6.364933966336415 0.40386320297024686 1.0033489748739708 1.3808801154436283 -0.2631282401878952 -0.4490490806558525
Ni 8.341625383790031 0.09933094804880027 2.446274403413826 0.24306000868311042 -0.6839538072216802 1.516564942574169
Ni 0.8972510134679711 4.833381387605216 9.097517614679425 0.4369042177632024 -0.8455113883539244 -0.4538606431118829
Ni 7.299335087451587 8.572484718338622 5.239371656983475 -0.038849368767029865 -1.1357202868086957 0.40659399681543523
Ni 8.572780786738171 2.8611309961448392 4.007765048621954 -0.10599089961053358 0.23862074196483418 -0.6176836232395363
Ni 8.914110642868605 8.76843573815285 0.24925073344309512 -0.18343689770383892 1.4646350864740971 0.7601916439394972
Ni 9.071794822041081 6.830168447678244 9.293150360964137 -2.240212211730729 1.887397979739911 -0.4543221561293337
Ni 3.5890984256742406 4.536683842706844 8.265084300796541 0.0525795738689288 1.673889716571988 -1.3723687355385075
Ni 0.10079463619907227 5.668090727309637 11.929858734609338 1.5965619892241019 -3.9309020305791913 -2.7913765110917925
P 3.5255362411459936 7.85147489619863 11.94797719544801 -2.1113405508672796 0.21083097344607563 -1.553279267276067
P 0.6826032742222038 7.696316550559809 2.131801651977511 0.6138945885107492 -0.11657458866365084 0.08300420890737319
P 1.616727756426547 3.7070446743447047 3.404980889704501 -1.392900279832956 0.8052635965774712 -0.39694901752650347
P 1.2203106737049656 7.922531312090469 7.927239724857052 1.186157617523641 1.5916676372462781 1.2861815009174624
P 3.992066021735851 6.551642100802211 3.4317797059324584 -0.597290661405481 -0.35954486584643236 0.19225243911293988
P 4.484011423999521 0.9049395397187677 1.7972471361280136 -1.0510494888321769 0.16176198383356655 0.3656088126523252
P 0.6879574861853037 1.7354326803708562 9.882595713268145 0.7093470504838042 -1.736334613270771 2.3896588685320523
P 4.306435149232324 1.7884566803026443 9.489569538935154 1.7956178244121204 -0.7235266844182958 -1.2606728151233966
