# total energy = -340861.63191981224 ev
CRYSTAL
PRIMVEC
9.34956692697980 0.00000000000000 0.00000000000000
0.00000000000000 9.34956692697980 0.00000000000000
0.00000000000000 0.00000000000000 13.68403626634453
PRIMCOORD
 96 1
Ni 5.82006802663349 8.441452859575973 1.5796439292002304 -0.4610993269521672 -0.03913090456319067 -0.1973321676286924
Ni 3.737339794244961 4.804443268246057 12.351142570933593 -0.8546871413159216 2.1163855694903555 0.24016726051634768
Ni 0.4241711532801948 3.488828304776887 8.883894936585232 0.07995102390334619 0.14261626414305115 -0.5851247154669085
Ni 7.827541594660523 9.396782260718123 7.696969282496665 0.18113216083006223 -0.08748872704128803 -1.3412545306322061
Ni 1.7174126030436805 1.2252513989203018 0.6144703690189187 1.7416465124019878 0.8078398419450796 0.833321788266268
Ni 4.284887832966115 5.34390393155751 5.015883724766769 2.932619549036401 1.3149865980746127 1.1074497219987764
Ni 7.336334046365803 6.779127904987744 12.903499091935915 -1.2397980285569163 0.5116356451388221 0.01709372225749314
Ni 7.896634894403528 4.787698193842847 7.578807585499096 -1.3990961242310227 -0.8489163002704154 1.494853004818374
Ni 7.202298654604542 5.661864004312598 4.874664125762947 0.5161877832858788 -1.0223618910894974 -0.9009338309882872
Ni 9.393135929608547 6.605001570155035 3.2010112358609657 -1.2415376369558424 2.1267638274008855 1.9759375166432165
Ni 5.650177045628058 5.7284048722789 8.481857948096863 0.479250029719265 0.33986847046342755 -0.7472631088032873
Ni 4.367575403050978 7.834039543689127 4.3392349957193135 0.7772370294575581 0.37852217827988355 -0.12801779750358597
Ni 7.156616670498409 6.224212407511855 2.2827294937488105 0.6804169977130152 1.6277528130046095 -0.2737055014831093
Ni 2.1800104764786457 6.872950809307237 10.576117936358601 0.5224656458747905 -2.0463842006005533 0.20780504213555825
Ni 2.943075382909678 0.37804038996057565 2.4662053955291525 1.200385845307881 0.07884082155830292 0.8864302380554733
Ni 3.7906323258464667 0.37162097729433113 7.894375104072285 -0.8795818476750722 1.3649266774381654 0.9527446450119914
Ni 5.915302715562074 8.393106248889765 8.59731014059301 -0.6861546715277408 -0.22193479666872098 0.7705297926407116
Ni 0.853735136775784 4.662844076824163 2.567837058163308 0.2909915422570666 -2.035778914280881 -0.06758967412451584
Ni 4.787866486047904 2.6726204598155108 12.139532887251129 2.7133124197985143 -0.4695353735346623 0.07780209588114342
Ni 8.716311428702475 7.959501382559409 0.7451043883246307 -2.1867111544887954 -0.8580236618883224 -1.3677358647521864
Ni 0.2880180846052954 7.9908037327000825 8.747465120728682 0.10495474503653537 -1.0969506222396657 0.15889211848493925
Ni 6.517536371359932 7.516359957942468 6.185813736057928 1.9286266473723948 -1.0890326529441696 -0.3731172052142283
Ni 2.5548065667083923 6.6104430181185565 3.5980527507292153 -0.6780662380926515 0.3748686406876963 -1.183550004697465
Ni 4.733003227199197 6.318839374588844 10.602760462332576 1.6030537675960328 -0.988030464797479 -1.011624450067335
P 1.9562005428862166 4.657589620199593 10.077841180494776 0.14150374780516276 0.04372186636798276 -0.35725735536383635
P 2.9366989782513926 2.637400641123779 12.894960132442643 -2.006138208596313 -0.3199822730624618 0.8774542598091081
P 1.6099860788153821 0.6045401939638382 8.091042309859041 -0.5617832125274906 1.7737876159109065 0.09178606886506128
P 3.716387414715316 8.813200990980793 0.5603690998764428 -0.6212392018012786 -1.3939711442996314 -0.18491399646999768
P 1.2292997614086265 7.069721795287112 5.147564895570615 -0.9792702021063456 -0.49311470351649916 0.04727435960593149
P 7.027732890125294 5.791495750041524 11.00123994059737 0.5308093898537954 0.3749457737825349 -1.990783580517113
P 0.2416367528914797 0.9355644166148539 2.310795958768909 0.4531854714217292 0.4661487164506165 0.1251834133785844
P 0.21234549460124158 5.95662780147061 1.1132267576671577 -0.16434465695907827 0.36752942671380573 -1.9604651320392301
Ni 8.573487444010441 8.716666712246486 5.026666580327473 1.5097080675533356 0.11413538309453893 0.5248863395011412
Ni 1.8832365224268919 8.09408839877058 13.099331381394249 -0.4768753588395014 -0.481791565194196 -0.07682379112827414
Ni 3.949911548366335 7.490480356631421 12.2416974752013 0.23879634831075 0.08565013117065248 2.437455676300357
Ni 5.256158245753977 3.3158052188439986 8.06647912757422 0.5131055448161292 0.6604032735952498 1.7625704070388486
Ni 3.639749014445572 7.49830594416659 8.594395880575432 -0.6598497150846249 -1.2074707771791204 0.22985276596421703
Ni 7.769602328286044 8.58616545679143 10.208537841899036 0.3635377890559094 -1.5972901256393781 1.3811498241652471
Ni 2.2301335048849036 2.847681751342983 2.2706059102878156 0.3409411347023161 -0.361363664222726 0.5665904041081468
Ni 1.956901760407289 8.289578494078631 6.8947568042992 0.34504178713425093 -1.7700808564832806 0.3574630436167392
Ni 8.506572593366235 4.175563346647447 12.128886535367862 -0.581672752362566 -0.9996922174061236 -0.2747321429754107
Ni 2.017496303794896 8.935829911065941 4.727985314618403 0.6150850092744246 1.6083556394249203 -1.5886604749888382
Ni 5.777985625802195 1.8876682171600698 2.440862459360899 -0.7258159946731049 0.47998793632655395 -0.4564412593548655
Ni 9.166091045852237 3.3078954852063016 0.4502742092412902 -1.93229226914944 -1.7885537184764873 1.7138104640263259
Ni 7.680126972597201 2.6027324468819573 8.038044289616385 -0.31292716598789333 -1.3506699104088353 0.57861751047601
Ni 1.1468552800644025 8.290541499474235 1.7386389248848908 2.652614073477193 0.5764842661830911 1.84077308079252
Ni 6.144329707511282 4.624090121826225 12.438405819082627 -1.1577003906242125 -0.38850782873768575 1.775925488189516
Ni 3.3597949313326096 0.5487008403257974 11.975830384608336 -1.4549903642954813 1.423768173056406 0.7820843302475304
Ni 9.173561349843395 0.9274340331971926 9.370745586682355 1.3580824008228223 0.9671991298744246 0.3482214704138132
Ni 4.624875485449826 1.3059007634105804 0.4883830441198406 -0.15445079488413402 1.323784913092533 0.2214059207484445
Ni 1.8664727488897868 5.955982681351224 8.259068987215116 -0.648280779300103 -0.7984077499979024 -0.45953121113409895
Ni 4.774664897517848 1.965531410699954 9.946310537718785 -1.6212939447531431 -2.1635753398022803 -0.7325216888280546
Ni 4.69811999291758 2.911960024107957 6.027078658334412 -1.809736780312006 -2.2020616688029366 -0.5739674132985083
Ni 7.80034370440986 0.7930265286714162 0.9374997769730139 -0.5560751063991197 1.2492303776144098 0.9435413812461686
Ni 3.9695269398224684 3.9964723917655456 10.330995664909045 -0.07536006209855409 0.746103027056915 -2.003230033810582
Ni 8.047583652773055 2.657137576950231 2.66417219112163 0.5823268410067971 0.31946188178261753 0.7941998825641419
P 5.592873549806018 6.33176982567742 0.5191571437279732 1.0455231596973091 -0.613450301884479 -1.0362450768294929
P 8.855928511931474 2.6211884920365836 10.644004207008665 -0.7087202155330826 0.08591804012005848 0.34812222583178754
P 2.401118385223208 4.401084250991293 6.724239402308277 -0.2563482411515843 0.3952263784084419 0.3638830882104701
P 5.988715515234886 4.612449910976423 6.322941964565466 -0.37877954570632827 0.34438769849001977 1.3973305476901676
P 4.244778190760772 8.61649545196955 10.35414893249816 1.2653136563295175 0.0015886846433585543 0.3627402328552785
P 7.873691057114038 6.957713983254474 7.679179861465405 0.6670845422701672 0.9612274856720218 1.7523831820932014
P 0.5681628988839894 8.079334782127216 11.16512008501217 -1.4631456464127641 0.6825350724972825 0.46719309855473085
P 8.277723243189032 3.6309791206486928 4.844887624948127 0.08667882954548298 -0.04088105448507798 -1.5086621427873241
Ni 4.428356937777537 6.328048698032262 2.1921686533373466 0.35628907791329606 -0.05015708047036523 1.5150402783995263
Ni 6.829157437724525 1.312987735156886 10.274959970365101 1.338834351226488 -0.1814898012797971 -0.22752386072072425
Ni 9.18709017321662 5.356881130480824 10.26446414650969 -0.5026835781518569 0.5885561097459606 -2.155633459247384
Ni 2.8143131469068825 2.7347483321825288 8.362314385104433 0.28592389792617207 0.46011228044854957 -0.2506275366177232
Ni 0.4130676075731864 3.3296238787925994 6.301717512637645 -1.1986796612500517 0.5344266748914087 0.9005052280913007
Ni 1.842397613999633 2.174494231979542 10.418272937408497 -0.03537349440328747 0.5969101381376107 1.4049965488758578
Ni 6.312865001309308 0.33966228755393346 3.99114033373531 0.0841527206895196 -0.6988626060127126 0.11076003886440279
Ni 5.526575770580355 0.07886733703005984 12.33706212311046 2.055100240317312 -0.3720712804482173 -0.8532961745056659
Ni 3.8210745158279584 4.170477182227935 0.8733402437082748 0.6810831705421044 -0.7624976663648545 0.2309030616056023
Ni 9.233361180040452 5.8666943170013335 6.325911387028033 1.8615442519016003 1.1578754827494961 -1.330490607247483
Ni 7.567548836980756 2.041814527425688 12.456386906236313 -0.2105466094364374 -0.9789480428802366 -0.8013380362708199
Ni 0.33684713294600127 0.5178762530561476 12.887023285060797 -2.131200265905685 -0.42719856043966425 -2.6339686904618635
Ni 0.15552443643369937 6.088961572047402 12.305848593855787 2.0356837834639134 2.555869889275908 2.382690921854651
Ni 2.4893315493741217 6.180643425535887 1.04122200277666 -1.1853250943200166 0.6301760992795921 -0.413281693248256
Ni 2.4184618319110665 4.504312819660104 4.476472614160138 -3.767407894545866 -2.388812718481673 0.5966995647887013
Ni 5.1672345145150445 9.103944474351323 6.154778783531956 -1.5933152001520303 3.195617948514651 -0.49536930387863076
Ni 2.4850026998773678 2.422706535305292 6.057580685544369 0.1916960523888376 -2.295581946750285 -1.2811246552198452
Ni 2.1749991085947142 9.18194791139542 10.0863530262439 -0.5835607134138981 0.32640411742840564 -1.1627767767058554
Ni 6.598961749906864 3.6818220657099183 10.034846261929392 0.6156365109025204 1.176400023916245 0.6417424639609528
Ni 6.144357756212125 3.332559642814156 4.514637546440375 0.9572661870314287 0.8368652826431523 -2.9677791276566694
Ni 5.925185207825723 4.3403494640994715 2.1341078425925484 0.3327693975248011 -1.2718882242232417 -0.42685608949858095
Ni 0.7250402176550113 1.6584074860371716 4.468905074672725 0.2085501478316989 1.5842921707178135 -3.8454732713907256
Ni 7.349451488793331 1.7353357228822923 5.7043269325186605 0.7728720676206431 -0.665316394626151 0.7893433258027889
Ni 1.6476087362126557 4.232053430145044 13.587878977892368 0.682254050921754 0.8749757163616286 -0.6873952288030613
P 0.16996484258431788 0.9756927579540929 6.202658850827477 -0.49397319486205254 -0.8732296802047993 3.4164422857280132
P 7.6266848479245315 9.085955907544077 12.754876505822958 -0.2080539249215707 -0.8024945184727663 -0.7866655218603097
P 5.802182305062668 1.2003161038709655 7.766689938181856 1.157271273506594 0.553312456052318 -0.07914729705512821
P 4.208969349351339 1.0019182932422022 4.24768871095157 -0.051245942659169805 -0.5392042987857101 0.337825986112102
P 7.118077755540267 7.659202641768399 4.027430677842546 -1.0550912630017184 -0.4909614046189222 -2.011921133826677
P 6.635602702774636 2.926311609372573 0.4214709983457185 -0.32886672003628525 0.4276060802907281 2.0137615294695252
P 4.467232437145793 7.005602465160248 6.7188755557504205 -0.48009412288711506 -0.2714370171639067 -0.8365166410544819
P 3.9068848412733304 4.17152433372607 3.0588202168512852 0.6807435278144985 0.10859619844386459 -0.526967390399886
