# total energy = -340889.39567408955 ev
CRYSTAL
PRIMVEC
9.08255244561510 0.00000000000000 0.00000000000000

0.00000000000000 9.08255244561510 0.00000000000000

0.00000000000000 0.00000000000000 13.29323358262824

PRIMCOORD
 96 1
Ni 6.477676510848653 2.2449981028071195 11.50481487693904 -0.06966506859630582 -1.3091774475920033 0.17145941362698858
Ni 4.4999597658110995 0.24465581099983047 5.925405542514792 0.20515860565164665 -0.36938293498277674 0.19242598857632665
Ni 2.8822663230920114 1.6213355463097363 4.729825548165016 -0.3161109630325137 0.28390943859930456 0.7553070621536863
Ni 3.5923766151898677 4.158219641866635 4.773174755191064 -1.071424195833787 -0.17038957760157752 0.175769096745936
Ni 4.971425988471843 4.674054133954604 2.4316781640816987 0.6527840664870951 -0.033465992967929466 -0.3402453941868721
Ni 7.4807808671128955 6.2376155632067 2.6018316126541747 -0.5959513737687672 -0.2960000512152515 0.4450016500593562
Ni 5.2204695806303825 4.3123778070638235 12.225959562184723 0.4563823810924721 0.19933891364607603 -0.5545915798750578
Ni 5.785803984361824 7.993191236872498 12.311555354351773 -1.0075176269878132 0.9142878836976899 0.5735277546579284
Ni 2.0167535560914343 6.550927297528399 0.4551021876500935 0.6234182117304682 -0.1503362584951282 0.013008239334209854
Ni 2.742149784206899 1.6703540826656675 0.25112622146860303 0.3634498573277934 -1.0070859387670332 0.2891819998521536
Ni 0.4839856131578751 8.844607882245429 4.692604339374903 0.009368585699093542 -0.04194292009068905 -1.005369984517191
Ni 8.769576915257037 2.3223996160228406 1.5562790385813197 -1.3336525499152323 1.003020510448408 -1.0752073170253031
Ni 6.815665540571327 0.5617104652459828 4.789007460874901 0.570381752829779 -0.6435329802024724 0.3515289375204914
Ni 0.8228220450376748 7.4028434832940615 2.5542553856503503 -0.005685480420551499 0.20102787131272473 -0.119192228792156
Ni 7.676119325776415 3.8755433574483207 3.815544015004874 1.234736297763293 1.109495805894528 -0.691393551329177
Ni 7.715692007433408 4.004252210273946 12.61744573494799 0.6123439561941776 0.3908827567277655 -0.013818908160963296
Ni 8.167685237330188 8.841810456046128 6.875499580557543 -0.8969110829821392 -0.4833188004719999 -0.14995907766136754
Ni 6.672924143986221 0.7908705332632573 0.4832753575449357 0.14793407681153878 0.280851111388955 -0.6040894294948693
Ni 1.827091692799873 6.549728400585841 9.459983517755013 0.08340041590452733 0.33496923338959733 -1.751457070734506
Ni -0.005034458903482065 4.992315859440649 1.3210336603253063 0.4500757221481539 -0.7643876842987158 -0.8233330524846724
Ni 6.431164759008979 1.5533798877929532 6.938111065127349 -0.6553775382458842 0.7170174225448683 -0.16295497570040324
Ni 3.224224428298758 4.177065938501536 0.26556384707382596 -0.3050091966923973 0.8421208746151367 0.24350532375064515
Ni 5.639202502923786 5.1633039945966175 4.550274382422356 1.9253670027845164 1.1863807892780407 0.9910435405921898
Ni 5.222195265623458 2.7758188066770555 9.438222629992334 -0.4861089616226273 0.775631118423019 -0.6278294534242865
P 0.27302243926494896 5.612390807662955 12.416000167919501 0.06790823380619919 0.15310790770299437 -0.34958004132423665
P 4.02984684348703 6.0803239173641925 12.505170852787995 -0.5405204464939724 0.6125216194226225 1.4335051978385118
P 2.567846517353707 8.52541973639468 1.6412490428745647 -0.7757241923574575 0.11993450627481925 -2.537167684880714
P 6.190268216528274 7.960621203266352 6.24342022257025 1.8422792330244013 -0.03494077774124305 -3.3492421337324316
P 4.719594052666599 1.420029850591215 12.452197773032145 -0.2600190051349522 -1.2794518955031127 1.3307320338343276
P 4.155985333928233 6.159696344493057 8.385424903714343 -1.3088128651637332 -0.4722687133054253 -0.29862720442545343
P 4.941508060223477 1.0516687649904173 3.8215784629490797 -1.5541305595327688 -0.20379772074837801 -0.08696756443049539
P 0.4134432436619983 5.4318387446243115 3.383168190458321 -0.16786398296624638 0.02660937505741224 1.8640577623520735
Ni 1.2499772183525448 1.0035221536836187 2.5814394655675827 1.507309742524488 -0.3324436387542662 0.5824687659013
Ni 1.7059304411808023 6.5373034686357 4.84021307589574 1.66571155163657 0.5058820304844964 -1.2736633138457936
Ni 6.080087770996719 5.923023188969089 9.306326709461077 0.9252978616549483 -1.498852098675438 -0.08531305954620791
Ni 8.556218672244777 2.133963897331622 10.164245554236864 1.3269229445008826 0.8791617294185182 0.4222576714946212
Ni 2.4786830985272887 5.391730192364205 6.904266749392106 -0.7051163002319082 -1.3555287811630332 1.0437185023884026
Ni 0.5736058843798281 9.131780030198335 8.828023141206717 0.6818154207224387 0.16569268634654047 0.5213644423908118
Ni 1.3298401033215468 0.8822927829200848 11.492731448966476 0.3543417243789381 0.9076379824813401 -0.7369969509905887
Ni 4.273713380666344 7.019223709333441 1.6999250574049005 -0.8634322344984033 -0.15144928905364885 0.006917295945123571
Ni 5.703852112295941 7.885917208171386 8.217518478653902 -2.0653676836815915 1.6595259916511484 0.23112109115367935
Ni 5.715414201749545 2.765891576690576 4.915744491532123 -1.053856876373985 0.4557619738996538 0.37498948253627673
Ni 0.9726414748601675 7.3789382048636725 6.964711136912714 -0.7147463671225045 0.2324161558160191 -0.23510244439893055
Ni 5.244165960351085 4.615262771006309 7.172430931273919 0.1525147542036857 -0.045010503272419254 -0.09092860596077242
Ni 8.607716745459177 7.261845936807221 9.939284350284318 -0.4733544901704364 -0.35655750108333434 -0.14334362922737895
Ni 4.568678358745874 0.42082735892184125 10.363711124799611 0.521578872394463 -0.1054244855841023 0.30056195955432113
Ni 8.042327846412165 7.105535206644988 4.7916659240194965 -0.3738646249032142 -0.4698552187679263 0.35288647998965034
Ni 7.199248984321566 6.206580480989132 6.9957235127487944 0.7796394682514638 -0.7553507709074282 0.16177046847399879
Ni 2.64261409031684 5.129162679391513 2.5437268906820725 -1.480078931832993 0.3590368158617623 0.33278302437155594
Ni 2.358511845141088 4.99511328563995 11.095078222991116 -0.395144617327913 0.24999247413688558 1.505628241057007
Ni 1.1842286201163792 3.2107731679053666 3.8118210766961287 -0.6055757842324087 0.5584744598692317 0.3314059415183712
Ni 3.531714246406976 2.620325506248384 2.6386804367878876 0.14585379724374237 0.01260791857199764 0.32481389012315026
Ni 0.8919629766681225 3.5711506897750422 8.069564605134449 -0.27212530148018294 -0.12845179971721102 -0.4147366805272277
Ni 3.990682876696818 2.704112053938483 6.915233023395469 -0.5057401055899935 -0.4557308635514022 -0.38804657283055105
Ni 4.215675869583445 6.625376981150702 6.228584781161359 1.0656608109874488 2.0213239151978155 -0.9217517961749029
Ni 1.2427111762764387 7.485440216594199 11.675753058055735 -0.5367877189244175 0.06489387245990759 -0.21510234712791984
P 9.147946973817673 5.9280367580016025 8.169143895276967 -0.38170957486892976 -1.6690161905297707 0.6911294990345129
P 8.317629098123234 1.66195272151517 7.966462192840282 1.8411595175976614 0.6297811778340187 -0.4169545141141529
P 1.7028332907458623 3.1186579194855306 10.149609928985068 -0.5688586313170332 -0.05127705300742137 0.4394632367396302
P 3.9586305485885944 6.337805200883609 3.987889991773814 -1.343939276553221 -0.6115294307126823 -1.271042845503811
P 6.641916309426438 4.168283110142043 10.546186872477904 0.9682100876374421 0.3119720011634756 -0.9029662880372835
P 6.545695747233602 7.981538321892943 10.149078599658251 0.4945568352796644 0.24347678450555488 2.153568863408872
P 2.4680474294383887 8.5179175479511 5.778316328002396 -0.5907837135248987 0.05065278915986115 -0.5442441752024627
P 7.000159431436258 3.9457424064561013 1.443485542668145 -0.3753291252638827 0.368947647217571 0.8653993855271032
Ni 5.128499653052069 2.882947514536646 0.9088728730897406 0.527701440352433 -0.9634370917288313 -1.2686938856556602
Ni 1.1388612699036913 0.9991080331223842 6.470959963204553 0.5429701935860455 1.8500910157593364 2.1223052774088997
Ni 6.742469249207152 1.0132495675130058 9.216917153459331 -0.3824217704446059 -2.084101512645669 1.1069344729252548
Ni 2.645738488409565 1.6389466157916985 8.823025012513614 0.08438591974624822 -0.16962698840394014 0.6870692129222102
Ni 6.553633898201747 2.1153900772745757 2.7606990813719383 -0.3070948755768324 -0.6353036503141446 -1.2618596363426462
Ni 4.004887988955605 6.829343864779597 10.481156704152014 0.6230726554655914 0.9071155343189669 0.19567252053808237
Ni 8.318001482779634 7.387139749857077 0.48484118961233663 -1.085409968589918 -1.9701772171206717 -0.5377889064954222
Ni 7.317149599558984 3.8460523091719248 8.266210951371669 0.876546146172542 -0.28157693381138604 0.09654183838249179
Ni 3.392142660677572 8.47643753024913 12.528235086848076 -0.12663994331945286 -0.0052684474877909265 0.2706014086364888
Ni -0.05208753087782662 4.646751980853634 10.211304075742765 -0.3811994680017306 0.6721868964937392 0.4329192649735254
Ni 8.410934160933033 2.518001468711619 5.764756985233122 0.7879307617259785 -0.39995875088710475 0.1638101246118469
Ni 3.6092883281220045 2.8911944722930265 11.322605248051786 -0.8146242118567647 -0.8181353103338167 -0.596794952715985
Ni 1.031814305017457 3.2992644778397446 12.729428158914418 -0.2547384734623032 0.12235134324642799 -0.6968897985570578
Ni 2.890486033190606 8.45968022071111 7.889056138348264 1.4773630755637268 -0.22543663917439238 0.6652102080655898
Ni 5.6586391654773704 7.773656858095546 3.8382086167507676 -0.3547767550338277 -0.3271057714811205 -0.15601171161335067
Ni 3.0596031625119777 8.565174069103575 3.687995004145646 1.1590175667737395 -0.7973109173892978 0.2764380699229239
Ni 3.3669294946734833 4.168719072666609 8.885941670850618 -0.5954806047799357 0.14580031829798762 0.43702505961178284
Ni 6.9177715968458084 6.21983192522543 11.535695555762493 1.6318719773793056 -1.2141744144515412 -0.14702570606465648
Ni 0.624133032721811 -0.000645769489513936 0.39070961451638114 1.51667909955453 1.0268533512019478 0.4344971509836066
Ni 4.649413168764008 0.5199852186239432 1.757777284414858 -0.6909988869939196 -0.7548961998685129 -0.32058699652599626
Ni 6.188796843007863 5.827956110955835 0.5245918893001945 -0.2798141854840084 0.1350263676109352 0.022907243615476677
Ni 8.068658166385456 8.852491537898004 11.919790347223838 -0.17960415422131004 -0.31642052385313246 -1.8488373458578935
Ni 0.3031138442678831 4.993287692568328 5.832034177071049 -1.2815645709707413 -1.0012076256093854 0.04313411218531281
Ni 7.939059223405507 8.858240793690724 2.449929553521618 -0.06359058026745176 -0.8478084119182172 -0.05481386251608624
P 8.423004873331964 1.419221503410248 3.6631369659480275 1.5553726594699857 1.759976163949111 0.9785214968657792
P 1.7224243566935635 3.120465347451962 1.5856701787791692 0.26900989577965284 0.4132582962094883 -0.0531812120086697
P 4.703590594993974 1.0051388480455523 8.126339641406624 -0.49926761049177243 0.10771431005954353 0.20549490594514286
P 8.397455652881856 1.7605529124879307 12.56433914166899 0.6610859014845711 0.10764489027418879 0.24687475444351029
P 6.244227661495957 7.809015235348397 1.494584891823621 0.8504679610282514 0.8208876762679734 -0.442556016732341
P 1.990259750171432 3.251008875901804 6.083143141689721 -0.5532949725508213 0.09547380212929363 -0.17293188440745702
P 7.039259820358304 4.158410375471133 5.9222557132748 0.4177569554107902 1.2106640873054375 1.2813190306188385
P 2.615829642713793 8.630577530341126 10.138682709957862 -2.1499757467409744 -0.14548561527104623 0.5996131388910705
