# total energy = -340898.7760241052 ev
CRYSTAL
PRIMVEC
9.00579230667973 0.00000000000000 0.00000000000000

0.00000000000000 9.00579230667973 0.00000000000000

0.00000000000000 0.00000000000000 13.18088736026645

PRIMCOORD
 96 1
Ni 6.299938939132889 1.8761136622294567 11.341678640783227 -0.009683288726034935 0.49376673527820125 0.18983637347227952
Ni 4.660506503446119 0.4438378637205284 5.989342672567024 -0.0722161171529337 -1.2704764314773795 -0.503333810141346
Ni 2.7283497959453586 1.427517137875575 4.789683786551139 -0.7724280381046891 0.6457407864870686 0.07544799382667006
Ni 3.4231916982284183 3.9908267847542582 4.7176896820183 -0.2774225453233803 0.5334362859536814 0.3826097180856959
Ni 5.026609970643462 4.46455847532254 2.726875547751415 -0.018236063392052467 -0.12343120657416808 -0.4896527131098277
Ni 7.326311072104124 6.09741668265513 2.4681868666483084 -0.27978256091512466 0.20836477129377018 0.042395948467707625
Ni 5.117658530452699 4.594809248865666 11.354807284748597 -0.2904528961447772 -0.2334050020918496 0.19561441360663728
Ni 5.709492180797276 7.921774056731898 12.307494925978668 -0.6594465661089353 0.03180223211226135 -0.24330889146912288
Ni 1.7460069813625865 6.436475755677681 0.5403070098946702 0.35464074367659565 -0.17304244184339232 -1.1027412607795137
Ni 2.8408411471399373 1.5872528752975776 0.2721010075248571 -0.18848294476817862 -0.37655605569244827 0.7409294532757755
Ni 0.4432722999662238 -0.1508650320399949 4.74146857591744 0.8659143774903088 1.1754091207578854 0.6017620669132734
Ni 8.477242317906375 2.1705670461585203 1.3686507767288805 0.42471641744775884 0.9588975519872646 0.5082389607524472
Ni 6.833451078762864 0.7990506263305992 4.877508272729149 0.3600963674745282 -0.07346001686236381 -0.5031088386147335
Ni 0.9740935088671184 7.376860584093169 2.6865286978205183 -0.8723115392659042 -0.23599436008558067 -0.23553310417844597
Ni 7.6665859270825845 3.886620762444398 3.7356872863831816 0.40953713860415913 -0.27525150581399044 0.15799634614354724
Ni 7.600069145405925 3.8324239045876234 12.568094636200618 -0.33122339319391986 -0.41088336821940846 -0.028896885540008303
Ni 7.97563770027483 8.799073310324072 7.021208338820518 -0.35531283004295583 -0.4049286932978704 -0.28024510237383987
Ni 6.923824204152152 0.6858180984325293 0.36900423288621986 -0.6361204897884851 -0.07055801272422042 0.1722274021412647
Ni 1.907399784561533 6.4427617986793475 9.316185001658438 -0.531460136063917 -0.24583088656002822 -0.984129072860544
Ni 0.122831801874397 4.74887133716009 1.382965483535684 -0.45283837249495557 -0.5310289620637694 -0.11674248170008282
Ni 6.315969249366365 2.0710800589960425 7.013761449195765 0.6360109607938144 0.288685005611077 -0.5030512459039207
Ni 3.1939312445129127 4.165485119961019 0.46910541508123843 0.43978899551016515 0.7049257814876569 -0.3962671609681304
Ni 6.053432393227997 5.792264417514062 4.700660629422524 -0.25248927241681035 -0.7688979134642435 0.7930297735154406
Ni 5.259724903448814 2.9853480898401377 9.221704334416629 -0.2839004397382401 -0.006858160572413995 -0.24265660259710467
P 0.13075329675156863 5.4497651318459 12.363646040757164 0.5726597502306783 0.685007445297175 -0.19376141955829856
P 3.9901243329575107 6.140122149580492 12.61533451953191 -0.6102819314588264 -0.43426857991256823 0.29984976397864493
P 2.5024935317064005 8.381195543389508 1.3468621629205253 -0.3800632975147583 0.20184188257358787 0.615011732834328
P 6.392815674772124 7.82350285152533 5.828087657989747 -0.44432699258983477 -0.2906395582342865 -0.7909605496912379
P 4.783381533123394 0.9522814799988718 12.62626214786747 0.005077414522907385 0.4316859067870566 -0.801378145480136
P 4.0564249756197865 6.178432789880047 8.15417122789365 -0.3398926388331437 -0.1709667902612862 0.1631840609920738
P 4.5924857544610385 1.0584237476459217 3.7362150258099693 1.2902960373064682 -0.07139876345796091 0.2997867719511934
P 0.28683178193434966 5.411121277232503 3.5666422614958173 0.4935996135727177 0.8668456310553264 -0.16831829689484562
Ni 1.3577762825676882 0.9408441238210545 2.5701144235148714 0.2540627875515173 0.41238026447990916 -0.11901379423276277
Ni 1.8630012286901638 6.57722728300296 4.92192754192273 -0.22224872836471402 -0.7675406281054007 -1.0159315620831213
Ni 6.083304606174312 5.6125628386383415 9.03621022995542 -0.8651885550678777 0.26444438789615743 0.07713746571395101
Ni 8.419668287949852 2.2662625947770128 10.179546891139754 0.9072829131347664 0.2190865285866485 0.09180458080782253
Ni 2.3887954043481785 5.168406169871597 7.0107823331141725 -0.2352256002403562 -0.03780061578754135 -0.07270668363610705
Ni 0.5087660236414661 9.202658884932497 9.196885271510766 0.3231313602144048 -0.564627109734189 0.2654293775172461
Ni 1.6046880891245494 1.191313218322985 11.370228803424894 -0.4024691760137843 -1.186693435422453 -0.5249804418768443
Ni 3.918834481379872 6.650057125058084 1.765461293815595 0.7175180163303707 0.3953791019362223 -0.24306000868311042
Ni 5.53162778354382 7.828879309508131 7.8484272822007055 -0.1425321890696771 0.4792855109428907 0.6550607783364139
Ni 5.5201363926124065 2.906826587072903 4.815597953796547 -0.7860086050026012 -0.2202000733658014 -0.23309029906490825
Ni 0.8975118537539796 7.406975953430666 7.066273323319571 -0.01839752867058122 -0.0203929618340552 0.005414486147351965
Ni 4.9564008141377425 4.502058594318155 6.9100012136030715 1.1070856537911384 0.6643144357241979 0.11333062780505644
Ni 8.231168050030252 7.115737637340564 9.269815077860043 0.43522451606793433 0.18383644713510275 -0.2818744104471468
Ni 4.455606717810138 0.3111627308993959 10.357818350203635 0.08171248667914315 -0.11813113451749334 -0.3421130435232302
Ni 8.109292663294504 7.031200265339643 4.645432608351293 0.283044519495848 -0.22792135326945906 0.2710626645436235
Ni 7.401671541785994 6.248218674149263 7.057455752111932 -0.09363829158245164 -0.766305470146719 -0.7244309414001202
Ni 2.3259529859160457 4.993630759365377 2.614125730318803 -0.3240736695230161 0.4762474954475153 0.41371698101346166
Ni 2.2690994193408023 5.201628537540862 11.42234622384745 -0.09394193886579949 -0.35319475525868854 0.30352207062390957
Ni 1.1896201293769773 3.208412558476637 3.8027255034320424 -0.761330899750263 0.1867065695940462 0.30797136464451474
Ni 3.509953500919041 2.5336355613622206 2.5933133443920817 0.10477296804303247 0.3809858093290277 -0.4260515913194146
Ni 1.0619089892528628 3.400172893196528 8.13563910856868 0.006745032033317416 -0.19891879538952192 0.49750794748818833
Ni 3.6929331881795835 2.5913626897872666 6.802339668800748 -0.057794285300648854 0.054117864890326155 0.39233877244800175
Ni 3.9616930467737554 6.767483650414429 6.020884559399454 1.1701866960166816 0.9371179942183281 -0.20021231738996487
Ni 0.8511041056280665 7.431219546210732 11.42354579537728 -0.649526735892062 -0.4814362387373064 0.10236590126343661
P 0.26285836292226356 5.521271122437922 8.011514975504113 0.4097644241236169 0.3467605695975705 0.09624179064356972
P 8.447937469872818 1.6076239774032646 7.954112055600642 -0.46451118084719356 1.4109643364235183 0.5349344677657626
P 1.8226372677539617 3.09913627512102 10.370366120567848 -0.6461004838193324 1.5489029925852422 -0.307719910755341
P 3.977831426514424 5.941121157878738 3.9198116098407327 -0.5027571117022697 1.0713084961915291 -0.17961983795059389
P 6.920645159482254 3.905920175270431 10.285283898134834 -0.1363844243007264 0.2500562374952855 0.25284099932927423
P 6.273290799817801 7.772719188937368 10.040329950816602 -0.3944010542936691 -0.21312362613499425 0.2559327508807205
P 2.4664883742269414 8.490084577677688 5.809015191128817 -0.7595799784974273 0.32750454958143593 0.622941786314682
P 6.836314920703451 4.047950525097483 1.5754192642600566 0.2822482488467978 0.22413180432003982 -0.9223981715096501
Ni 5.233373955278505 2.919587794713822 0.32018653474992564 0.49523637784519225 0.18373051768485776 0.15936622990788038
Ni 1.3812633887974104 1.1735267785976395 6.981981809447512 0.4579988336499725 -0.5979270094378992 -0.3115315711919473
Ni 6.640943263284894 0.8243181776913093 9.101864256732997 0.25971947161666237 -0.8203523725897935 0.22845639983732272
Ni 2.7464604441922806 1.6938544383501934 9.060818557322257 0.334750689620888 -0.19244810006351373 -0.022402536064916257
Ni 6.247336106507196 2.2171179863814627 2.5996137966613735 0.05977583450705189 -1.3397388653186282 -0.22772234988477555
Ni 4.045302822171279 6.7929160077736075 10.506973182292315 0.7581363040723652 0.08109850724422807 -0.8255925379428103
Ni 8.087597709725715 7.1744013681612735 0.1855184201003278 -0.13919232606316673 -0.10422429462841404 0.07384516811592444
Ni 7.6521766594569876 3.855965045570942 8.063223532957792 -0.1414564395069951 -0.11071890121382222 -0.04241060375572696
Ni 3.110897839820413 8.342902914674486 12.295356018583329 0.1999454368818234 -0.49236522694498436 0.6454595078012239
Ni 0.03644193840436004 4.741612668593695 10.087662593808231 0.36333621456806453 -0.18272830167258852 0.808852342369994
Ni 8.612383236649938 2.4408668952301777 5.845459831270857 -0.1489828297910273 0.24676625389010406 -0.24367861610371577
Ni 3.7154296572600463 2.6581676568164383 11.349719012118308 0.15890471689042956 -0.045134944665425496 0.13258253405613293
Ni 1.0909256519339077 3.237609337003002 12.53553779657981 -0.5228775366012285 0.9239274636699829 0.16656583298011313
Ni 3.0264505257421517 8.471253466049486 8.03951128192142 0.7283379897640101 -0.4806600226929142 -0.4143990946821508
Ni 5.568938780901848 7.940983411635271 3.6078194454736385 -0.3731578286441767 0.0807462661111319 0.14393986805048115
Ni 3.0492892149287223 8.36080642969929 3.6421558296462084 0.7646424806219992 -0.7905838830781093 -0.48947042189569256
Ni 3.3658428130785443 4.4550213413128485 9.257609527601936 0.19806904579471696 -0.7554880678162408 0.2480276371010309
Ni 7.137540660416544 6.033322459098025 11.205849679510541 0.6206097957473957 0.07176771676160543 0.8754706537201761
Ni 0.6900472184806419 8.880053394379924 0.30574934916830465 -0.27029287625713444 0.5988567203410202 -0.08528400608048538
Ni 4.548258308642723 0.22942796145165317 1.6082660903918302 0.039941316279627985 0.20075533437762846 -0.2101766276915284
Ni 5.971551729945545 5.7913278151183984 0.28672641416483746 -0.1164735443094123 -0.668983559065093 0.8962891331274241
Ni 7.829716848188868 8.840130717264756 11.210582223346323 0.5386358278767498 0.08704264064280492 0.01936709167270213
Ni 0.24053390447408166 4.920719865179859 5.731497834199241 -0.7365554925777961 -0.5759718453230468 0.39422287684459206
Ni 7.774988648588399 8.762032486734023 2.8009779082537247 0.8236266724656911 0.28349986186571174 -0.7580915668773589
P 8.580547760989635 1.6861364743782334 3.6872613402104584 -1.1432153096341602 -0.8244818213771349 -0.03866784888384309
P 1.6062280796020352 3.013482184879115 1.5591142773624678 0.6273635695314614 -0.028904855959808285 -0.10866664667048381
P 4.679049429721809 1.1416732913528052 8.073411785748315 -0.1619455605992824 -0.7652266352602435 1.2382661652934221
P 8.637887640347243 1.556777274269441 12.404084749769172 -0.6332256847391933 -0.2685900346334148 -0.36548025749426094
P 6.275983531705335 7.87053109873837 1.4386410924825355 0.5446419248615135 -1.480092815790064 -0.03643741689142757
P 1.8044996021302422 3.203108146831964 6.031112437675948 -0.49136712469777305 -0.140822405467422 -0.553326340009389
P 6.952948936340388 4.040898989753206 5.907383658891859 0.07470031702736811 0.987880569483176 0.577012113662103
P 2.3283845498278657 8.369542048197308 10.12342189315883 0.5097350856819994 1.1835947418924715 0.8054276329591612
