# total energy = -340863.97914657305 ev
CRYSTAL
PRIMVEC
9.34888968443556 0.00000000000000 0.00000000000000
0.00000000000000 9.34888968443556 0.00000000000000
0.00000000000000 0.00000000000000 13.68304505342607
PRIMCOORD
 96 1
Ni 6.796567948669073 2.8417258786193607 2.3547833544276253 -0.08680892736544403 0.0392867134147646 2.3075247209344583
Ni 0.6312697469600163 2.075911586969346 7.634495835143864 -0.9061140896376458 -1.400622073957246 0.8143750719604361
Ni 6.5443068605705275 3.0112025493027694 4.888911132512311 0.22164811866623763 -0.5390955411219877 0.16544740310495376
Ni 3.2836759367182573 8.290913160241088 13.271787449978605 0.17623780885223841 0.11546541475987211 0.8529675875216536
Ni 7.656432069703195 5.910966334563933 8.867680750606326 0.22480851867209026 2.1352129866095035 0.8487201250992092
Ni 8.064314774096754 5.356427599002531 4.606848589033276 0.6488482217677987 -0.5502065634334847 -1.429820292787757
Ni 2.2588693564571174 4.828205987667397 10.0715279156125 1.0573134674640177 0.1048778690520129 -1.0208904487502937
Ni 3.8008658583244395 7.333474678443355 9.717274181525003 -2.255480450743709 -0.4344231032125615 2.5064936528356254
Ni 8.139386357591226 0.6465458325677331 6.636003574442112 -0.7197872719805217 -0.0032192782682460685 0.9441995836554578
Ni 8.435699413488768 6.547317203021987 0.5511787446388723 0.904088831677501 1.9935786267637472 -0.30452762907028846
Ni 0.20235391074256318 0.5709095761413732 10.913131785478326 -0.27649514841310446 -1.753719898626754 -0.009530565198254555
Ni 7.427215994470635 2.4494464709695456 11.566811755700435 -0.6176836232395363 -1.3743338296846783 0.3311159210817782
Ni 2.195848491658085 3.7954154556871695 2.8004271588078002 0.8294322234038748 0.015090832894851428 0.1977769684755949
Ni 2.121337841539662 7.24537074284536 5.948416116526841 1.5855044458583598 -2.3451499874864 1.997032903860935
Ni 8.786348215746195 2.659609509195662 1.3746261360109746 0.7346860434692251 1.297120002206837 -1.1314969927559675
Ni 7.420699818418874 0.45908657273717385 1.3080265162727536 0.3236065000786104 -2.129226430008765 2.1908038365009297
Ni 3.428901587777176 0.7618419484586317 10.484605797957226 0.578119487793669 0.0727961580261198 0.1664791868035778
Ni 4.9975517738963955 2.498948841405813 12.237568407667373 0.3670787123296323 -0.06423387027840552 -0.44458718822975685
Ni 5.804136573095524 3.5643763469824536 9.825999897804454 -0.4379308592555039 -0.844052801530527 -0.5542491089339745
Ni 5.739984492654795 0.15146136042265618 13.048466784528316 -0.23929951319941367 -0.3240649277722677 0.2913748937384143
Ni 4.510231554564788 0.8087855278111584 8.157242736728765 0.05284979681117994 0.31200234018077877 0.3189466327090959
Ni 0.45156445616436547 6.706472699586106 9.691235654208837 0.7654932586580687 0.030255199340115634 0.08079768817435763
Ni 6.69653482994045 7.452308414159199 2.8366316686758815 0.5992351867263616 -0.29184026341060704 0.10487401239727098
Ni 6.741699315601943 0.6661018398346988 9.649898603949914 0.20533215511503344 2.0337577700857943 -0.6600654306398568
P 6.379513983577123 0.5297146290043822 3.422813590869131 0.15959711497176385 0.2093255925451427 0.14987448836736122
P 2.9967959104279274 6.111584156507627 12.800953997458018 0.801376088597607 -0.5739995520880243 -0.4220476123663441
P 3.413279593254229 0.49787511569091747 1.4273061940225558 0.05414331881162288 1.6255455209406457 -0.8084813321838205
P 6.962585530200184 1.9069678029931831 13.680034761066597 1.4018328064358954 2.346821461651552 -2.8751065424215967
P 8.938220927311287 8.34419248207608 13.180138415443984 -1.623219186800314 2.480265829487348 0.029879561168251766
P 5.2296379582364025 8.914661725517256 11.049879863447234 0.10732041705523453 -0.1857526903212091 -0.1382721282417425
P 4.256932739720553 3.959740888200535 1.7335599242326352 0.762892587810428 0.8227869501732152 2.4876371822507544
P 9.062935114586036 7.115729690750985 5.2529344562326505 1.0859115908166845 0.9594706508819152 1.171637312420279
Ni 5.082196620342092 3.5556818796537044 6.845996462877493 -0.7289866790916026 -1.2284273248261297 0.37511649503244426
Ni 2.865406615978202 2.3809471568644405 7.0086194625945515 0.9658688410987754 -2.0648776314190505 -1.0432287072361774
Ni 1.4003514755255122 6.551168945537519 3.814025355326534 -0.2130369799584589 0.15088210369626917 -0.3637799869737025
Ni 0.8552504440161236 6.840909732045696 12.647566765777597 1.8406602093637396 -1.3385625856223398 -1.1543916379659538
Ni 0.17496166421220194 8.098868270061333 7.560690091301341 0.4686041199696446 -0.7894122313675115 -1.3605403754450118
Ni 3.2598923615738067 4.0632050494126535 -0.018776309874258542 0.1619293626493663 0.7144239507860792 -2.1320901247098054
Ni 7.559960877912479 8.598070928075565 11.333912217965159 -0.1179796965412936 -0.46363160645571766 0.4561029021788403
Ni 7.696351828298636 6.224098042853325 11.888650084875056 0.4942866123374132 -0.2350847037871177 -0.4656126414414884
Ni 8.361730998967193 4.171259515418768 12.984881246797393 -0.6065196362029167 0.5549641327231281 0.5968728571417721
Ni 5.40885617188385 5.856667983762453 8.073845032155816 -0.6796063288862618 -1.6329469556110392 0.423321079762129
Ni 4.165313621632656 7.7609246087714014 7.5355266200518125 -1.3856991340988263 1.037755085716116 -1.8801415552878136
Ni 2.06667488404375 2.2857941585074384 0.7627151347473471 -0.41677170867938546 1.019065993947045 1.8510006720577994
Ni 8.962060595793341 1.2419158434606548 13.115746068540515 -1.255049298289032 -1.3987875918516683 0.8135700595606375
Ni 5.473400905687814 4.765297309543575 3.5855730843743614 -0.5712417868372291 -0.2151990206067842 -0.8934100118074162
Ni 1.4353443693013286 0.07741254545051307 0.8526299502610178 -2.3603737464146897 -1.083159481992844 2.045566332684948
Ni 1.1292991193293471 8.95590902643601 5.184505258799551 -2.4451625580263117 1.817665034020147 0.4756222031586906
Ni 7.222465963323386 5.075035370907875 1.404550996734194 -1.1008435295361685 -2.67730514846597 2.0522681701851555
Ni 1.53164728107923 0.15336385945642017 8.739976788437238 0.8896556869713064 0.22545617955841818 1.2121681826547899
Ni 0.41939586193695244 4.199998002051646 8.656674442538216 0.4317702389707467 -0.23366674039366853 -0.3287813594113305
Ni 1.6427307873160057 2.0081695329219067 4.923570270929378 0.4052174281828827 -0.18876396634370718 -0.5077774477349964
Ni 1.8319710106155183 1.0345481232251794 12.644187142186905 2.751845028656074 -1.6987096038291456 -3.405795090426812
Ni 5.694661075870087 4.731099071383826 13.124940701462908 0.9792432055231522 -0.28855233668795466 1.4116063408828914
Ni 4.391687634426569 4.854074365192827 11.20206295814707 -1.0680182554760318 0.6408227803601609 0.3823091561261415
Ni 5.842373531562821 7.916742551748033 9.090836875599642 1.2118820188729387 0.08915737299296259 0.8357460814370445
P 2.9756767688197074 2.7383365085240485 11.656257256956145 0.5887756819559343 0.47763511982366136 1.1364437952382813
P 0.33025046003742803 3.464978952746686 6.157506837115745 -1.1002372634107374 0.8957435450365994 -0.7696623024340938
P 2.308745682477417 6.425360938179474 8.125279818072569 -0.5618973695078516 1.3896696887108002 0.723988968766695
P 7.896062807951051 8.284368937520524 8.859826748452688 1.430674413257936 0.04861698967675498 0.8255616847048749
P 3.7039272220536836 3.332813700460093 4.885791408052522 0.5482214146826558 -0.4271281122130451 -0.007674485826122267
P 5.169337620311204 7.368953714478413 5.6977564932169145 0.9248767149571298 0.26835066492909915 -0.6106961361781096
P 0.7506148669370241 1.6260897638265712 2.6076465110164624 1.2757245672501965 -1.0352703716210494 1.4205445239127859
P 6.401483874139016 1.7389495590874997 7.556626128991872 0.27456219305644974 0.5866642920398863 -0.5534682649038919
Ni 3.5925819469080853 6.3836087972222755 1.2126790610120544 1.7805174784355724 -1.3627715787683756 0.2672252930754043
Ni 1.028733113893478 4.935297518044629 0.8332291345614254 0.01701221828728038 -0.8315276724803228 -0.568506133073621
Ni 6.2308479411451065 5.347228291635338 5.899007234986582 1.82833202681569 0.3798072156398943 0.1555139460413257
Ni 4.04447922354224 5.432546258132293 5.643434770191431 -1.1888881290809268 -0.36206711804765385 0.886053571442345
Ni 1.5347137168682943 7.222531405550591 1.4414127335412115 -0.3733311209972474 -0.4007907598700968 -0.07804943600525913
Ni 7.095283669194022 7.40151589695802 6.949016551833575 0.14208147468550367 0.19780165106594325 -0.02877630080174399
Ni 2.4898617207138294 9.24650056189786 3.45308062095174 -0.28578737234830776 -0.5317928368129873 -1.5985569081669437
Ni 5.532906587996944 0.340690365054648 5.703612637662859 0.11321389972153405 0.24828423319652723 0.30180765903596407
Ni 4.005784169484504 6.926209000763449 3.9346138776204493 -0.46472149708578675 0.7792345195035613 -0.8602029289278281
Ni 5.241473652471022 2.1852094552923678 0.9616707241200173 -3.7985215852315357 -0.8693444862177802 0.394892649218107
Ni 0.8369154017310232 2.9634764678906556 12.192564722907015 -0.3522691581206256 2.1569205534899236 1.0172767632571063
Ni 9.333585468529368 3.3384604297789795 3.7931726570719366 -1.198152327991672 0.9454990191931715 0.3135002648825439
Ni 1.915307012517102 4.5926981097334965 5.346102685327401 -0.6268316082873914 0.15415563224121837 -0.8809357905998054
Ni 1.516090728783489 2.3073620468164977 10.1569244127821 2.2313593893257893 0.21394715047755414 -2.6629625065910525
Ni 9.036029010314918 8.178436669453792 2.5107434005261893 -0.1282365983826114 0.30904788553814516 0.8419357551875242
Ni 8.943764818844565 5.645990756608292 7.10523556217408 1.4081397224905297 0.13996828499724281 -3.037281445422866
Ni 7.315767881539429 8.33317014123673 4.798247470941615 0.21345247022932273 0.19325568356647363 0.6366550221357165
Ni 8.409653407060922 1.0593320295569157 4.397895297121504 0.4029448300986222 0.5250562894201022 -1.6866156487790886
Ni 4.645678267101264 8.42063835234187 2.1693509338625208 1.0084763913566566 -0.36703963156158076 -0.07156717071502512
Ni 7.249736674288936 3.985758847959578 7.793670964376144 -0.009399181826712845 -1.7891098480902738 -0.8677995103281636
Ni 5.348611927296257 6.985004167462917 12.483698493965711 -0.15166037662319043 0.5327713986761727 -0.09712702146200047
Ni 8.235184429330683 4.106761526062808 10.279209758538562 -1.2497409987022412 0.876382109790852 0.6582252921073245
Ni 2.609985603194584 4.430550968497119 7.668580016850481 0.5404991063377337 1.1699601818281724 0.2066681003176376
Ni 4.3140825018502795 1.3667796129690182 3.5050211817958976 0.7504888148294365 0.9477551622172 0.03922757804205502
P 8.854697947617685 2.1374085827634475 9.63451968055659 -2.0269091225950766 -0.25460503320823247 -0.785064495921777
P 2.7118417553953647 0.11739307182835942 6.954448256691642 -0.7816125328174345 -0.08385164450933301 -0.9623544001876136
P 3.537404800484129 2.99472980582615 9.126166329401087 0.8670772874501583 -0.014739363092703647 -0.5427663051053555
P 5.980681004317143 6.780441114107683 1.0585944021674123 -1.326523909290251 -0.15638015069636294 -2.275227037243017
P 2.2733040420007615 8.38688886088296 11.366149993975618 -1.2090625471462726 0.5900154679003066 -1.0485313503960134
P 6.247956409114582 5.729532434081093 10.346324502093788 -1.8199353181115623 -0.6386172880684099 1.2096860396628843
P 9.248501224272433 5.699429009566498 2.5164621162950023 -0.38992553502081884 -0.42401939138073425 -0.02999783191367092
P 0.5786485869529203 4.983528439495187 11.260667407498683 -1.438998359742599 1.0296882495475816 1.4340119622716012
