# total energy = -381162.51717374916 ev
CRYSTAL
PRIMVEC
9.28523008396365 0.00000000000000 0.00000000000000
0.00000000000000 9.28523008396365 0.00000000000000
0.00000000000000 0.00000000000000 13.58987279332602
PRIMCOORD
 96 1
Ni 2.250405510820697 2.9398524170834195 4.480798565181392 -0.6317413868841829 -0.8826435173195314 -1.2037671030752881
Ni 9.344655584533799 1.69805502715897 1.8025064377328348 0.24102780874443003 -2.0100318872237644 -0.5482725796355654
Ni 6.830075991801763 4.234817034628139 6.4322363798157465 0.3763243992976164 -1.030966859149689 0.5409691039956167
Ni 8.600825085506157 8.120955108097283 3.9949201153671603 -1.3638817811134187 0.6059316249099307 -1.6462971516657003
Ni 3.747258886686679 6.144371033274103 3.3799101133418508 2.4492287576758853 -0.47583020540443854 1.2616282370581304
Ni 4.100738311813485 2.5909227547114044 2.043984631681856 1.183877820350529 -0.044043254263143504 0.8528400608048538
Ni 4.843677428750391 0.33727669858168297 2.3710930747680874 0.8396256189971089 0.8000499135870157 -0.3495774702210754
Ni 8.093832950940662 7.485306825102435 12.010036599511873 0.39526623050744186 0.9863687608243399 -0.5236627515066853
Ni 0.7225506086573763 5.983560132967525 3.844764945136904 -0.07713438039015748 0.27982138457286004 -0.47345527741435883
Ni 2.0547378566743526 6.337141695625561 2.1665793818942136 -0.4722347747436964 0.1706322897400029 -1.4776325271750295
Ni 2.8423110747587694 8.927451625149585 13.521596851351964 -0.10436339130943961 0.4414563559102591 -0.10428651532491717
Ni 3.6154271895590853 4.42035450272249 0.9289129908465127 0.8309196065826786 0.38074669673502815 -0.9915132811397569
Ni 2.0231030776833885 4.3067032861538355 10.425606790277243 -0.3285419897070148 0.9370033230173346 -0.41524010252620747
Ni 1.0531679402028633 7.137082840218919 0.4186580264197244 -1.9263993007037727 -1.5107102835656046 -0.3860511396670771
Ni 4.4878116994848485 8.013125730808738 4.683464497263015 0.22788870025931074 0.8997336400325988 0.6361019778457239
Ni 9.39507438404097 5.08992173131581 5.7358236939231375 -1.1976435066760536 -0.08029580883727461 1.6612625147262807
Ni 4.095074321445276 7.480524931594849 11.780571636281522 -0.07612625084061728 1.2277683510858919 -0.08516496400411784
Ni 7.906726278957414 3.0413028412851446 2.3394146551955974 -3.0522727766253754 1.7415536955778654 0.4519019767236152
Ni 9.042356347783334 8.556590249253455 7.967647602244065 1.4628746521395646 -0.9909607510703966 -0.6897063934347412
Ni 1.5677832486901613 4.961961975144844 13.12717884666215 -1.26017582088232 -1.3385001078155205 1.8467760924534904
Ni 3.7760245295730916 6.579783328907592 0.40820564288285066 -0.883208388684066 1.9054113855981958 -0.023558246935914268
Ni 8.445306766363315 6.04665327157733 7.88370262237215 -0.9400559938007295 0.7164044715512178 -0.689631831443064
Ni 6.9617776957077915 3.5680910864490363 9.168992030140355 2.585106417543522 0.4351784933213473 -0.2642587542479127
Ni 9.53351716500818 9.224690411489108 10.46539771539843 0.4463756475887474 0.8644028259417887 -0.5341317693588091
P 1.7357344909527281 1.7601175052263627 0.4709923688989651 0.08033308983311326 -1.428501059755701 1.4295541836105639
Ni 0.4627916536642073 9.036441656202106 12.805669397333347 -0.20997685297589644 1.0721857565901598 0.7131173161595138
P 0.1280776785933862 5.344077049936496 11.451777923929997 0.7342453563873806 -0.318085056039749 -0.42744512923283157
Ni 5.9627983584374995 9.079441556849936 11.347557715585916 0.09378381602138042 -1.4791088546102398 -0.16762358482066617
P 1.1314888561960494 9.627762250643135 6.336671862981902 -0.9301058245665529 -1.7973700312165368 -0.09648630255420802
P 2.569046752567961 0.33627482225261773 11.373867415107751 -0.9599866712863854 -1.2602907491936295 -0.48902587815910625
P 4.928247304608831 8.304644815399381 7.066122326135371 -3.5040125167395133 0.08541024724570452 -0.20797576338546758
Ni 7.512930384685094 3.7763587978571174 11.47614515331244 1.1718681974841625 1.2220327341536954 1.6650950010984937
Ni 7.796194899706331 7.6372317601920034 0.8957359351339751 1.889324250228346 0.5317771530837035 -0.049052534552276816
Ni 2.152966306027277 1.6347204725662583 2.5903656409046953 0.9442769738606125 -2.1623077859437663 0.47498328402311096
Ni 0.9437415033350861 8.814552512219988 1.7479427115037467 -0.23522508601972394 0.9862859713025465 1.138030680109427
Ni 8.915213691862208 1.8028574194310616 11.614679858057755 -0.6908263659717974 0.5647078423734533 0.11814141893013848
Ni 5.002538430733488 2.8712438517871948 8.706895840211523 -1.4480571275107579 -0.470300533835461 0.10482233322372915
Ni 2.9048006734113057 7.721625216678319 6.560198921555746 -0.12966356063712509 0.6314719352728801 -0.07376263570444716
Ni 2.2947053436841816 4.434932313998044 6.32899390620244 0.2541394064257236 1.2686818014708021 0.5262487670663066
Ni 5.4851289805651255 1.1102071087797623 6.5271342171275615 -0.7738449730568737 -0.8367099880122106 -1.551386421128728
Ni 1.4284490856322178 6.416873966595743 7.875916028400379 0.6417985140098689 -0.2535920185626858 -0.24465486397405606
Ni 1.868503996321616 6.8355078514171765 12.050452420619584 -0.8555579739566491 2.185289077330288 -0.6790712823183983
Ni 5.7980598057936215 2.837584892631854 3.9714498392135176 0.8248556597767859 0.8676753260454734 0.31552655128395335
Ni 6.406799491924421 0.45146738701983385 4.337194124795023 0.9280800523857758 -0.10541780071588296 0.03901674758282958
Ni 2.5211163947307558 6.5608693151698185 10.018712221886183 1.2875665541904469 0.07809802985500744 -1.6823684434669606
Ni 8.194707690875454 0.47097472696175263 6.024404003183391 1.0429302021591522 -0.5697688018361284 -1.7226051794998205
Ni 0.26619640502969255 7.117825272967008 9.907982138710707 1.6179386551276653 -2.030364171023213 -0.11092227547387994
Ni 1.7478238605583152 2.1126219811914275 10.304846801534982 -0.645721760323675 -2.0915679962260434 -2.292344413649594
Ni 2.5951568196423933 1.7751317223171725 6.324115446301691 0.6612823337660934 -0.061691563472526016 1.3124553470123266
Ni 4.2374540399798954 1.3087346138005462 4.446103374345572 -2.046349490707876 -0.26664936596727623 0.21907907238748078
Ni 3.4922586121258172 5.1339244368157155 11.956166479972138 2.427901971173651 -0.30980636097072445 0.3168239299391382
Ni 4.599169464215884 1.5245047911389769 13.482920153844196 -0.6134382176996209 1.3099559776292407 -0.6267282499403077
Ni 0.2941644466495 1.4709104429335624 8.227839248960445 0.9285891308117105 0.35199867806805835 1.3908531674959401
Ni 3.846434429511009 0.8622422530746247 8.095446723934096 -0.8850734669172626 0.09047377781154096 -0.730546824489871
Ni 6.21002689539477 2.0526301094389705 11.22274843799189 -0.31119552800876726 -0.031058411967701347 -0.6064365895708073
Ni 4.187397364447084 1.3997298688963642 10.32914624873761 -1.0266114103944708 -0.8975816266866027 0.49323168871033773
P 6.743091956114251 4.166329177323369 0.8066190820897778 0.4095980737490817 0.015664446010134312 -1.2729349203202012
Ni 5.265078312145147 4.981405246998991 10.116599903294004 -0.5609789714586403 -0.7298143171992205 0.08369917809186875
P 3.285866517200323 8.334171847154963 2.0650221775462025 -0.7342353290850516 -1.596228002923451 -0.2240536427839367
Ni 0.6283714481562159 7.386316986880341 5.543730853369843 0.8046347047442206 1.1576029458144 2.988344867623163
P 7.838340559183873 2.682484408844043 4.9711617811396325 -0.4144505167453766 -0.4910197686606834 0.3566732007255922
P 7.923467548849023 1.3895068305432525 9.615474177113153 -0.6891898588096389 0.007539760020470886 0.21164267071409357
P 2.990521917803611 3.685502821212977 8.169103668842116 -0.3046309874173721 -0.2509880052809355 1.0460137261804823
Ni 7.681800864728731 5.6576021298921475 10.240335808287103 0.02194590814347188 -0.03409668457339289 -1.2590969859958443
Ni 6.8653598662266715 8.200093124340308 7.215393542458982 1.8989278347563812 -0.6718020023504946 -0.07832094449909092
Ni 4.536076325606079 3.3089124583378555 6.505295355904565 -0.38640055258669587 0.6819738006771738 -1.6242815666265573
Ni 0.02051664445507341 3.0537079087145336 13.558045093632893 -0.06663528063104653 1.4147927090306731 -0.3187967373947929
Ni 2.2412502739304445 2.7211573922597663 12.362449151698831 0.17777430010142287 0.8687611029104845 0.6756265183029074
Ni 0.22963952555645323 3.6911296706607386 3.836529874550733 -0.8987116265259876 0.6921864795441176 0.5167364567004972
Ni 0.4593672607989688 2.9155529698807907 6.564221283240186 -1.087911909076165 0.03938904332058378 -1.604426222463527
Ni 4.28083463506231 6.367708673153666 8.40755116368264 -0.3171430038414538 -0.7461207676687279 -1.1441121104168166
Ni 7.031565485228217 2.197108289978861 13.527400120171851 -0.050782886979822216 0.5206298782176324 0.5489618923931062
Ni 5.591259160743207 8.70130056054614 0.11265212580862267 -2.186439388884647 -1.4577833536595861 1.2786980480562236
Ni 8.215887300760512 5.500886016064881 13.283720398163316 -0.29084138983244745 -0.5476244045286053 -0.22096909032134202
Ni 6.233249255904427 4.918989930187349 2.6644441352597923 -1.2518493032944957 0.665564506081215 0.8171737177514958
Ni 7.178457825597181 6.397532832272825 5.735197869413601 1.2315216474807371 0.8834647276692462 -1.1381155265137495
Ni 7.509142010799472 7.900765161225626 9.540063252237012 -1.8609752667720079 0.6309404882494425 0.7068330258126989
Ni 0.39280701726541145 4.223721184644517 8.70560426470297 0.31576566387795296 -0.7924119374257838 -0.30987372387355017
Ni 5.98226020075187 0.37452904179029733 8.945656247306815 1.1154054865107437 1.2492907985387 0.1774130601072622
Ni 9.172061727215322 5.28736286441351 1.7949640453130051 -1.1470030588113667 -0.24900928428800986 -0.03787697755143154
Ni 2.0638373821839346 8.911518170277706 8.825331735856798 -1.029377403175382 -0.7219647392478148 0.1609178906657164
Ni 4.958312879710899 5.946010662395332 6.113010168571437 -1.0640248180459224 -0.38625425681681863 -0.23738995488152667
Ni 6.0919466240627775 7.721114529022168 2.997314063630406 0.9199458533144156 -1.6447089812429738 -0.3246310846883828
Ni 1.7814921049437682 3.84444739026708 2.097080363030266 -0.1840418782776895 0.46288264410483504 -0.343426363018015
Ni 4.189941517497722 8.297820171267194 9.496780152070771 0.42260939840708506 0.2876449943823369 1.2988639814811371
Ni 2.154108389331031 8.709787260868344 3.861847911496627 -0.1380661828785235 -0.2830380917379448 1.0081840569272187
Ni 6.036764501508243 6.362221102157581 0.5772831835579811 -0.5952800587333554 -1.9495058048142488 0.002907660565098218
Ni 6.068742834013345 6.436995060248052 11.669596423031093 -0.47133874529198827 0.24010683959205747 1.0389077112633205
P 7.321738211452646 9.450878617012998 13.087075009286197 2.9820340949137867 -0.4473693789605844 -0.870289880850185
Ni 7.294708906597144 1.8990245476991625 7.365561712011394 0.7361482298370483 2.073770048812674 2.00400856384782
P 7.757326926458259 6.009048089624466 3.675204572495959 0.7375744207606135 1.0058803484947063 -0.13225806083717867
Ni 7.4687605450431755 0.1993613186848254 2.191666216610324 0.12857187023484307 1.2421408177574802 -0.22096883321102592
P 3.621564726662997 4.357762766538723 4.553762831923071 2.9833350731133974 1.553793487908324 0.30958473187822166
P 6.351125252173959 5.693173846450524 8.173629289998615 -0.21617886802155029 -0.7967000232781762 0.0737487517473762
P 4.155112619348292 3.0972370674787366 11.611309319527166 2.1159063158610913 0.7356052128493847 0.05463105708131881
Ni 0.2630013573482159 1.410315031223837 4.1590309864554795 -0.043214073493628796 -1.5375371739504617 0.6584374081181305
