# total energy = -381168.57017778757 ev
CRYSTAL
PRIMVEC
9.27445651445832 0.00000000000000 0.00000000000000
0.00000000000000 9.27445651445832 0.00000000000000
0.00000000000000 0.00000000000000 13.57410458533873
PRIMCOORD
 96 1
Ni 5.728618525015026 1.7517500868355356 5.7041914612402955 0.6355458482319377 0.365102562439868 1.6996678539773566
Ni 7.203693022767192 0.8080351757767071 0.9589101807408542 -0.4401543492693839 0.221826810335947 0.9290059066341548
Ni 3.5607421197632725 9.56270670394477 9.281131419443302 0.039770080809086346 -0.8343846823131437 1.4881668510474497
Ni 3.8832242499596332 2.699812863145178 3.8901754551761116 0.4392552344938822 0.13531098873088954 -1.6975901455127214
Ni 7.448835459434249 1.9661755232664653 9.75303524725568 -2.903143136843839 0.3133719668347958 1.5324456183601673
Ni 3.7169703410729182 7.316331298089582 1.2747749861580855 -0.2872924961389246 0.7493773269328127 -1.161596640354825
Ni 5.844827466125733 3.7494216646919423 7.729882099909914 0.821152757003902 -0.36319480389419384 -0.2532354065542155
Ni 8.451867939970798 2.08546358396606 4.8833111630822374 0.25275203915989375 -0.9047478054177386 1.472083315222026
Ni 0.1356917920756922 1.3084496106017303 2.2726851843183042 -0.26176092752672336 -0.22593003387104316 -0.7663795179177639
Ni 6.1004778621126965 2.2132934191878375 12.810927459892598 0.42401836293946976 -0.5140961908641727 -1.366925195925433
Ni 0.3078794982906297 2.0048685561726 9.797639818794215 2.5066597460998445 -0.41283869217356645 0.6182865469308577
Ni 4.854454618838673 5.213144227574235 1.5714064234926846 1.373447827535299 -0.8891584356199138 -0.010152515052969612
Ni 6.4809902672116655 1.7338132877846093 3.3558174366662463 0.2171638576426389 -0.6710625530813088 0.09476366343614646
Ni 7.516427699084276 3.2848548594903115 0.9614513818473452 -1.7094123349586303 0.7880667730832106 -1.7529567952084841
Ni 8.932767063232761 8.972322620602048 3.8545031127823277 0.011345764030122395 0.6630689933528711 -0.038234618001166405
Ni 7.354096885336413 9.294767652972036 11.822665478926114 0.508216335044628 0.5232331201684344 0.34798467181265874
Ni 0.7497127554914172 7.107405614418321 0.5652994605955433 1.786673470734639 0.789653143733724 1.1804518253881153
Ni 0.5041409114841038 7.283175115769488 11.82563794226418 0.10590785297842406 -0.18995798665180832 -1.1438534574387913
Ni 2.9762658652703142 7.406692328675505 11.499682528073729 -0.5057028245941549 -2.292616693474374 0.6064293904819557
Ni 3.5424714402749973 4.896875983295208 7.914938114647685 -0.28721639148535055 -2.2870456271445 2.606994732976181
Ni 4.879143222289327 8.938925302410535 2.52371133624798 -0.6263500406652825 1.0773395328769577 -0.15548694945813224
Ni 4.054671854538447 -0.046163607691823226 11.701258204895012 1.8150877602112738 2.039010790954617 -0.3142872795602135
Ni 4.47867218660215 6.364085741856481 9.853714110801352 -0.4214860834359193 -0.26025477529484214 0.5409073975197458
Ni 6.366070475567391 7.243480441551305 1.525159345691524 0.5148022157922618 -1.464277446024362 -0.44230096329874147
P 6.106561905637726 3.8577936899815364 3.079706661989393 0.3846084936832796 -0.15941070999257062 -0.4518299858350993
Ni 7.015876002301675 3.9748744300119885 11.043972828918445 -0.08572752137580719 -0.07323453111511903 0.549625494119034
P 5.348708959594603 1.5890482948239524 10.612017795434896 1.4571693742246712 -0.6104505958262068 0.27337357206498725
Ni 7.443901448526755 6.360338861392896 11.240417876352462 0.042186403560062834 0.19019735635612406 -0.14217454861994225
P 0.6700303342267124 0.21669025873094852 11.351956201122917 -0.3035876337545223 0.4068703904052735 0.4173563775382619
P 1.5261860280363728 3.714929960622451 2.7552036277014103 -0.6517504830162582 -0.2934068365667786 0.23479571179178918
P 3.779192670355579 7.336317752047568 3.500775338324038 -0.7649795522464439 -0.4534541517020836 1.1627158415609329
Ni 3.6762276532597236 2.4195851571866767 8.227156203732536 -0.36009328215073466 0.7856617631861437 -1.1658734133533082
Ni 6.67332394803799 5.840746705224798 8.789762362133462 -0.936552094412529 -1.982588960521463 1.6218912120175097
Ni 2.6239292593009798 7.192610047138518 7.948887263006484 0.08450007672660932 0.12165457428971953 -1.0689451381656752
Ni 1.512830810542405 2.753335752143573 6.706558035793466 -2.170662585666365 1.2099827449676968 1.6485378680707607
Ni 7.72102221152659 5.655934608695425 6.702743451796752 0.6203979368469058 -0.7373569054331688 1.496190492682875
Ni 2.1294616060434097 4.866140434145895 4.824318199585271 0.32490722116790494 -0.5298897062530036 0.26381035385658436
Ni 1.4979916799935515 2.7235461975667503 12.037977553407337 0.2617280174062589 -1.1905485475024853 0.19825570788422628
Ni 0.0867449199602997 5.425408715618988 2.1438258844146993 -0.20822053240642205 -1.1466323057355092 0.1336765384512601
Ni 5.0327374979265525 3.979196326784342 9.830679142961236 -0.24270031135084655 0.28346618041429894 0.5788931327348998
Ni 2.873625454155215 4.117497023499654 0.6657742860961694 -0.6173529793729949 0.8689986728425872 -1.6148358478326252
Ni 4.741139308184992 4.405533821909489 12.736365466112908 1.2704041834785476 -0.06640593822905981 -0.040794665418858775
Ni 7.345508738531265 6.09470915011183 3.833299850119335 -0.2694647239288843 -0.8592498209859394 -1.5163278868626981
Ni 0.525256994255122 2.953793856945395 0.5835321148117874 0.5241774863595747 0.38384487604437767 0.5266724848672866
Ni 2.731466583497201 4.574468048751591 11.447327293160395 1.001906708558939 0.2615459833024399 2.426428729062234
Ni 5.285095461822988 6.85683762064434 12.431300765398264 0.010385714109698243 -1.0294594213662271 -0.5061165150928058
Ni 7.999450672906042 7.669011058952859 -0.223351173456065 -1.4879393084176762 -0.7452399077256713 0.512453255944111
Ni 3.75299233048026 0.23414014881074063 7.043697517189456 0.2334335413369399 0.4161271331168511 -0.7967679004016343
Ni 8.980159536423162 4.899992200710467 4.853787785409634 1.228480032440936 -0.6413164321671277 0.42471101813112017
Ni 2.672889115655602 5.566797806379781 2.5585424854287764 -0.07044128464069804 0.36945646853318953 0.17369395938446217
Ni 5.088189473896298 2.3267200233206347 1.4263400106927542 0.7131160306079332 0.5134755265610382 0.58406799206762
Ni 6.7673854868045344 3.921008386119651 5.468070288501283 0.008843566433558962 0.11845252241265407 -1.0798435302457337
Ni 8.39982896402729 3.2617521881170655 2.956793216207582 0.5978249366423962 1.5168287377585168 1.0180419235579046
Ni 2.78093653496444 2.1857761064763075 1.7587829072700327 -1.6389638512290805 -0.9740827443681354 0.5856893297211268
Ni 2.177494016738729 9.179133728170099 2.6813195966986694 0.7068188847453116 -1.3599042845229095 -0.6822026288585282
Ni 2.828699986418562 8.021876308947997 5.509851715452898 -0.23282778943214097 -1.385112665467737 -1.4221766601995702
P 4.720670582484168 7.841228443428895 8.341654007601829 0.8762790085540845 0.5395295433356128 -0.45622631513058204
Ni 5.622769151918737 8.737317164991179 13.546780467451386 -0.9036008362974889 1.9189461868598372 -0.034571310216966265
P 1.00779955122537 6.807562432765554 6.007206507047879 0.5742864872008239 -0.5532078121536538 -0.4264987061591623
Ni 0.08713908436550362 4.379472598883066 11.088957653177294 0.3888814100270206 0.4427161964592891 -0.9287279703824198
P 8.447972668201725 3.0777191459415056 6.891070567374885 -0.42784596421567606 0.8113416844507512 -1.4010871865191223
P 2.630458476742475 6.23471634684026 13.341050761522085 -0.13898380959678647 -1.1209935221214824 -0.8421363012341045
P 6.596438702881745 -0.2069196187101879 5.524212284041551 -0.4516587503645576 0.4546206612063589 -0.062082114042725345
Ni 1.103920019355567 9.4658813771135 5.796143061131923 -1.5291952297436697 -1.7805946115304108 2.323815230564366
Ni 4.7685731507871845 5.2151660591115165 4.093352830651011 -0.13613117063933974 1.5329567536686308 -0.6962303105961881
Ni 8.566537321287063 9.011915275797708 9.622913693809764 0.1543186401816439 -1.2527139652876362 1.1319927014454634
Ni 1.7202076599626295 8.096211078541158 9.71915380243001 -1.7823779286830788 0.7848212695627194 1.197890589689853
Ni 5.782772077061747 0.931229637593287 8.493751385944938 -0.14332768838777896 0.007070019472903954 -0.9452231398239656
Ni -0.06100923036029162 7.99189199078272 7.493556889125855 2.856995177532867 1.0024733796956864 2.2414196017752688
Ni 1.0180663746738576 5.146266121081872 7.414596948029748 -0.11347718068524974 -0.09598596587902179 -0.5549088540051604
Ni 3.8726235460737963 6.0931974136871645 6.30628454603172 0.9297235015264699 1.3402127196312532 -2.6398485462814083
Ni 5.9664155920604 8.39539577377582 10.263923325911215 -0.540505791205953 -0.49272800960104174 -0.43552482091717254
Ni 4.363177378649106 3.8373713365636766 5.8221375080708775 -0.8407677030213521 -0.9060251294682655 1.96465114509612
Ni 8.508089695837766 2.1428353724505635 12.172225312591493 -0.7168616136932945 0.8943847170158596 -0.078327115146678
Ni -0.06743179155096717 0.45000683579622774 0.04502470442219873 1.0146560378048075 -0.23706959542763043 -0.4848120971880747
Ni 1.4541142258519113 1.3974101982421057 4.198809894233414 0.5215855572626824 3.449884624546858 -2.1926102935820495
Ni 3.423294673054519 2.3965845048359546 10.602054246717001 -0.8582861715210895 -0.4350450530672766 0.9152016537612109
Ni 8.205250864705452 7.647318104981754 5.706498946040641 -0.680628342392873 0.17971059789218727 -2.957405497731829
Ni 7.0455635378559744 7.805401217610006 8.065787151133373 -1.2059391710259424 1.8805927838926193 -0.9085430107941126
Ni 4.3530682209627 0.3296243892186556 4.652416146633398 -0.44809880092744114 -0.6112044432730956 -0.29372282514530057
Ni 2.241005495487821 9.299312136702623 13.221680158158813 -0.6223159798052249 -0.44837956539265356 -0.27482547402016544
Ni 6.5974217952806065 8.339609917368724 3.4495599341259897 3.2420618417994875 -0.040807006714032944 2.93663226974022
Ni 9.008632118163774 5.158462031501711 13.234195109885453 -1.281762031693528 -0.2746274990767464 0.2191510632759968
Ni 8.291586781129999 1.1163848890166037 7.837809878728701 0.01565056205306337 -0.006801082082233448 -1.8996382305598445
Ni 3.746008664665706 2.102203978116485 12.993852204505291 -0.6381753154349848 0.02529991221736933 0.07127380784432241
Ni 1.074445796302907 6.939287539756406 3.7787725374719145 0.26219390129908393 0.44874311937965944 0.7298886220805818
Ni 1.459382117196754 0.5785619335235809 8.011517668379238 0.29039170388953855 0.29291447031139234 0.9751371537745787
Ni 2.0076694420636962 5.465576387123416 9.673382504252073 -0.9980809070549457 2.338766452557559 -1.3253175476869756
P 6.67830433122845 5.458305213154478 0.23249207787415863 0.33684819557986506 -0.3019220731266414 -1.3316954261888614
Ni 9.013464110048744 6.407286160666831 9.17062441424599 -0.25291864664474506 -0.3319841826193444 1.1480271292005069
P 8.670717292196606 7.490440671710596 2.333347550002016 -1.0641328043786964 0.004544167727256691 -0.3980489354589016
Ni 8.424304254976304 3.9974299084462452 8.798382042091028 -0.07778872614470474 0.5877174158947491 0.05603282252485189
P 2.95001915311203 1.972760387447519 5.623439695130414 2.921853825879465 -1.4013833776033027 0.03161145625769394
P 3.821539839159369 0.411454774630307 1.035620138667492 -1.2320664642406136 1.1800443055370518 -2.552155673649114
P 1.865770256190287 3.409494281644086 9.4544320604494 0.2071874631562174 -0.16421687313196234 -0.7361860250535193
Ni 5.994563567820256 6.8266585388906105 5.568830767264974 -0.9468917857756404 0.7737840379119512 0.5564466308059255
