# total energy = -340863.5802061886 ev
CRYSTAL
PRIMVEC
9.27192084862378 0.00000000000000 0.00000000000000

0.00000000000000 9.27192084862378 0.00000000000000

0.00000000000000 0.00000000000000 13.57039338208472

PRIMCOORD
 96 1
Ni 0.5121299080937346 2.9181608977043183 9.434856239644892 0.537160528882804 -1.3520359375184263 -0.8505787755745029
Ni 6.1489153324456725 0.8470789733134246 5.871148984226887 -0.32683066344286293 0.23616431000454166 0.19767283879756278
Ni 6.740074457272372 -0.07337612663592857 13.242301894034307 -0.4451528309252398 -0.30166933368588694 -0.15542447165131296
Ni 1.1292457751324285 1.943765471449375 3.719889052118901 -0.5509879216841995 -0.4719175006135937 -0.3327053770560851
Ni 1.0362576816714202 6.334233212992603 11.240302269768046 -1.1400433396640817 -1.7382007199452325 -1.2498122182598088
Ni 6.884586614484784 4.6647033423305695 4.3924510053971835 -2.0847324613614484 0.9408818321361344 0.8990229871188194
Ni 5.824768982121927 0.33140533709915987 8.59197281048254 0.3575754008248874 -3.3585541551619773 0.6708131560746641
Ni 6.214412180806283 1.1300802480022551 10.87334560683804 -0.11556774466569128 -1.1448564447820089 1.6891744106452005
Ni 3.5502555527563997 1.315713373855565 10.627762095632233 0.36827556085121094 0.12291647172127863 -2.353105237777734
Ni 3.7168997848607668 3.773152528207854 4.282883790396876 1.989473346346122 -0.4514553761044999 0.8681998310903758
Ni 0.2731034992606096 0.889576822189537 10.891692883669295 0.024398226338706367 0.2075733857407264 -0.2563559544610682
Ni 7.925025932426112 3.0462524832226983 11.132947335064856 0.6559413811691541 0.4544064883130239 -0.0747836207697938
Ni 4.1482666270364525 5.427439361114389 1.9895010750604147 1.3619511397496091 1.3871656913420238 1.5855964913515337
Ni 5.336073853789156 5.540834952203046 6.483540807630285 0.6747626276407154 0.24478239069085583 -1.0485480625665617
Ni -0.15094130707838654 8.873339445538587 3.158481666677752 0.5072341736370167 1.4089555335236057 -1.5152472522040097
Ni 8.028278042185988 5.333106839140882 6.416448261704151 1.1372130693041382 -0.8674130735230223 -0.5942066231635186
Ni 2.5460694450486474 5.3144146468567675 10.111272530389694 0.5467029211556004 -1.105373041975406 -0.14184107653992345
Ni 1.5250084415288467 4.1828045319264975 12.570648588992059 -0.37530392845290206 0.010117290939659997 -0.5300833103210484
Ni 1.3054400856359225 7.620600957592601 1.2345951933718011 0.6024061282551755 1.7170428549206944 0.07837390922421342
Ni 5.617995876899676 3.4109449430992402 10.528861298292465 -1.3202930978891907 0.7801287491830564 0.21914180730461613
Ni 4.692732358835967 2.4105139633057076 1.498781886422275 1.9578629185296927 0.47394610100784823 -0.025062856505898772
Ni 8.281531286257579 7.127603658019835 1.53144593612352 -0.12363612349612255 0.40039095332851693 -3.571672896200965
Ni 2.9150548042444084 0.9729211908515829 1.1709555107425935 -1.4549350855775136 -0.9935948462591341 1.6349405890023003
Ni 3.099630931129272 3.1585076280559243 9.125696094871152 -1.14283478636629 1.307259147523368 0.5424510878577818
P 6.214810873399644 6.560421720319486 1.9064367184057995 -0.025536196597891504 -0.2353454136476721 3.4789874554500857
P 9.279338312471545 4.69330721792407 10.147993972622452 -0.6464457829738931 2.570968949700876 1.23257142890149
P 4.709542351202585 8.433275541675153 7.198808300810059 0.1312098220783224 -0.5586043005788766 -1.5574367410878662
P 6.616961893210624 3.3314567662878707 2.175605214489138 -1.1755975826196077 -0.9112825212124629 -0.21271507784266594
P 2.997658346436464 3.6028366154762494 6.9353531623088 -0.5062489269056121 0.7956651542557587 0.2566184640938355
P 0.6000342073933439 6.384524111280818 2.9553329552867824 -0.3262061424849866 0.15182364167393206 -0.4180490327299123
P 4.659344172122128 5.753458639434857 4.308776556355517 0.0752783010180252 1.2974868986279526 0.15959454386860256
P 6.595821913841684 2.155081817851792 9.048562058744771 -0.9507751799904465 4.344594071891988 0.2994198755300779
Ni 3.042710609486323 3.9124353221026857 0.8447609931194618 -0.7059776197909389 -0.45487442908837794 -0.7275162651936632
Ni 8.46914860315692 6.49285723362586 12.614997113255031 -0.8073675302943515 0.8006127280690212 0.4336651420006144
Ni 0.9505665898610065 8.083186357020576 12.314412568006878 0.2907058926958477 3.453793472682961 2.76758172266504
Ni 0.2631463835394234 8.43918175520937 9.136307808199113 -2.9418215272506427 1.6912294934020162 1.8642439102209507
Ni 3.6952776656114823 6.8513838661864614 11.884814808315225 -0.7164209266114501 0.7509932652696808 0.9326237058924003
Ni 7.673432362173399 4.337293275893724 8.732493405800948 -0.3563003907672057 -0.14991485468699342 0.13141679588280591
Ni 0.6573532216296538 5.422274901242241 0.7833660425100878 -0.43286964268251255 -0.3400877855630853 0.2196118049624992
Ni 3.89340934067064 9.126601961530953 5.146612351847496 0.21606316837929238 -0.9252721506233356 -0.4796092128308965
Ni 3.853975861610946 5.610782322536065 8.2945768787892 -1.0926121427653117 0.8930989083249006 -0.4569331113896195
Ni 1.3327551642415791 8.863909902109548 4.933909853289089 2.451793690189584 1.6532895238231335 0.5422320298684403
Ni 7.190652719295621 5.034875507385639 0.6866608360100409 -0.2237487099490082 -0.596076843603038 -0.2689469037522013
Ni 0.7860141030836708 2.9311879463943886 6.969563768395457 -0.3762446950996165 -0.11298250043701832 -0.49385878077137535
Ni 8.439775158139025 4.163463305188072 2.8364159353761065 1.8580439520578258 0.9875833499577313 -1.8964973709380177
Ni 5.100075654281423 3.703390596290352 8.068562683572905 2.2629212232924707 0.36777805238950206 -0.7035065325426271
Ni 2.6289418729432024 7.112638777887612 3.8235806509235517 1.0503105537836233 -1.1282962264304826 -2.1254880460122556
Ni 0.928647769146895 3.006077250500936 1.2157833933096773 -1.0352703716210494 -1.9383533877418553 -0.19612863423889448
Ni 1.7931060307625746 1.3745158954160113 12.81685610046608 -2.0922583374248487 0.5173848889177735 -1.1579521016237027
Ni 6.868972699898252 5.280674127153446 11.434644510806114 -0.6115584841784049 -1.155683103083868 0.5880357184661164
Ni 8.570574144523952 0.11983123129917417 5.620544727920957 -2.711884429102736 0.22356384763171175 -1.2682660540896222
Ni 1.166138747899539 5.414069251355612 7.849766678680608 0.19878021292912862 -0.7074732304998589 0.48109248224464246
Ni 5.367227507596014 8.097270404679094 3.259065317638337 -0.46895687532337293 -0.4077713049529881 0.008296178570521196
Ni 4.204880975293798 1.6541662979364493 7.885199323925523 -0.32726389432553965 -0.16636528693353284 -1.4522817071150664
Ni 4.863530411447916 1.5523976955007102 3.713429304914366 0.3702931055018719 0.03832666349434045 0.5851902785975212
Ni 3.5062139290711074 9.012946756660574 12.398644259487172 0.9096089901647818 0.8427255980786713 1.9501526943696286
P 8.208885786978787 8.709031737469735 11.783877897173078 0.32300357638728894 -0.5695651704657546 -0.6680885580546493
P 8.609460580257872 3.6603688838904045 13.388712940621613 0.12963733538487995 0.7344831834297996 -0.8121425830854917
P 1.8564054338993083 7.349925774383187 8.852618556988716 2.7253441541520673 -3.8524743852989074 -1.9374200772943082
P 0.46570354638489414 0.4131549353877593 7.229844201223065 2.107991688999705 1.9835556953101066 0.34756558199736914
P 2.6218766693120044 9.15876625470238 3.1967097960365853 0.6041799323261466 0.5178579718994502 -0.057617136292836255
P 2.878375085655142 2.689561690975715 2.698974544947359 0.24314382664616835 -0.6209558662329048 -0.7094923178124168
P 7.335980805536307 6.906078926843206 7.510126948740416 -0.30332743811460017 0.48792030379975326 0.5481933896581977
P 7.101512472956591 0.08186457010622003 3.8221824452705535 -0.7227697516476134 -0.3060900884614019 1.8027315526387664
Ni 6.241792162857371 2.903196017572095 13.27050151388198 1.2854194259404572 -0.28096938213437417 -0.2223510582705332
Ni 0.612344536607441 6.74038970257875 5.144074627131146 -2.0473105690695648 -2.34414982835666 -2.8681838471598344
Ni 7.106927274689687 0.7531701781193744 1.8359923731191952 -0.2180884263394373 1.1864669212339436 -0.3334833928726902
Ni 6.231296348539108 7.772688274078884 5.6420537297367765 0.08537579446334329 -1.048438019351259 0.09728488719610343
Ni 1.9226440359219867 4.767751469833375 5.213474026946312 -0.6730986096747311 -0.5287735903706894 3.1210598134921024
Ni 0.7347311092724397 7.645551696400416 6.993258161938144 -0.19857375334527735 -0.16790023552082053 1.8833024695142986
Ni 8.377912902722548 1.5709137212900843 12.949737560257264 0.6095008303184277 -0.5673491366510423 0.7077696786943554
Ni 3.6807114780726207 7.644652320085158 1.0329605866435276 0.2749041497769007 0.8557307520890876 0.30270240293609163
Ni 2.75428896991193 6.74490512799659 6.021075015980319 2.0580246130529587 0.5166878628507489 2.075345877940226
Ni 6.3964107137154596 7.565766818124219 11.305317905440388 -0.7790812817551486 1.1218864662493968 -0.5952862293809426
Ni 8.124242422216044 1.0809297959694697 8.357855883700227 1.6833919996354687 -0.9575202120237638 0.3616932796480029
Ni 2.8047931223779896 9.385223647731761 7.205715881788068 -1.2088442604878793 -2.9110266533569735 -1.271832688394958
Ni 1.6671655308641922 4.480952416394757 3.047190801605214 -0.22045692657161386 0.3043090853015792 -1.3928259749515948
Ni 7.418677066936121 2.4089284648530374 4.133731964028229 -0.010734869919000868 -1.756035691244124 0.21501261562759097
Ni 7.847345780166034 7.012437130062992 3.5978371957939106 -2.0846956945862423 -1.0305698808215864 3.3677389069850387
Ni 4.506839619200933 4.486450665414837 12.67393315047465 0.19843594221583244 0.7892587365087826 0.038587630465210965
Ni 7.40797727036079 2.7823736179419827 6.939030406088502 -0.24960475178016364 0.5636225797290745 -0.9492332894246234
Ni 1.8103796191679846 1.0371106983827985 8.891145242196531 -0.6467077783860281 0.6023873592020981 1.1287068316053401
Ni 6.072950485529127 6.264554728362085 9.254126105497852 -2.456956722447762 -0.4133274588845269 -1.2010746438447895
Ni 8.1060601855746 6.557936845551557 9.753544210207894 2.934802672730649 0.6204604146537249 0.3344984644007658
Ni 2.43064330331008 8.347640081389395 10.517977917685773 -0.29003097811601014 1.020649793494397 -1.0829216549504255
Ni 2.604519633619611 1.8549219265751724 5.6348207043395355 0.4327259180157967 0.47521828285205253 -0.07727759083624111
Ni 5.759457572176832 7.021291814403929 13.65344389542163 -0.4762582940807927 0.24600469313373116 -3.045442898187736
Ni 3.999276132089305 2.076696999612749 12.595944243252736 1.2385487295308477 1.4576740817752316 1.8406843777334558
P 2.727456031186618 5.957107107355646 -0.09887854472990637 -0.8569882786452725 -0.5612239975899109 1.7230371248309164
P 0.06358961425701798 3.6653479053470357 4.6798453161496125 -0.3190078249643345 -0.3396591826660989 1.6864935213789278
P 4.656349341711528 5.557088629323112 10.779913388371869 2.18614834000679 -2.813430148457722 -2.634092874744554
P 5.5358002992217585 2.946634966406956 5.783280845418304 0.023819213906784785 0.42967581833556323 -0.8519980245195327
P 2.127312415128119 2.830958482807441 11.059979172943065 -0.5756980228363698 -0.3494298888996175 -0.23107506840709235
P 0.38470497367913853 0.6005450902280932 0.8598593889108574 0.1315486934749799 -0.41354343155007484 0.9106544007101606
P 4.584417780332477 8.786016495671625 10.359977897320729 1.5426287295407561 -1.1208060887010247 0.35994827193243817
P 4.850049038639829 0.43139094916970283 0.4804857696778332 0.5953759608812714 -0.45980734761362096 -0.1132781773005662
