# total energy = -381168.0295688161 ev
CRYSTAL
PRIMVEC
9.27469654844136 0.00000000000000 0.00000000000000
0.00000000000000 9.27469654844136 0.00000000000000
0.00000000000000 0.00000000000000 13.57445589933646
PRIMCOORD
 96 1
Ni 3.563338322420594 0.46697261199736273 0.1492864392803595 -0.14943020174109103 -0.3247987206144987 0.03324076433100082
Ni 7.322975592248872 3.97845517987739 6.438010966938518 -1.480170720215851 0.900159671826424 0.5426485485805688
Ni 1.8192409559633576 3.6645345338623723 6.988210993746066 -0.44071870641328614 0.31521159114669584 1.137970259185137
Ni 4.352494407375829 2.784644094903388 3.5633077159227704 0.34036649314576867 1.1135265243204757 -0.04058460629058172
Ni 5.778673733708305 7.721193953028286 8.003159560375765 0.3081701109188822 0.9307928233312486 0.05759553902628146
Ni 0.11796764477970917 4.654395046972687 2.0163087756951654 0.8252464674573012 -1.3519423493633556 -0.3292228178241234
Ni 4.409264823491228 3.8386576823921077 10.804601057766753 0.4120408788626194 0.5842412844206906 0.4920129858118881
Ni 7.061160190105168 7.951920573139835 5.935294602830857 0.46088952493420626 2.5905486716050157 -0.563133813018114
Ni 5.971207154414002 8.44005711464769 1.1427399697412874 0.11312545377278582 -0.250963065580271 -1.5469003603329163
Ni 6.8567644328185855 8.153014538539948 12.499236468801115 -0.5682101990997568 -0.19646030654670035 -0.41268751130768283
Ni 1.878951450809125 8.579863886829283 7.115023916396917 0.6963095005735556 1.646721126576996 0.5527912934415254
Ni 7.871379110381113 7.7418858004965845 9.928953792369736 -0.8298471994541062 1.6091912479523385 1.0212861415268155
Ni 3.5616967011736698 2.3044837922223973 12.481169360388634 0.08355828163863029 2.260300754950488 0.8432760712655026
Ni 7.245884316517586 1.940730202932091 1.963925290934542 0.5278824460149876 -0.7989559091918884 -1.0828221532580835
Ni 0.36685412026684255 2.5397828376149283 12.81867092177261 -0.49585935614117177 1.2983690441225897 -0.38657255938818585
Ni 4.570440495971773 4.785056968592316 2.076593374242541 -0.30539691904911914 -0.1859496368233636 0.46331304677403434
Ni 9.171756455960564 8.603876075576673 11.843508947374874 -0.2076482048427198 -1.6938862142985733 1.8273431805398592
Ni 3.7457159506665043 7.577593830055776 6.146676061378364 1.6188156584159796 0.1311977378934644 -0.4801028646378635
Ni 6.827048305840357 4.228640112847967 2.0765247414898442 -0.18985000031903435 0.7425137670437599 1.4269046618028587
Ni 1.0388494590213648 5.947779271534164 3.6341126024949286 0.30907668189355153 1.0287168867732477 1.412539394220122
Ni 0.8054174099960987 6.5168189889568415 11.092325324053304 -0.72847348690061 -0.9271613972262482 0.05835350023822854
Ni 3.710991487680708 0.29447439026119365 8.947670518407195 1.0977162967610967 -0.1543510360814761 -0.9534802376264353
Ni 8.516582633904047 0.45956491205431915 0.23752960985516042 -0.8986738313095168 -0.07364745028282155 -0.061344721656068545
Ni 6.8100199634146295 1.9082038429718386 7.533564991731478 -0.011991110923605155 -0.7017352995748173 0.4140723074703514
P 8.036969538305366 6.388902377445064 11.86129132261063 -0.60558632575537 -0.30680716913308453 0.7758951707176831
Ni 0.23773087076509414 7.468467753268684 6.005203553739439 -2.194865151054498 1.2435862919547551 -1.4766516513189987
P 7.019071618248987 2.904612291677231 3.8659095225606874 -0.28552254872269534 -0.2726348941267498 1.4914200678774248
Ni -0.0009033554206240653 4.963288807587517 8.876961161207033 0.9869192340111712 -1.178185655061758 0.19964667469448197
P 3.103081518021526 7.518393443507076 8.905562469688762 -0.45964125434940195 -0.5622074445491028 -0.632689095509433
P 4.837134388374699 4.540102964340753 4.928993763040889 0.05460740293223498 1.1197840751944135 -0.3533814173481979
P 8.178705447319503 6.281918755505654 2.495690931355721 1.0680138846006573 1.2174800817860065 -0.9291833127522836
Ni 9.125512820157363 2.40883340040968 6.8463443115139535 -0.7556050530100793 -1.1965808697394942 -0.394292810850579
Ni 1.3592438430609781 1.4445154009379562 8.500405708599606 1.409733806450527 -0.9548226105869427 -2.6241599319015583
Ni 6.449586715403414 2.890792994174871 12.170137782274278 1.0223582915450715 -0.11793521645660335 -1.2630773107998312
Ni 2.7889846527766124 1.8271429972197408 10.393159762457733 -1.2411074913969593 -0.7414578149754197 2.221435702454174
Ni 4.121953281190486 6.71870130354333 0.8822434294129097 1.9009479505102036 1.0318137805310166 -0.21331620176177457
Ni 0.035464583751358324 0.4597875047657665 10.075775017370814 0.7520697861633112 1.9355164325136924 -0.11622260464087082
Ni 7.769450197930822 8.627146288619237 3.461621800515808 -0.10014652501461463 -0.8403434709997398 0.03431265723894091
Ni 7.989455269107654 6.093753716762111 4.626011693854249 -0.18839295615753363 -0.20859925590207948 0.7936584082383751
Ni 2.372068504235617 5.352417965982829 8.567449705817936 -0.5234007560945503 0.2543047283589943 1.6397053573807954
Ni 2.236231302074836 8.390891949506743 4.354101712246406 -0.7610527063882119 -0.2467130320546654 -0.03839042685274033
Ni 4.047421821640846 0.7246125458621654 4.603911947486045 -1.6273926014517135 -0.22374253930142113 1.4572084549927224
Ni 9.003031180683427 6.948092367386194 0.34835295606703887 -0.25997915303595226 -0.4374526340675047 -0.2711202572544363
Ni 2.685339921508913 1.2391550752351013 2.7524516240103063 -0.8007130010923112 0.758337621449894 -0.18892028941591332
Ni 3.091349027188986 6.171995054835875 10.854256854342516 0.7517028897421958 0.3797308538760041 0.39254497492153684
Ni 4.020608674607743 7.985059063056568 12.361618524948755 0.788927321311293 -0.4311266918494769 -0.21828665839317243
Ni 7.233215081357705 5.687410722014868 9.90511689538261 -2.454396160809438 -1.8420216084876404 -0.4302936544252202
Ni 2.8209823550471778 8.44696676339887 1.8485016953527507 -0.02250640863263221 -1.6620855248482085 1.1307963671445171
Ni 6.44135078507986 0.7948553858379193 4.849284240541203 2.341367637625832 0.34334614459938284 0.9601483936752303
Ni 5.010534110592229 0.4345464187572615 6.773938612358636 -0.4781472835733894 -0.43271717626504835 0.7960675319005
Ni 4.599924755542244 5.871606190737598 9.061709401829857 1.3629875514339236 -0.8416701602309634 0.058658947293789294
Ni 5.2850187478958155 7.767966246521172 10.250899833102064 -0.052716099446793084 1.1169507195106763 1.089283078392079
Ni 5.9038728592011624 6.168925130357163 6.2646520533847525 -1.1922663015245403 -2.3774623264658605 -0.7704500884427118
Ni 1.5348973164819142 1.0322087764631838 12.075061942927672 1.2970410693397856 -2.278166579487315 0.12555159535128055
Ni 8.317046817484067 -0.0849951719269308 8.183360417397646 -0.8682108868339692 0.21984500401922782 -2.084177617299243
Ni 0.6200078835263491 7.4466165687615975 8.831323163072897 1.2870960423119318 -0.22573668691331444 -0.28899482354201195
P 0.6411152373893495 2.686629104296046 9.877480155317153 -1.2370713736543728 1.4480949227272286 1.6887766609861496
Ni 3.187175189467095 5.140454056507034 13.082096411195785 0.9598599159005341 -0.9995382083267625 -0.9232533204210938
P 8.797550283928539 0.27265659466082354 6.064143321321819 0.10517071770208337 0.7422211755040056 -0.9429628830348793
Ni 2.8191645145703568 3.2751735080593036 1.2827600599380176 -1.4188725355270015 1.2791929854147712 0.14419286460155165
P 6.414556187439378 0.5306907031188144 9.386328410038816 -0.5450597291252226 -0.8604271291234924 -0.9013017558506671
P 1.383970183424261 0.5338107109576021 0.6922076844235779 1.4526717434646337 -0.5552173863845148 -0.4051374668745668
P 9.171570962034357 5.13401741726768 6.575384986277917 1.151774769168397 -0.8271979347567173 -0.7906381333548125
Ni 4.15180852861337 4.617880567599001 7.084725338490401 0.019652227013288736 -0.4229153596832781 -1.1725909345828
Ni 5.317415262107723 5.950125769700671 11.96276021012393 0.5695047495414644 -0.20681156787403734 0.056752217189379686
Ni 1.8949039284628557 6.262794331713797 6.524616226144918 1.5275960035773497 -2.307489496821149 -0.5637089687952936
Ni 8.470172053567262 4.071786448848027 11.086556462948293 0.89477321070353 -0.5071549836596492 0.8584018711633474
Ni 8.88860925230315 3.755732622681638 4.691793404904744 1.134809344958652 0.43779330523637505 -0.48299741257683915
Ni 8.221239204598577 3.788648519886923 0.26684136007425996 -1.7898757797220208 -0.09101679479920453 -0.5878480279353424
Ni 1.7867609694846565 7.781813368112463 13.19019021428354 0.7404661404861118 0.2607052325686994 -0.30652434778534304
Ni 6.959630089596219 5.860022095046022 0.34136632733648326 -1.1766604766664832 0.6005253662926948 -0.269964032162806
Ni 5.4416961926658605 3.880709155463047 0.03203665599506824 -1.8546225850811027 2.411858287447227 1.434407655048123
Ni 0.33491670352229463 8.451075453864338 2.0033047239984816 0.605688655661189 -0.24035032306143123 1.1746647863926931
Ni 2.0442543631477563 6.073813119694948 1.3425855610180326 -0.8183088597972036 -0.3217748461865103 0.7086176285169473
Ni 8.82312989635237 1.5573420815528614 3.6741162226205524 0.5407315340635138 -0.8536872392964975 1.385223994234621
Ni 7.240523542050228 1.0811420741963724 11.255056363105089 2.941425063143173 -2.1533747451201948 0.6756928527644686
Ni 6.2229409616684 6.76526955371739 2.927847260873816 -2.2586781317454006 -0.4324932331797003 -0.12436503124234712
Ni 5.36388149062237 2.545894862483422 5.789641062095245 -0.6533810766411456 1.6611362735610617 -0.1354860808561731
Ni 0.9154023236615253 4.867128756242237 13.090023494132204 -0.579487314675473 0.46346422763991796 0.11006275568706206
Ni 7.982462148089681 6.459334421225549 7.6405040951286 -1.3232817482038695 0.9481336286025411 0.39748689230784445
Ni 0.5561460346120876 2.197351775142022 1.6154276496050624 -0.3660716112213566 0.7478752884659894 0.5017672369851746
Ni 5.0276737493736805 0.8807093946431845 11.346181181823502 -1.2387024814998926 -0.6635629022701539 -0.25689794300746727
Ni 5.5417423417651595 0.44067699301837554 2.8680922474857597 -0.9168368753717888 0.21721913636060652 -0.7158614545635542
Ni 3.446783213888945 6.395839850285175 3.4676763222671774 0.7548062112578677 0.4052601084953601 0.3850730920245239
Ni 4.724316982456104 2.1066266958345823 1.3009310449491742 1.224839093254239 -0.6542650219079958 -0.0516586047165562
Ni 1.8189070668961866 4.145761426619048 10.896962193503331 0.2755207003149771 -0.18769438742861225 0.03275842537794359
Ni 2.6822885464228214 4.193210772942588 4.939486226976741 1.9067648143022966 2.7517437271915193 1.311795859051457
Ni 3.578344781050674 2.881722341183389 8.819812337482173 1.2332859384700114 2.0813782001772347 -2.9087789949733773
P 1.6252143091517002 3.4655459245246996 3.46416028489594 -1.9962664580085554 -1.4086955949939997 -3.6013639955074948
Ni 2.2372236945800386 8.494703625308029 10.653585815094154 0.07425474484951729 0.07886473281770288 0.02977157483547776
P 5.0456017373415065 8.116778300055572 4.332015877922667 0.28684538129917697 -1.100484346424537 0.620698241696144
Ni 1.8031679072575928 2.0154935298894894 5.160776771062182 -0.27728550552488374 -1.6048843930468684 -0.08380973552780405
P 5.791519188098082 4.07759240873828 8.448347765679475 0.1080423828229236 0.018450750506019836 -0.3833756497174429
P 3.2118551563488267 1.8794801084988124 6.941406238816094 0.33090997571855907 -1.0192786241784833 -0.47214864278779334
P 6.435266584300297 1.1744084202928364 0.08367631011160491 -0.897544345690764 -0.29908203257468496 -0.9617944139190855
Ni 6.804816858784547 2.8093797099629816 9.771829307237534 -0.1304382340196205 0.4296141118596924 0.227101428471325
