# total energy = -340858.71410325746 ev
CRYSTAL
PRIMVEC
9.36415708497393 0.00000000000000 0.00000000000000

0.00000000000000 9.36415708497393 0.00000000000000

0.00000000000000 0.00000000000000 13.70539043736541

PRIMCOORD
 96 1
Ni 1.0718494903798284 3.963426225511425 5.386273345106425 -0.7954880052479462 -0.2947720923454214 -0.5100834701603538
Ni 3.2142000325469735 1.4899965522550271 8.08630344175601 0.9656605817427112 -0.6340276118151984 -0.39752905839968955
Ni 0.9266928851429848 8.133294653873673 4.351749384099879 0.5316370279614134 1.6506852534310668 0.09688430932357509
Ni 2.6315153699146396 5.899334564827748 1.510498437355344 -3.117742061972779 -1.348698131394445 0.9523697781710758
Ni 8.658839231148313 9.080067100641127 2.31294862526507 0.9464274445447121 0.8600440347524608 -0.2783939080977141
Ni 0.8652630795128623 1.6607332248749602 1.9785236809181463 0.1032146224169771 -0.03907845405870044 -0.401704787043934
Ni 4.7591548216037545 5.389418765406597 1.7924185540063338 2.3041977134437546 -0.5587583096582377 3.3983376057075017
Ni 5.58823854454697 2.2270493412593018 4.755277124234594 -1.609466355990596 1.2866057329390745 -0.6144077807017418
Ni 0.357490735604392 7.8173480003226095 6.5790262743716665 -0.326900854559166 -0.7560076877651367 0.5091504168231231
Ni 2.6663874901821014 8.890452287726026 6.8124419311511755 1.5777196597066183 1.6575449566653775 -1.5680050035220157
Ni 0.38332644447064523 0.6301431461789296 10.626899403154843 -0.40878534803979916 -0.32166788829500087 -0.614461773868129
Ni 9.317682581786894 5.536810594893668 6.77730199599659 -2.0487922958214133 0.2026890610652316 0.20048742542822248
Ni 6.6504148608569045 0.9880496503493462 13.117373714786867 0.12895727859871983 -1.1447335460508994 -0.667997798113056
Ni 5.1023418075549385 2.5805275356352815 0.15414057735945452 -1.9185823757625151 -2.9955246732010536 2.1588442528751983
Ni 1.7411900608948399 7.660657563041343 8.470780741108737 -1.3893159049158073 0.15915899899308075 1.4236213630658965
Ni 2.6095002370605034 0.5667974340486132 10.341375022515951 1.6952303870312933 0.5138768757645149 -0.2976270452957132
Ni 1.7718389464038093 8.109818712544316 11.461557608696129 -0.6977606311977854 -0.21906724531293884 -0.819679257782169
Ni 8.795303089541902 4.96112095745999 1.573872241956338 -1.6859638741277028 -0.6837350063426547 1.013963639723473
Ni 7.771838197825332 1.7682992950984655 10.81384074927715 -0.19496675272030942 0.7256254759288535 0.9501558012388926
Ni 7.247595238358741 6.1257973351146155 12.988927447524592 0.8310849285159494 2.18592516825239 0.7774033798320934
Ni 4.971252975217614 7.366819683913339 5.995408941712846 -0.44996799292569606 3.00612301754219 0.10679411223811931
Ni 2.0024781306647075 5.404335867336261 11.56859647688659 -0.6848773474772141 0.417932561756706 -1.8145599127322622
Ni 8.527441381633537 7.932171292137759 9.927869773212336 -0.1493715805890137 1.9612398054217255 -0.3346907829172301
Ni 8.611400412331191 3.3595317475177056 13.22191890799687 -0.7261345543547881 -0.6372129515217154 -0.003465847061413386
P 2.255731753820858 7.729718220123118 2.588811068822338 -0.7039896428266327 0.7499452836211407 -0.37191084361095306
P 4.660428515486717 1.0669333080112953 9.572858666353063 1.4379596340654397 0.43597270708786845 0.8883552229923282
P 1.061258628934474 3.7175234655158436 1.043353424540432 0.5549613045096506 0.10965754982884339 0.3575712870598293
P 0.8325278598482562 4.249332663751528 8.08397363952117 1.037921436090651 -1.162745666357604 0.9372804879381212
P 4.926239473035635 0.49024919711563963 6.267776681917852 -2.2966425268043156 1.1097997102881918 2.9660541745457625
P 6.050106854952991 6.8502834255692315 3.0083056328743587 -1.1738379196160234 -0.047871369759982074 0.7801171792188306
P 9.18230496559283 3.838405366840404 11.14896519614394 1.6302627239106569 -0.8520743862834228 -0.19630809723955223
P 3.0112506602170326 7.078441108253632 9.93329630213151 1.9565516559174372 -0.5705607016098044 2.2769478765888658
Ni 8.610407811700592 8.764448192581298 12.342416691513357 -0.30104455561769444 0.0469560570345643 0.695462579192228
Ni 6.995025198655739 1.739523240967985 1.6882572912289213 1.710841096985357 1.6832302772466237 -1.6166322776114155
Ni 7.589059219441714 7.0977593639227425 1.5718851678637615 -0.3442786837159813 -0.4993285456366949 -0.6809001079970208
Ni 6.116227166770538 8.938349950230878 2.1425912009992807 0.07108406043101952 -0.26882143391793056 0.9772236039899621
Ni 1.455836107911391 1.4698448866224874 6.736816063672107 -1.8599704796565775 0.40638702301095175 -0.8566890022372987
Ni 5.830423734256251 4.475795434038396 -0.005220517467537583 2.2746588234443728 2.338801676670869 -0.6085474652662228
Ni 5.5121547697958615 4.545839327593878 4.793652375595519 1.0807272184022678 0.06678157640092369 -0.24534777627602264
Ni 6.319747752670918 3.1660776302767033 9.496328221318187 0.7307558551768834 -0.7761193709133473 0.3644155636751724
Ni 5.6271840730626455 9.282417166929951 4.515432973748423 1.3474670872008212 -2.067575232855871 -1.8990188518082909
Ni 7.864983466434472 7.5521269846579155 4.078285101122766 -0.7061424275035775 0.8622004189738313 0.544674577871662
Ni 3.1598036451587657 3.157359600209838 1.7933231315621438 -0.5473865774861862 -1.6208830824679696 -2.1281740774848505
Ni 4.658761695559861 1.8308612272968845 11.814361583775854 -1.559585926220385 -0.27191909900664785 -2.529245344709844
Ni 1.877447907836794 9.03575591022608 0.8281061049636441 0.5732783576512837 0.9498259287032997 -0.3012229901770877
Ni 5.243749940787736 2.9335187938528544 6.914808085052306 -0.26006065700616504 1.048478899891523 0.8151037225963447
Ni 4.064643397361854 7.7205694388392 1.329581989777635 0.8703009365937786 0.878365458769468 -0.5900944007673579
Ni 6.732632158372564 6.161933616562558 6.002275677962075 2.6110377926973034 -1.424292163880676 0.5959783703519608
Ni 9.018123202797609 3.2373107717575254 3.500726377973356 0.13680402833664826 0.6711299159841344 -0.6527825238251984
Ni 4.57358532446619 8.420624443961428 8.68624343629405 -0.26447524113409293 -0.5240389038991813 -0.2069092697941662
Ni 2.176642084707275 6.895914962106111 13.279796888917689 2.559805733995204 1.1955837959335474 -0.4649737223059089
Ni 1.6954929752597128 4.556242905901383 3.139233401713134 -0.19713702089875082 -0.6718002025782818 0.680562265041628
Ni 2.972670333820163 6.740994350477515 6.804684663581474 -1.3704296095342656 -2.4239033915372192 0.34687935456362196
Ni 7.264722281315021 4.968528005561913 11.031989084659218 -0.35218354038535477 -0.5025737920468699 -0.9462160998648543
Ni 6.995287395048727 1.3655000863699829 6.340634504619515 -0.5874520780485044 0.276590279230072 1.574323746651192
Ni 3.4025225918109165 5.570399825666864 4.749918017245048 -1.1145811908372354 0.703474393753111 0.47862422320980796
P 6.603079047765599 6.97771087256161 10.262116798578305 -0.7758627748178508 0.2418564752933125 -0.43037053040974266
P 6.078171233159646 8.22147691932982 13.899732167668166 0.38736857292691995 -0.43650981053826116 -2.1426892403818907
P 0.49055540504602263 1.4433630509306554 4.185256547383601 1.0132779265103582 -0.837618615869409 0.5356700603802065
P 1.3131638134981127 6.161006565030206 5.335837059668032 1.2454331153555067 0.38653630683361173 -1.6724270159835326
P 3.9104906465984386 3.9723034462454625 3.476933928141034 0.046444407505468396 -0.3346640434443527 1.0532421256081217
P 4.694279942652902 5.405422109535785 6.829916384328165 0.3496471471167462 -1.8221256408946618 0.409018804206844
P 3.9881382355505854 5.525966901212216 13.590237418215997 -0.7259556055747626 0.6811587609750464 -2.9638196287882894
P 5.304392220823205 1.4713525158821708 2.790513135454205 0.34620906796947476 0.4096968041104751 0.014808011547109982
Ni 7.1432785305769135 7.413041162334443 8.121046336658356 -0.48586059305724705 -0.7110210957521174 -0.7645591768795735
Ni 0.2545327669876584 7.4776257524216305 0.6093650184502856 -0.8037299335417643 0.7497552790975216 0.3845717269080732
Ni 3.5066520164548947 8.129099511585858 4.228469322195163 0.046318680560881516 -0.2683390949648733 0.7303581055178325
Ni 7.805577255108808 3.729593863750204 5.734143345919519 -0.4865285656585492 -1.496294365250591 1.5245268777337229
Ni 2.06279266520894 3.0347453298601748 11.089332372221477 0.10699337273311897 -0.14747153535282345 0.9399104693618006
Ni 8.871068482958666 0.3768960779326039 5.83109514430544 1.4744973239801573 0.831825920447032 -1.1776709202088684
Ni 4.816987854571489 6.917171598251958 11.475961554828087 -0.9792234080288104 -0.6633461582736575 0.3478905694369557
Ni 4.082950324086582 4.4663844563614905 11.39786823200786 1.2860783996806948 -0.3585853301466405 0.4054344292896953
Ni 7.867099765892165 5.189718755518334 4.096842987252212 0.37718417619475036 1.3248274954244346 -1.2250393821905032
Ni 1.2265266339292198 2.3600765540733626 9.173401525219495 -0.9487576353397853 0.009530050977622297 -1.518443133433488
Ni 9.1658615060897 5.596479002612321 9.608437780465906 0.8659953672398892 -0.6189756025780824 -0.33175766843083504
Ni 5.816443048015833 9.045925384611275 10.95699342493901 1.0882253265515258 0.5828258921304026 -0.7756856258100383
Ni 2.8313277496856117 5.13215728310048 8.967820824802777 -1.2502199952211888 0.7031810308824084 0.2156731320297253
Ni 0.3541636506605066 6.551407630033093 2.8640021023304167 0.4430129017641015 0.18044953294074084 -0.08831019450131888
Ni 4.274559702419773 9.062808959488352 12.74493029345662 -0.5238607264501043 -1.245217656910591 0.8330433377939008
Ni 7.560620274959362 1.4258614416986772 3.893509684489681 0.7575567774198114 -0.7928199714974796 0.5907032379959504
Ni 2.673448064479004 2.1643563108643886 4.680212169753383 -0.12456120641355323 0.4438593089247968 -0.13785715219151096
Ni 3.453472969462705 0.7765994963924446 2.8971137611020996 -1.904807947686242 -0.9879379050836727 -0.8812435516482113
Ni 4.182538132637725 3.3010619518812847 9.142907148299251 -1.8035175388751712 -0.634520749401533 0.5814174418186503
Ni 7.388844180924368 4.8471029831375905 8.042541927350552 -0.6021179075907953 0.15337195999765846 -0.05806579379448064
Ni 6.9136881318879695 0.37622279505203715 8.649225051266841 -0.06913002202844223 1.0931502746569688 0.6946873915891004
Ni 5.245735142048935 5.450903819562385 9.186722974814685 0.41241291749005743 0.6932357467442384 -0.26427083843277066
Ni 0.45957128272030356 5.46479086423388 13.375994872673767 -0.531464249828975 -1.19712440094779 -1.827130550308421
Ni 2.608179890938669 3.557433839282619 6.977222063571824 1.44242718291849 0.3643826535547079 0.8502699860848324
P 0.12576811839103816 -0.27361879156583796 8.319007422611692 -0.40162354018403734 1.750311130055521 0.32564049978950366
P 8.734155145034242 1.1601628540324687 0.001842866076432998 0.4632461980918409 -0.6399588896979688 0.8606572428564274
P 3.1050139631810754 1.2906242878579999 13.587414124912923 0.3407660425770325 0.8832767800281563 0.3390110075591387
P 7.322564678439648 8.317674903085898 6.112083527345631 -0.8550093005420306 -0.4739931521956999 -0.12649956108684665
P 7.085127116274836 3.8798604894032542 2.5866320295134657 -0.517092040267703 -0.17491060540038264 -0.6729908804522733
P 6.207892898590673 3.2829704007650826 11.943836035464921 0.3915090774578548 -0.6797973618511454 -0.5851609680214827
P 7.875976986626202 2.7389877985692204 8.007976951429162 -0.1247812928441593 -0.8077902196540669 -0.6969473912678706
P 9.232496846536332 6.7781794174974115 11.488104993486209 1.204267182640158 -0.9970480949150571 2.4543966750300696
