# total energy = -340851.0571669189 ev
CRYSTAL
PRIMVEC
9.43951449519652 0.00000000000000 0.00000000000000
0.00000000000000 9.43951449519652 0.00000000000000
0.00000000000000 0.00000000000000 13.81568362446377
PRIMCOORD
 96 1
Ni 6.839041437265843 5.064101231205201 9.563575078347077 -0.2889385163827798 -0.15446442173088884 -1.607077286933129
Ni 0.7201811414126907 3.8068711909207567 10.164722999567324 -0.428739679674539 0.4789260707209429 0.37476785344377395
Ni 9.65020433360057 2.8307782072014054 12.799208393289236 -0.7665859775016153 -0.46534936047777276 -0.5070354273626494
Ni 0.35650402722040014 5.127393175074823 6.110207093027607 0.2364741279354766 2.2712917067443525 2.015670316456464
Ni 6.729864014030041 6.515303852336306 11.320060089857458 -0.7219228302662857 -1.1812702075243526 0.9214571477526196
Ni 7.852326107614024 5.550821471295498 0.7740675531612551 0.6682070859103847 0.3883947001985892 0.004749084649211176
Ni 4.326497578114633 8.154192337741787 4.924614471269776 -0.5064924103749857 0.0012153604643398424 -0.377569327448311
Ni 2.3925676314729256 1.1461835932028286 9.25483593780448 0.048090941969955885 1.0361550882188477 3.3273468763212377
Ni 0.998011536092992 -0.2033243077357933 3.470168433000178 -2.4210751780598048 -0.2370760231855336 -1.8127740244764325
Ni 4.329546541257048 1.1827900299405456 6.118012627462475 -0.19627467289845552 0.2255006596431084 -1.833004749701011
Ni -0.38662740548687846 7.332803555078248 6.4207142546122284 -0.2013626289443242 0.37887647629550875 2.4412359692783956
Ni 0.4506707347005752 1.6316106198240523 9.930643810053514 -2.345327650714845 -1.1661904303730948 0.910489335887206
Ni 0.6941724474613157 6.031944079362725 8.74114134144247 0.2951716417766852 0.9388586310585185 -0.6017715799949701
Ni 0.9348026599498508 7.575946566292823 12.830541917298309 -1.240754736043231 -0.18195491384167375 -2.369667255901474
Ni 9.689567108535144 5.277320981858 12.638421369171589 0.0661331441836474 -0.11676510740790212 -0.3712667822690509
Ni 7.375196414126492 3.6606531132860893 11.305788488077221 0.8129031154006001 1.5669382528203981 1.1833137203169428
Ni 5.437962637454304 1.5934372237004504 8.163660170657705 0.6537153200521129 -0.3985253608746879 0.23877706503704038
Ni 7.021431733977079 3.333885444242883 1.1470171023219469 -0.12252232160665351 -0.12169648327124846 -0.5185359718030812
Ni 5.152039747102203 3.0160853138538357 9.961439281743337 2.3031042232692593 0.9898065828612953 -1.2105188199768249
Ni 2.9551626880917867 9.12132722232135 12.514494704728289 -1.6854031165282264 -0.5477190211249405 -0.16805938680650412
Ni 6.295674671424375 2.618502407985886 3.38651451267699 0.683661472792242 1.4997450428033527 1.7906393973609227
Ni 6.0962649302989815 6.959083741544736 5.796964360177748 1.0231699888130896 3.3589303075544734 -0.9834209910499256
Ni 7.847804580229453 8.106777657047214 10.325676159137934 2.1459542842864074 1.4132755010551983 -0.49707240261266655
Ni 7.564732423217937 1.5623623423851936 10.635533882133707 -0.741872019694703 -1.230012152814746 -0.6638742628629857
P 5.411107219063689 8.81167339283603 6.794138611345872 1.8554517658506173 -0.473583575462107 0.10345656322445408
P 4.83846851915217 3.361193959323392 5.710477641591282 -0.010986323808174627 -0.5462943728632721 -1.7825381084100267
P 5.968614377435611 -0.07259930504120235 10.74813218537821 1.3175350755280792 0.48059651644483037 0.7779451112681763
P 0.7244015482887695 7.38048254217526 2.347671413213016 0.8320951149480186 -0.48499773083631953 -0.8830759768712598
P 7.4714605817003035 5.53781382048978 7.359614607751311 2.2584426186958266 0.6022024968848017 -1.0449487752510778
P 4.004119283254778 9.677956505856603 0.8113659063024984 0.2786723585700814 -1.8211064556015282 1.554677176064858
P 2.6873636653354596 9.544764958056398 4.589224749798455 0.8414220487758994 1.1584627227115338 0.9641102065364555
P 8.891711035202999 5.469717163804403 10.31239948217259 -1.3256690174891232 0.4717753186087746 2.201112160405474
Ni 8.000318813950779 7.826697826091874 1.7080603027779195 -0.06307687385582685 0.4839898583970956 -0.045893677208320965
Ni 1.9496089800149279 4.304088170993607 7.6970904618990215 -0.2187754251041329 -0.08206292804002642 -0.6097615401789821
Ni 3.959800763274484 1.9504868548515983 3.607648352179945 -0.8111010291948548 -0.23439050593357053 0.3128374344875644
Ni 8.081234331154416 -0.39099978854435935 4.907220278135019 -0.08947876088812332 -0.10135417216947061 0.09583144257902851
Ni 9.095123130422458 7.132232753685002 4.255603993320596 -1.0422635151094308 -1.1071018517410545 -2.471164638517028
Ni 4.793102213076495 5.842832848418055 3.1802186458166397 2.19212281242267 2.9552300873470654 3.155767906397249
Ni 2.199293574689852 6.240925488062136 10.986452548699722 -0.7786025423465172 0.4928107991228351 0.07303295662727421
Ni 4.138537967923446 0.9695702792877465 10.789371535770098 -0.10167735983684424 -0.21134750807117791 -1.4953080900779214
Ni 8.53924900803703 -0.01336446444900979 12.32298206132718 0.4507426663081915 -0.37517383063294096 0.18708889263412942
Ni 2.9907874153347325 3.760239989919126 0.7550988490291142 0.2272875763402021 -2.116295066659078 0.47874686483060136
Ni 2.076079593581698 8.576922109898874 7.368525509319235 0.6136349070914594 0.19994877931593308 -2.5098209174366453
Ni 0.5968793728208694 4.695148372429951 1.404377910084832 0.43255288277304216 0.045646594194521384 0.04951250490783086
Ni 0.4414332259353534 0.8792133598084334 5.304310441352709 1.140334131431623 1.373207943610351 1.5453139896824033
Ni 7.288626627813547 0.3196134611000617 8.307094535503833 1.1557247549550804 -3.7529786064944144 -0.4837078083803024
Ni 6.038372388650601 0.4220255843848773 4.350862852613704 -1.2504678495659367 -0.212353323627873 -0.2970050954409981
Ni 4.329376629998337 1.4073843954125687 12.957770523869213 1.4303257716692657 2.8565722310628354 0.8962639363164435
Ni 3.0136121610881625 8.384035073205085 2.7926189703493627 1.3857119896146328 -0.7183266282745951 -0.8803166689585677
Ni 2.891587558790981 4.272833938905267 9.819552053302909 0.9949927550479251 0.5769257245958839 -0.4698289935156811
Ni 4.0978442214623065 5.813268289402447 0.901282944412039 1.7088412929465087 0.3900803154311282 0.9175344156594456
Ni 0.5595574208936941 9.119014541300015 0.6462546406506727 -1.1800461053092643 0.0739410702638404 0.6156213413938688
Ni 4.013464402483851 9.141650496765989 8.329461464810182 0.26935750892705873 0.7952931156283206 -0.02570460385495573
Ni 7.810612893600623 4.472120966343814 3.1688204322114837 0.42501826495889383 1.4917478835304887 -0.07832685803636188
Ni 6.549927991055734 5.004509576969716 5.27387461516049 0.3730454714360285 -2.9585776636630596 -1.316994372533261
Ni 5.424634043159911 1.631242478763513 1.688469534648611 -1.5031638386769144 -0.9128802047168858 -1.4827392522739753
P 4.783596622103085 5.608553541199541 10.391286447737514 0.7094732916490233 0.8596041190015649 -3.593091471086057
P 7.450844682310109 0.5352393439664875 2.67817052228779 0.1632532236671124 0.366410225507698 0.21641206707827892
P 2.156211631092394 6.507204749004443 6.984505297702124 -1.3360421331933312 -2.0194837766652833 -2.0715061924791613
P 6.849764725593343 6.692813920116803 3.4235815977161 0.9616761431736665 -0.4920417821672945 0.5346477897632792
P 7.163826808290762 7.204256248349463 -0.5441228709427294 0.48159770401583507 0.137349359317157 1.5562458061035584
P 2.654400881145643 1.3176146137272435 7.411396007794742 -0.514030884843876 1.5172941074307094 -3.9666599049050912
P 3.7583520870445657 3.1777369974880303 11.367434180640227 -1.1105335031304229 -0.5231307902626152 2.7979420801244523
P 4.883325091451714 4.190257067172015 2.163701885747211 0.9532110431254486 -4.059454617540325 -1.6111573705397735
Ni -0.09534381492246319 1.3710045070197987 7.506309380861806 1.4249735062184168 -0.47673806193068863 -0.14004773208492655
Ni 9.291578303549166 2.2178894180042676 1.3076351591323199 -0.7361240614673322 -0.7485424897363432 -1.5708116197328754
Ni 0.7710421888047727 4.901609430791827 4.076621361297941 -1.5740879764913018 -0.6406026939295548 -3.0338233116709366
Ni 6.113529802086832 3.83635079430701 7.337910332353933 2.4538482587257677 -1.286984713545048 0.9932801432321926
Ni 2.0555203312777404 7.03923465808418 4.810289680846489 -0.05409601051345522 0.4246716802527525 0.6551397112034653
Ni 6.008194261200761 4.8230254736382685 13.285437778632147 1.153774316096929 -0.3805587490939381 0.19472275503030337
Ni 7.457150277911138 2.1113078612209866 5.442840034530731 -0.16890707951878006 0.15000664306985134 1.1443897895582356
Ni 5.4667909143488345 7.954952507875102 2.2218662854095284 -0.2546957931498259 0.8301439047589186 -0.47795470794660905
Ni 3.7699910082662282 5.210149397581157 5.650794424066381 -0.41009841042426787 0.6913552418920739 0.1745395952142091
Ni 3.536835003258076 6.759579605275615 8.443454928278985 -0.3851502251193625 -0.2524149675354492 2.4576344652410773
Ni 5.825822843518271 8.120323360172181 9.148151490314534 -0.26324805359521114 -2.151012672645921 -1.0337223104076392
Ni 2.733154749557911 5.309613560527347 3.282067230093399 -0.5757934107636535 -0.8328206802601335 -1.0891918042298534
Ni 2.5500470497543426 8.464582449348185 9.990728206939258 -0.08895579850511777 -1.1041512537531628 0.6524040574398571
Ni 8.912062628190755 3.674246013982921 7.634091142974957 -0.3277459761682807 1.432735666662339 0.398681683946894
Ni 2.139324339879456 1.071233849082799 1.5348669249201028 1.3298498883396903 -2.0108785514947756 -1.135090880754813
Ni 5.5209642873343325 6.097359913966226 7.758251907374704 -0.7548571191004613 -0.2793182196841964 0.9125901842802929
Ni 8.990099093510688 2.272298778849085 3.5146823509279894 -0.4775726420168421 -0.727667703169863 -0.2420243683297445
Ni 3.9863163591476782 3.2446159568193162 7.740817124328142 -2.2349229383073315 -0.05181261379591722 -0.17386493774468767
Ni 7.244157075603288 0.7924576150623434 0.46410316365306914 1.1441828157537521 -0.8329826597592945 0.30549847762398996
Ni 4.125851260606403 5.36488191718009 12.236453808877474 -2.0578572342371593 -0.7239668572795079 2.1478862112017976
Ni 2.1706068905109137 3.161359440051223 4.975290504180151 -0.05526791933436933 -0.20660407984892162 0.19890851097687678
Ni 9.784906203700421 8.699059986368528 8.480522013318096 -2.6552419980183433 -0.25004775285485326 2.7378368873024397
Ni 4.483778766594222 7.726912719657009 11.400329000326561 0.8006428099760082 -0.3158991041320237 -0.42832238963146235
Ni 2.510693714334141 7.68147089746635 0.5258026614479997 0.49742052998070463 0.11284391797662502 2.0020316426271068
P 7.63655768808057 2.256987886536404 8.374280279052234 -1.6408577258176837 1.4731896609123274 1.590373601025203
P 6.829120507660031 2.3138987186900133 12.898597984071882 -0.18157027680874535 0.6874656770296805 -0.019517758317953483
P 0.6508582918102871 8.598566916355704 10.805687736363481 -1.2733429543918973 0.1182576327930286 0.36798811151777916
P 9.260003127972151 3.256037769210404 5.345771620332356 0.830120250609835 -0.7266642016060131 0.7667492425523569
P 2.265275780155722 5.586889855713965 13.882274673638339 -3.608219842087063 0.40490066827341237 -2.3597276281902584
P 1.62657935866335 2.8013646804157615 2.2403101525425413 -0.37238675480610706 3.857005954620673 2.865189540418201
P 1.9027512306683503 1.5899351638681416 12.703493605451923 0.09887537161167488 0.15521569807461658 0.2773698377085739
P 4.673116545883838 7.516477625744185 13.638414259331434 1.0313910911713011 0.7888309049427447 -0.7404622838313699
