# total energy = -340889.19637356035 ev
CRYSTAL
PRIMVEC
9.12855753699607 0.00000000000000 0.00000000000000

0.00000000000000 9.12855753699607 0.00000000000000

0.00000000000000 0.00000000000000 13.36056668412820

PRIMCOORD
 96 1
Ni 6.332872986499929 2.146498180044454 11.618830033300094 0.15214888622383474 -0.21383453615908982 0.3950564284894809
Ni 4.426300687803723 0.28529298727696706 6.335032803245619 0.5135230919695221 0.30993774434226623 -0.37974885159813315
Ni 2.7041252541242424 1.388033708576894 4.895806143232399 0.854111985538742 1.5469080736424006 0.40164128079585026
Ni 3.6242747391153793 4.345567723734023 4.813531365771545 -1.2669429644028245 0.744803334408885 0.24143995658118417
Ni 4.916714191729147 4.493103472862752 2.5867931637717927 1.0013125266183658 0.506461042916418 -0.2695210310881164
Ni 7.398376495335685 6.131989946323786 2.4722662791925925 0.025135104504730905 -0.7211139612117452 -0.3622591794538019
Ni 4.920146529414607 4.487918452103866 11.362774903397485 0.026273846094864425 1.4433486662914947 1.0013174117143724
Ni 5.843436238245633 7.887329430033255 12.55215932986109 -0.22674867311759658 -0.10146472960540591 0.040630629037168735
Ni 1.723033518100845 6.578522473509834 0.27265176060987983 0.5347380354842404 1.1728619288559994 0.3802669288851322
Ni 2.9033286396883513 1.6694853987846017 0.39914435858828423 -0.8574942717474136 -1.412000748107833 1.3745906828904908
Ni 0.6748770074131712 0.040758097159068314 4.804098827126902 -0.9241951155090729 -0.5812359219354635 0.050533489973177484
Ni 8.473474118286918 2.077394998451552 1.7097916323388023 0.30414324914767615 0.9369948383769023 -0.28448973658280685
Ni 6.821269079179379 0.9943372732085097 5.046152575268982 -0.44332966167357196 -0.9068568813409414 -1.5618482398920004
Ni 0.6896232794799049 7.476389149218505 2.725007742659503 0.971924560374552 -0.4087277553289864 -1.584509171824626
Ni 7.713037878361752 3.7470173256012655 3.74250873096603 0.5081019209539508 -0.4302586874222267 -0.2605527661512351
Ni 7.671804183347864 3.7441327013762513 12.862872611693108 0.5196222628887244 -0.30424994992886956 -0.5634629142227586
Ni 8.060991111225244 9.201038422027665 6.901468022625143 0.024080180877655302 -0.5352756531552653 -0.12558553391300953
Ni 6.791117453181841 0.9120679728822603 0.5660308242745605 -0.910291360943787 -0.8189179541361121 -0.8265500167600732
Ni 1.95405905571685 6.218492158843514 9.44919369811911 0.00032575877053492286 0.7174388263530032 -0.6894009463791804
Ni 9.077821150542725 4.639333838244085 1.2973633966231746 0.7425335645381018 0.2705047351576244 0.9435966599641363
Ni 6.316195111629356 2.333998754670372 6.963687358876009 0.4537336306157153 -1.0932168662288462 1.3847421695021958
Ni 3.373796245095877 4.594448720160559 0.48338816593944056 -0.05777294514441018 -0.5959560017544575 -1.5300187540862293
Ni 6.097356198508268 5.514369991209843 4.624813954407669 -0.29448515723262186 0.8628789330980945 -0.007862947687844523
Ni 5.158867441149875 3.0049568722740543 9.684633806226307 1.5247487639365418 -1.9184612768036184 -1.6300894315575862
P 0.20672896851063288 5.560478336021698 12.538277532206093 -0.9108878568772054 -0.3263084723908058 -0.43401429780991707
P 3.8943613750188386 6.3604960020217405 12.685470960422043 0.4004284914346717 -1.17521885912395 -1.392016591676422
P 2.182291254684582 8.616299531655812 1.2699019565721934 1.546447589066214 -0.30238178637187924 1.6465971994046225
P 6.455086116640716 7.903788219519649 5.7348766918179885 -0.05134004503487287 0.5262073723054099 -0.09479683066692705
P 4.781127724595809 0.7902062922119244 12.808895450166183 1.558731805750206 1.9281792754223308 0.3085362360090492
P 4.08641709992413 6.061590509541163 8.16536430110355 0.0013112626122558063 0.7846610898357712 1.7096249651900688
P 4.746621776587728 1.0835597959151178 3.7928509008271307 -0.6212037205776526 -1.1252021608861913 1.7716641418100008
P 0.37413667484010005 5.312190695843979 3.5272299553378392 -0.6263618677398245 2.1200799876228067 -0.04075481331985884
Ni 1.5691077786002492 1.1939514438679526 2.735656205186335 -0.284404118847536 -0.9161210802516868 -1.4453075897900787
Ni 1.8086411319685112 6.826755342341509 4.774772422743104 0.024275841828229158 -1.880877919233206 0.4580759667448111
Ni 6.277398741514451 5.939888578630123 8.926207674700978 -0.3064168756732013 -0.614246058312897 2.091695522942843
Ni 8.598763572363875 2.214378134909027 10.468752263325378 -0.08679298652584408 0.7884632371906808 0.010229905258124316
Ni 2.4379912836936666 5.345948102122784 6.962472347849587 0.14929033372911707 0.14399746076129394 0.47408519768887386
Ni 0.4511269302634202 0.20844148593029316 9.31001696925255 1.5311222715630535 0.0244200807155773 0.31408287685889136
Ni 1.3591509520960563 1.1898435929146098 11.626204995044993 1.3952446116954165 -0.8012308212689944 -0.6374975726416698
Ni 4.208146416508192 6.6573019262372775 1.545337014416905 0.8685389595973493 1.837097945933778 -0.19992615360811375
Ni 6.014459766269808 8.056025175850536 7.983927827340532 -1.3127384254703842 1.07444909870304 -0.5878408288464909
Ni 5.416630524193304 2.999808365745865 4.976142927899042 0.3606841216571982 -0.4016479656640696 -1.4436356014042946
Ni 0.7029445836937123 7.536747172559623 6.999240352449307 0.6994135934201761 -0.5474994489149667 0.3122301399208687
Ni 5.548173040277018 4.878054749979353 6.9974630222701615 -1.1574995874673162 -1.055939984155259 -0.3170327035158347
Ni 8.249103299215328 7.518243586154232 8.896921435970945 0.21330000381185843 -0.8222799286298096 0.8738660282372176
Ni 4.940539727258535 0.4154716968441712 10.521780054854197 -0.7797184011185153 -0.6496252091431393 -0.1148375513678861
Ni 8.280779394344439 7.331792795660834 4.481214439348011 -0.5323340540284381 -1.2145459388583468 1.6599862191170187
Ni 7.688326872737976 6.444560889642485 6.826461402784403 -0.39439771185955946 -1.467564601416066 -0.35822846102785405
Ni 2.43982612378616 5.43242292896949 2.353944653188271 -2.4760124535276327 -0.489957131724124 2.4368455535201843
Ni 2.230234439588931 5.120819612764245 11.633380041376835 1.3777495402344466 0.6729430579334733 -0.5921636245915608
Ni 1.1528546772191754 3.2914018835294927 3.7811070113794067 0.23049271354106113 0.4199151394043735 0.6194713112675784
Ni 3.551319306184009 2.6394129087725804 2.7974492377938214 0.6613764361417964 -0.21253355795947912 0.6432894967330985
Ni 1.1314299523580738 3.510103868285469 8.31953103452674 -0.3525530079096315 -0.6566589760614691 -0.2845419299769809
Ni 3.896625257322014 2.8429614877895584 6.943285945330174 -0.38912129395196854 -0.11550192442476238 0.5202488407291298
Ni 4.415720689459446 6.898478419986876 6.149521341336887 -0.41342156126022994 0.45022587457277297 -0.9484897263903794
Ni 0.5913342732913854 7.491460397938436 11.100947786477548 -0.0823398358504969 -0.045862566860069405 0.7669893835876209
P 0.2370914641904414 5.54235814903862 8.359358931658818 -0.3400463908021885 1.1044980955696204 -0.9311972578585189
P 8.539217990655752 1.7342890297130045 8.153526387511782 0.14953458852943924 0.9463004320485445 -0.06544485986737117
P 1.903404689183295 3.0283168513620646 10.448618316519392 -0.5183881333713072 0.6011925675630485 1.0575950032601786
P 4.00164931336248 6.197980289749821 3.7093072538495777 -0.22747269576781473 0.48636581482843977 1.2199249437820734
P 7.014712344851133 3.9944012385692496 10.39979879007833 -0.40327881639927315 0.014789499604348723 -0.01785579723449828
P 6.515800153731125 7.80972756124577 10.276413553132187 -0.048982600546289834 -0.7290550704356928 0.6461897010990291
P 2.368970259119832 8.527725136544065 5.993603750551803 1.5315074228166141 -0.02295995123028304 0.704451927175032
P 6.847787539222625 3.9715707158263367 1.503344736260299 -0.11200599545636195 0.5602642047798029 0.541273779720229
Ni 4.975173475074054 3.028508551073221 0.47617843108844005 1.5890643952954764 -0.9028924973765546 -0.5139293262690052
Ni 1.4189247477460325 1.1312108669738954 6.997569826394949 0.3915556144250741 0.32061322177824136 1.154298049810883
Ni 7.112807825616962 0.6631395079558194 9.519710893295727 -0.847044022948367 0.17309489234788256 -1.3224602807438384
Ni 2.950961453631781 1.5795052057910437 9.180780326837311 -0.445543124385123 -0.45231001079531136 0.3368078292602329
Ni 5.964800412522729 2.17004985884362 2.4811109387230235 1.3293282115082654 0.106987459195848 0.5655295669438002
Ni 4.121242547450804 7.068196564263657 10.422123590726098 0.49105267878114783 -0.5342245861829316 0.41288034404477925
Ni 8.224355779360854 7.104117438711222 0.25226860417939234 -1.024324928353139 -0.08513333943523402 0.10127986728810945
Ni 7.662483925962611 3.9375577099326575 8.017261668543258 1.4381049013940523 0.34975101968446215 1.5318588926187617
Ni 3.3214713525079627 8.424599820499811 12.588500117961663 -1.291429379579963 -0.0463392493861718 -0.017800261406214504
Ni 0.15307039364653302 4.5202791890585345 10.557119440177923 -0.4323690488970102 0.7606433867649351 -0.6165628793715316
Ni 8.784045907474988 2.411847094515058 5.950969734790708 -0.40456976729655486 0.509452007223942 -0.2921038014846389
Ni 3.7799531616894013 2.4459331288701294 11.796405127166969 -0.8091811864643227 0.742557732907818 -1.7571888310119608
Ni 1.29019382742594 3.3562876714769625 12.842203731407423 -0.7075755604056782 -0.3339233086235862 0.4459179912260385
Ni 3.2396794757480682 8.272317221380552 8.421138271429793 0.10849129743488412 0.05696896118587608 -0.9905853700088488
Ni 5.742729989985012 7.657901390010216 3.5477244801719507 -0.8875885200296327 0.5272327282461308 1.1171594930873727
Ni 3.0380296367273023 8.451401265830954 3.6937695358325002 1.0828967152497608 -0.07327875408949315 -0.67842696386618
Ni 3.3697796797192754 4.204924035649237 9.338942629954456 -0.6490911910165402 1.1478114136452746 -0.8022965435293472
Ni 7.0741483838671675 5.81681736406797 11.618696756358052 1.5134330818134065 1.0610742200580308 -1.740549422683067
Ni 0.440347016506081 8.997572000029754 0.28680832785086685 -0.8871020673115173 0.8447973930060354 -0.10199463396694693
Ni 4.480433034811108 -0.022726457185427776 1.7818451637719717 -1.3818167683252847 1.770903609494892 -0.7255776534100536
Ni 5.845051992953947 5.524922603881097 0.09445318625386456 -0.1349415212066128 -0.3623052022003889 1.787165065659077
Ni 7.819805488917972 9.173561463428639 11.75542794462372 0.5192983038904024 -0.6531663895271783 -0.12475583892286256
Ni 0.41789167748357386 4.833388717280004 5.8369111452201885 -1.328909378803292 0.4246783651209718 -0.4730832387869207
Ni 7.868323772955788 8.796332946104322 2.7456364572914236 -0.09274740433706608 1.57937853546628 -0.8018990509806125
P 8.737782377182674 1.5837225994364759 3.805409970475151 -0.8474371446217276 0.018174356916181602 0.03437950592113434
P 1.9736032976970883 3.320558496740553 1.6716470412418274 -1.605623842316054 -0.20291557525374088 -1.305345732550739
P 4.920785528451794 1.1996750495296107 8.309657586546438 0.3629636617199943 -0.37785986210553635 -0.04132945487640624
P 8.770982941443359 1.7509030046798582 12.786196378653777 -1.1428844086573027 -0.0887295414269246 0.321740136293833
P 6.232778351603473 8.036782176273544 1.491546988322298 2.1957251850619475 -1.5894662587195851 -1.1854446506170166
P 1.9484267356319331 3.3230779786586035 6.135292658490274 0.2782131595454757 -1.103639604224067 -0.6619611050006728
P 7.259841504073615 4.256171758431607 5.884100311260657 0.5653089662925619 -0.5645188662910987 -0.31099601040345154
P 2.4263341155438467 8.652229534661052 10.429312329894447 -0.3921850204789568 -0.4048145363175093 -0.3640149858026441
