# total energy = -381169.03696309094 ev
CRYSTAL
PRIMVEC
9.20400186348800 0.00000000000000 0.00000000000000
0.00000000000000 9.20400186348800 0.00000000000000
0.00000000000000 0.00000000000000 13.47098708197727
PRIMCOORD
 96 1
Ni 7.5916356757472565 7.544538797822769 9.588581036153522 1.879064520173551 0.30847607219507517 0.8720896530630852
Ni 5.499621258907566 6.723366948781349 8.198308259588323 -0.10322027884393191 -0.2651578690234143 -0.5894277137176364
Ni 6.169074339978051 4.181341265113044 1.6524322046087392 1.1521650626282802 0.1571828491033164 -0.08492765118233114
Ni 3.4188081124282625 0.1976099216413463 12.796588971760924 1.2173093605360972 -1.2382052301484998 -0.22337821398346688
Ni 7.049105781422658 1.8895171701684632 1.5273673058544412 0.9793481065321326 0.1515207657215326 -2.4629857022506614
Ni 4.255295420697032 2.667144886034046 13.175016113504974 0.15898904907411973 0.7715551485814325 0.8053569276222259
Ni 7.638428821607741 6.479378061366797 0.10720361259047885 -0.4818789827016797 -0.45726581213868994 -0.7622690952938164
Ni 3.624167803702679 5.079421754361035 11.204870965946183 -0.5110450627426748 -0.4193384409652971 0.02137692301387931
Ni 2.7757521089203006 6.050600427012639 7.061477800829751 1.2896792296580757 -0.6368771654488515 -1.6833824865537719
Ni 0.8740304321800432 4.514130363240019 8.026593797403798 -3.164138132738815 0.017241046468634825 -1.0270143022598441
Ni 0.2947287093067007 2.3122109592406024 9.113971153741366 2.4509727369501855 1.6974055403057413 -0.7468962123821719
Ni 6.909287787959514 2.2396374039475417 3.6587334329865207 -0.7036026918008592 -0.6016610225590348 2.27816426549447
Ni 8.033639460888494 8.674504911934852 0.9193868333377698 0.03562057741708704 0.20662953377021834 -0.5531736164816086
Ni 7.0479276691744 2.240520988133735 12.520756998836237 -0.215102604238236 1.2848517263624453 1.554997535518754
Ni 2.3187089846098985 6.321234900042082 2.3112307330340442 0.8245263014618253 1.2706921470326116 -0.9851081489443615
Ni 1.0180730625334233 4.305273151228588 10.589758312326582 0.31465057643690325 -0.3683843185149333 0.5128623184570715
Ni 7.041273175772131 3.937729741778011 5.154713251426834 -0.5353005928559297 0.5837252640162205 1.5078555877256288
Ni 0.26919036512513367 4.106356261311831 5.370586674116756 0.2608625840821701 -1.528841960169309 0.17392587288961014
Ni 1.7611397511161344 0.46996094103250874 2.477678665308781 0.8907826014868981 1.2960535086155358 -0.6658128746465952
Ni 3.2666199403584133 6.902347970497121 0.2109538836532524 1.0727812240823136 -0.5421780367020534 1.7383472728254257
Ni 5.820868538602392 6.024783201572305 10.38198165014285 0.2997551473823096 1.3502032551850616 2.43044299242795
Ni 2.077085525693801 1.8987671921176739 13.200031670376378 -1.0047179527554888 1.359121383610298 1.603186436519155
Ni 2.4495622801839567 2.320107992904705 3.8603406526701973 -0.23220661090837427 -0.8463338842552198 1.0350898801791268
Ni 1.491324434259308 8.466172328033974 0.4497572363750836 0.17457250533467356 1.0340012751006387 1.4673131475268921
P 0.28997484230494214 7.331300480888129 8.524171346255814 -0.4370975647209311 -0.32637557818331536 -0.6284683725598661
Ni 4.619129617365985 2.2868815459030625 9.456942639214025 1.4410704117802795 -0.23162399893202687 -2.224016318697157
P 7.259177921690105 4.374698937858335 12.577375416767152 -1.2793305394339 0.6404605119247356 0.6025269701037558
Ni 5.690042855034153 8.106756052295987 11.673755038751768 0.07129720488309012 -0.8488900750181703 1.2478733493658831
P 2.8716486051280876 7.258395581525246 4.349579375765017 0.6128872302921574 -0.6241106098118026 -0.2722065483400796
P 5.369255775436303 7.901838153114667 0.4512676130933576 0.3346658432165656 -0.6728762092512799 0.3565063361304247
P 2.819185794072863 2.602284284366297 1.7817668398627773 0.2943239490644093 -0.0005178201766829792 -0.5977863700949769
Ni 2.3621702817682793 5.6925279355578216 9.18973205490608 0.7410384680498141 2.049363594943851 2.404770013141878
Ni 0.06830750039409648 3.7441235609803534 12.894375049566893 0.8095329133767863 0.041428956568748 -0.04613973178085602
Ni 5.470398552749613 5.75002533567396 12.931029987291003 -0.47730601861901667 -0.019619831113456533 -0.02169728246777554
Ni 3.9526494289219625 8.106590380261075 6.180690710825911 0.16188591100594057 -1.3177299651477046 1.1988452402936385
Ni 5.558563687328209 0.8675250436091952 -0.04504714669255897 1.4279860677924954 -2.1277022800547547 2.7588613120729066
Ni 4.686116343481761 2.6754745077893056 4.832487586325838 0.4306572084122261 0.8861566726791126 0.4518107025613896
Ni 1.1774311521141532 5.806197359510808 4.086935817219459 0.32975452195787724 -0.39160395116450625 3.1636059143844286
Ni 5.492773481464568 3.6034956153465325 11.375265574252584 -0.08413960806339704 0.6977747722651725 -0.7342731243015225
Ni 0.7815467798914276 7.077951123501092 10.74055299850279 -1.0180223831738788 0.031969610928061075 -0.9303511078081397
Ni 4.939815452942501 2.177271086805401 2.5038796976299933 -1.4818540214555445 0.5541195253346456 -0.67965492273601
Ni 5.662329605194279 2.515352486047596 7.1555997654636 0.43562355127856583 -0.053608786464391545 0.20481870581372466
Ni 3.457722632628524 -0.13070419074263764 10.285530152618112 -0.558079024203026 0.9994158238162851 0.4205113782274758
Ni 2.5412801595112047 4.120723708339411 5.870373183434257 0.4008745778331548 -0.7482979778257048 -1.331540902888868
Ni 3.177479181574229 2.2325595264560563 11.070726319278554 -1.6285886786423436 1.0347070429184115 0.3053272421534483
Ni 2.8356609575445915 3.7425496766486965 8.19608549311993 3.0544872677781907 -2.119878156024646 0.5224144809218809
Ni 8.069737556495266 6.286333324687449 4.567243897232368 -0.9500269889705121 0.5636578038423841 -1.0084033720268764
Ni 5.800702570352919 8.79403728512331 9.412461538640747 -1.4609810346612773 1.6304432153525792 -0.8646378247707304
Ni 9.03447342778921 1.3413452226549418 13.220386320665611 -0.5171138946445739 -0.7157149016833609 -0.5192422538414864
Ni 6.079372137075557 0.32230021751670607 5.5111023309269145 0.8016352557962645 -0.13279567850820354 1.0426486663629915
Ni 7.886384633858225 1.8034781600378949 6.119451883921361 -0.7457361306357996 0.5013892848204655 1.7535820874973091
Ni 5.134038301870106 1.1546236353080397 11.332225820383032 1.3750354837373933 0.5490631938576609 -0.8347263819232785
Ni 4.107157009480568 9.289599157550574 1.7225482913839498 -0.9149645980497404 -0.17874386310354376 -0.0740544559132531
Ni 7.845905433328246 3.208018060009534 10.571424860863265 0.1707137937102157 0.4106851361656733 -0.35396608620707426
Ni 8.515110006346365 8.759549889855954 5.04821190418434 0.07086963042736827 0.059030985921227366 -1.27456345706256
Ni 4.4833705887581665 6.938317210076738 2.267220877360068 0.6788002880451987 0.13559509563021163 -0.12820394537246307
P 1.0684005451386809 1.9434066015243125 11.173456786926431 -1.5221072125486366 1.6259669247487805 -0.3808567399503312
Ni 1.2948281968526427 9.1893031484157 11.887674451829932 -1.196396264532514 -0.6166598099607121 -1.2062628729139482
P 8.1877972893734 0.5203629760534765 2.972858571655556 4.076089654993845 1.111559373291776 0.5563157616550161
Ni 2.915818610435811 1.0377696266839813 8.332047930170612 -1.0108721452823428 1.4623861425389202 0.954851406942349
P 8.220591148283885 7.978617937294085 11.92504362010455 0.6094792330518729 -1.1725256285625032 0.4183647641981182
P 1.6071383906642012 2.514634573896314 6.889426472174239 -0.8631509558125586 -1.0842012929937972 0.21496170778499754
P 9.168980712133255 5.878715690792232 2.423107217409214 -2.4271638074560458 -1.2166758407171563 -0.8119669767395759
Ni 4.319511742229015 0.43656514039517935 4.227330901604209 -0.8466455019583676 -0.758065855845746 -2.8204785706640716
Ni 8.111974721395692 5.685551302087671 11.114534607310055 0.11964217184538105 0.0054504815916099686 1.5292489657997406
Ni 3.3725395946783303 1.0385519668488399 6.1777813258128305 -0.714279454788415 3.109928479465631 -0.642504538937958
Ni 8.298015212599068 4.01450032195549 3.180446551799528 0.8171567484706314 0.9798872668650542 -0.8226270275565832
Ni 6.774265079506857 6.526640611326196 2.4183524300072614 0.9343774553587134 -0.18049144192226982 0.10095333718662612
Ni 6.422101557297206 9.033460987575863 2.691907332852112 -4.22653107160827 -1.8743830555374816 0.26899678315353026
Ni 0.8761353874236099 7.179434448886163 6.23790186648173 -0.05479869300743465 0.828804874232521 -0.02276506161065757
Ni 8.432734188987723 5.566442312988431 6.646638707012792 -0.9448271899371276 0.09377044628494173 1.6289725443443235
Ni 0.2612620378544371 2.3052343257704515 1.811942160221471 -0.047732530189272634 -1.0085830921378502 0.4892955868807251
Ni 4.79879173522528 4.581245945382949 6.376370553260542 0.518313828489946 1.1020730310678954 0.5029350320410307
Ni 7.720638966931473 1.1049772488463059 8.809270828733398 -1.7669608227970601 -1.7654484999175917 -0.8766790722059805
Ni 0.7006003440339917 6.399155980462001 0.48238082124968773 0.3624936640621112 -0.35855807645313087 -1.2498775242801055
Ni 7.512545687081021 0.5899111759090192 11.130187853408584 0.5924245915624313 -0.7587232869240869 -0.7430030479753527
Ni 2.30527114177821 7.978691569309602 8.132502406921386 0.37624572354088104 0.6912991918431578 0.4621511652554492
Ni 7.6437119187210225 8.371776084142327 7.1823668439040915 -0.024916817846337733 -0.13455739839431666 0.8189462362708865
Ni 0.04080686299902529 1.8624297924604762 4.384469906317323 1.2051526705689053 -0.29865677211180824 -1.0048315955152178
Ni 0.4117603551681916 7.909008070625548 2.6729406460553577 -1.0657279167799583 0.41537379989059436 0.8657364571515478
Ni 0.9930657892637662 0.1788576880897823 9.571149576880279 -0.8537335191534006 -0.7479951018733053 -0.01798769482667225
Ni 3.1020155696721616 4.45457126668943 3.6147778809239877 0.01761694175081482 0.33296094471031695 -1.0725693651818238
Ni 5.200169055805508 4.99217701997639 4.008911651977818 1.455929588280299 -0.5271589375854018 -0.9529145949309525
Ni 2.7812192860723717 7.329155948436223 11.678052387257326 0.6797855347766035 -0.4926632178013773 -1.9675212675550633
Ni 1.320360098232852 4.308144799833716 1.4717999849450187 0.922911877921275 -0.16796785553396235 0.1689163354901607
Ni 4.014205793893425 4.618411705214703 1.092595105037079 -1.9230964615827848 0.06188516754057085 0.4601675591665172
Ni 4.9471786544941105 4.571195175265001 9.151407511230143 -1.0103661521802019 -1.7891098480902738 -2.047725802230112
Ni 0.5056301301488978 0.5026839291280597 6.995106822443728 1.184149843064993 0.3758945108490494 0.18063876613341148
P 6.568086232059824 6.617051522378033 6.491480403517062 0.1323516489922495 -0.5554153613279337 -3.247765062831852
Ni 7.6480009836248355 5.265618713597385 8.937313222115128 0.03781115731050262 -1.0755341042371025 -1.207323195857663
P 7.527805922296734 3.1368159010054604 8.30894496490224 -0.4523907434345757 0.9647146728896739 -0.6025470247084139
Ni 5.182368516054489 7.183502617743427 4.4538183793307775 1.1857439270249903 0.6371381324197221 0.4473675791883715
P 2.275799927567889 5.047631131661957 12.895385648979852 -0.4203771666424567 -0.07186978955710849 0.09469964296743046
P 4.014251813903123 7.2440649505054235 9.570611142766818 -0.983273409728468 -1.4417265573070395 1.0724935176385657
P 4.917228832182935 0.4742352795332186 7.588718927532626 0.8182432966665908 -0.055136278852511496 0.21147991988398418
Ni 1.9960442886163878 9.145768219241802 4.752968691169221 -1.830336201729912 -0.5065746856761469 0.12391225997564463
