# total energy = -381161.743461451 ev
CRYSTAL
PRIMVEC
9.33116029735700 0.00000000000000 0.00000000000000
0.00000000000000 9.33116029735700 0.00000000000000
0.00000000000000 0.00000000000000 13.65709630332895
PRIMCOORD
 96 1
Ni 4.127153426740997 6.324697604915135 4.1545161204646295 0.8895489861901132 0.5302090372656353 -0.26623027615198663
Ni 7.223670895062625 3.0913946614554866 8.13075203017549 0.8364906729125529 0.19900672711763792 1.5005325717016544
Ni 7.84744028192574 2.1038313378159192 12.907498829211383 -1.5775615368621991 -1.9959813226679688 -0.4935093678517566
Ni 5.836892551105851 6.119468070827843 6.033117515747193 0.24230924656001496 0.48387055921041183 -0.1836698396502514
Ni 5.718844045343445 1.0632576939458382 11.395877028745527 0.33791057540610836 1.1254926955434166 0.7464403557916758
Ni 9.0476794053706 3.886026919950521 12.338394177255223 0.7877492418427917 2.268704148522835 -2.9734147286758916
Ni 6.249049890409103 6.054859118658141 2.7347381289994566 0.8319891854977737 1.5607984584712475 0.5430717521609163
Ni 0.6757028912241335 2.111165629613346 7.962291932255832 0.1987447317055029 1.407478177647131 0.009867122602066878
Ni 5.3561978412528495 7.70689434928853 9.17659871258848 -0.15655807103512392 -1.4836967310912381 0.7267071390288066
Ni 1.7348212825728488 4.5173638776122536 8.443622094108076 0.826353584478551 -0.8462837477435747 -0.5080240165281638
Ni 4.043826167515775 1.0984081738452123 1.7387123763127053 -1.6677902885424698 -0.608123747465243 0.5525992320353773
Ni 7.626422425037879 4.334715750840195 5.9069947571955845 1.0431685434222036 1.5388782613593883 -0.6313161264213063
Ni 0.8658299427743581 6.5784025154498 9.231377287648016 -0.02412800339645522 -0.8412320442522803 1.0230527465089347
Ni 0.8253998925200422 9.234181301242325 7.9342536625447515 -0.5889386898963599 -1.2859066499895209 -0.5459045936240211
Ni 8.388069032764587 7.0535825097146585 1.377891347127424 -0.12958308510817684 0.7217539087885892 1.4708247602245765
Ni 6.651960050105166 2.365561045991534 6.136214703765302 0.526221770483113 -1.8189169041493771 -1.8723210308021303
Ni 6.268552014908623 8.088697424956884 11.63112023912598 -0.9829445656341395 -0.22661857529763554 -1.0092117268607848
Ni 0.5331153007685046 9.180685760689336 0.5028524825020725 -1.485713761521267 -0.21647583043667878 -1.8572073150891435
Ni 2.6902294286883275 7.866307887542022 8.564173216995252 1.4524323737603178 0.28244596667990063 0.008227015895482604
Ni 7.229213604130909 3.0861598806687733 3.7387392241789064 0.9134188508291752 -0.9077451974831656 1.497036642733254
Ni 7.583387114898268 0.810531622100169 4.827401001354382 -0.20802589989711268 -1.7554160553822542 -0.5860960782412422
Ni 5.330957053324045 4.0846499927241 6.865749990420143 -1.0533904782605277 0.12037596468761204 1.3225836936955804
Ni 4.1359340483458045 2.749426308030411 9.898376072779733 -0.718432300614524 -0.6433537743121307 -1.0066357386034923
Ni 8.733079344365185 8.33980827299831 6.000013359246261 0.5499157716659432 0.635120844879377 -0.6980586220541785
P 2.6802917432376154 1.9318860516184768 0.47203446021280704 -1.1278902492413156 1.2997404705488194 -0.9713779438424626
Ni 0.7781739584030468 1.3826073154154896 11.6095288678918 -2.4303846283861885 -0.44283626697692124 1.4540154019767215
P 0.24969717729421273 2.9931375461540775 3.685504022991246 0.7973224873535236 -0.6335714981143862 -1.2501935128586275
Ni 8.691583675633431 6.743489399012244 3.791264324086944 1.3779832535118075 -3.699604304638332 1.5100739355331863
P 6.3170367225160415 4.131753688644472 12.293284550237027 1.689355673418071 -0.9653078263889826 0.21609042207280202
P 5.761552764881389 4.411072633509845 4.322280113844735 0.32144703053344637 1.9462163354296997 2.6235953176473394
P 3.63402961170457 7.788019454742514 11.438350603050273 0.8711887385153706 -0.22803319625697502 0.23761492640813914
Ni 4.9902110818652075 7.478187616521433 0.2134157607970675 0.8519334898301844 -0.9519861695794122 0.5900157250106226
Ni 7.1128260448569804 6.496540248352054 13.383394523451894 -1.5787848677463392 -0.402502600354881 -0.9489754077775462
Ni 1.2329355082517095 8.601080754331592 10.166205560278476 -0.853430386090685 -0.05228415411569705 1.4893235903597124
Ni 8.693813822884811 5.501707951035392 7.848091596897064 -1.1294313684761903 -0.16641362367296503 -0.48834659270389447
Ni 1.8128204494108813 5.714673016802161 4.141746427939466 -0.3337482164983026 -0.3237034306677909 -0.567954631445525
Ni 1.0370651276921767 0.5891265220703316 4.519433528910815 -1.093370103977259 0.37316297085049926 -0.2999209835362125
Ni 4.175208900986226 4.070140038850056 3.1430034414468477 -2.42338531425022 -0.06803833162616024 -0.7551988187105961
Ni 3.1331236091884307 0.6018486256792529 7.32038090402814 -0.3474305990814016 0.03577175828297065 -0.1420588489776844
Ni 9.095772204256019 2.2117368726065645 5.606469818005996 0.491784671851166 1.877532656910057 1.4061468604302172
Ni 4.253898573667781 3.7545508748795937 12.031177863195488 -0.007553129756909573 -0.6476459739295815 -1.530931495708486
Ni 5.99287222246182 1.3741346220922532 2.4521318164493078 3.030629487323987 0.13826364360131024 0.36650509921434943
Ni 5.222090409048496 5.942633256765449 12.055924099641768 -1.5417776943943706 0.7175298434049127 -0.3501834792361904
Ni 8.140783960342683 2.539699154800167 1.7067550193816259 -0.07480418959508406 -1.1296211158894933 0.002952140649788464
Ni 2.946323116195182 5.719954453389112 10.710522918684143 1.647869638359143 0.29510247910164666 -0.13262572858924257
Ni 0.6247958144683532 5.837387102588375 13.669660516972717 -0.5824821356377388 -1.186341708509989 -1.138154350171485
Ni 3.336206976464772 4.418705522428796 5.439812500207538 -0.002264627664460616 0.902125280193227 0.7239863976635339
Ni 5.666421588195932 4.399324703009896 9.659035550022368 -0.43490184262119297 -0.37673937534784796 -0.7461783603795408
Ni 5.608288461099277 2.2278051302085613 0.03835386714372102 -0.5678476735540156 0.5900571197715192 0.12468281959308204
Ni 5.427450579376456 8.142052998109158 2.4819859299056537 -0.8204616444741483 1.2043258037922355 0.36536198674884174
Ni 2.262451727465364 2.291340998972787 5.653942094748249 -2.505953206951123 -0.28893285995582496 0.9324642974964006
Ni 8.50831969229823 8.747010766316277 3.2736191535613837 0.8873956872925363 1.563910264627352 0.33552073501769314
Ni 3.216749465535176 1.519327472433177 11.93873312748774 -0.520353227517478 2.018285385481808 -0.22882869557507687
Ni 7.143973457095926 5.647945891301649 10.712189463868647 1.9763879739170733 0.982033880894412 0.47120659058949815
Ni 1.9457708177693311 3.3609532129110526 10.853949380428054 -0.4106139166081057 1.1002593748979246 0.03453068678701795
Ni 3.494836697274264 0.2198001405016472 4.3395828839210315 0.8186302476923643 0.7890551051384087 0.46258233925559683
P 8.031907984907086 0.9875353301594245 7.645829371704913 1.8317490229170388 0.48912743673397696 -2.7273066771950774
Ni 1.1303207412080631 6.846561392898224 6.8120500974621105 0.6535358570514551 -0.6283688708675242 -0.012025820816282515
P 0.36145554806851926 5.189384693081598 5.581163711956858 -1.0941974849745606 0.4587120576669132 0.47444283813860866
Ni 1.2805897426148907 0.8998914762961752 2.227500001275004 0.4727572229060697 1.080320212771836 0.40506958975110885
P 0.975899373580046 5.4135191574253625 11.165481356009812 -1.9625338416428006 -0.5742975429444175 0.5012188206808723
P 1.1544511210912012 7.344985306841696 1.3557587686104806 1.404189222483214 -0.7550787481929642 1.2736977666281548
P 8.066265316202411 0.34546287286290817 1.5634507958343398 -0.9562256615820564 1.202607021328916 -0.8396209910114185
Ni 7.480651042774003 2.7279366464407486 10.639642493846438 -1.3195816736444628 0.030188607768238333 0.6298709093343474
Ni 7.049784727575279 7.815835642844461 7.4717425842765435 0.5258463894215653 0.7152832134625811 -0.022924727116973423
Ni 8.280854003817465 7.960244675741385 9.742248035979005 -0.1357868999260436 -1.495900986466914 -0.7792975115310127
Ni 6.765725553405716 9.2101908887599 13.63797562991503 -0.14843955569304756 0.07993534017406233 0.06582615446618986
Ni 4.785914663782677 0.4300489055785534 9.406120055627733 -2.2247208009633495 0.5713382032057773 0.43588297558753963
Ni 6.0699009486549 4.116077339764475 2.0282153492540482 0.3198850853629652 -3.154503952083161 -2.0646793993653154
Ni 8.733014026244852 4.669228507387224 2.522055797382132 0.4329267211726931 1.1032554814117708 0.3991056588581901
Ni 4.158244852019657 9.432589757334808 13.162286154311571 1.1324441871605853 -1.1952924899453736 0.25836270047845183
Ni 3.0318618603516887 8.309976554326077 1.303105831809791 -0.06375693064198698 0.3440508839758913 0.20905511249257544
Ni 9.057103877018692 3.7558479061262124 9.483815026648214 1.1871042977076265 1.0184057346552267 0.6471065564863436
Ni 6.741847114843862 7.567598792097701 4.471387385825634 -1.0148187886349167 1.6333889282444642 0.8789591264894088
Ni 3.7149121069973163 7.131945591794548 6.405342155626667 -0.9980803928343134 0.7963871200234478 -0.3004388037128955
Ni 3.2226374275252225 5.866089750894845 1.9308950824214197 -0.3575036670466875 0.8206159106638254 0.5639519380440352
Ni 2.1698026393525724 1.2436196865062314 9.989346485199956 1.4196001577216453 -0.09286413242058844 -3.9209230649896085
Ni 3.373568941295431 4.139741161645232 0.306400770671573 0.18234777840471822 -0.5738897659830374 1.2748354797770238
Ni 2.7023692679102775 2.391548326724148 3.3477636181837456 -0.8759673908509367 -0.18614684043583427 0.42286548028194915
Ni 7.139055935750832 0.5639034633456176 9.37733062753282 -2.2115009598389657 0.6178178348245553 0.5577288399524587
Ni 2.1502165344126243 8.032206582028609 3.5396738544190693 -1.507185815352114 -1.8341370635332412 -0.9793131395291392
Ni 3.8685776506614764 5.796861874501573 8.42294517655856 0.7275946838400824 -0.6535710811647647 -0.5046849248526019
Ni 0.4987038487449018 2.487118067931844 0.13982090150151058 2.725866859424757 -1.1943758916683753 1.2485276951204303
Ni 8.552586715564125 7.709563061062148 12.153927407389883 1.7502455669249084 -0.15265385088471128 0.40329244324602803
Ni 1.7247716232015653 8.418992497162389 12.415993970443216 1.168140097900298 -0.06906111646371978 -0.27447863220370794
Ni 1.585513390650926 3.8246745426374376 1.7332629788448968 -0.1206256188045729 0.33421050084670184 0.9336565180322888
Ni 7.673162205716395 4.469998909210549 0.43582769299604274 0.005267419046526413 -0.346067657295604 -0.9310977561661771
Ni 2.9022147226500956 6.4485220987470155 13.388597578294444 0.25414634840425904 -0.03791194455442503 -1.6618050174933123
P 5.608932311142562 0.3674228249189705 4.345715322304325 -0.1780794900466675 -0.2966880784212116 -0.993035117100922
Ni 4.395032369387992 2.315928605698258 5.255236555769642 2.506232942975071 -0.49705954709686 -0.5766776131408198
P 8.154631401853347 0.2095078709691254 11.21695483418048 0.0730895208968225 1.5555680633102436 1.1757425928379042
Ni 5.173540383320743 1.8002233833465977 7.662340859409172 -0.9611372399510608 0.3734630185894213 1.1761156599066067
P 3.302782761174207 3.0980664408895326 7.371280515855882 -0.055780597304729736 0.35901573281583976 0.7946678233394959
P 1.9633413921389944 8.641363372257155 5.841576793449754 0.62020638966139 -0.7626370201561963 1.1739461630591137
P 6.361826290744605 5.996334082839486 8.291181731758167 -0.04377688797563428 -1.4949383654433286 -0.1851911613907843
Ni 5.297355545992576 9.025797835058937 6.326758858169654 0.018278486594213682 -0.10244020614479776 0.3044877769712885
