# total energy = -340858.87782775954 ev
CRYSTAL
PRIMVEC
9.38000189736913 0.00000000000000 0.00000000000000

0.00000000000000 9.38000189736913 0.00000000000000

0.00000000000000 0.00000000000000 13.72858092191770

PRIMCOORD
 96 1
Ni 8.314077373136634 5.927917412762112 11.96154838657827 0.36278676982249775 -1.605197810522229 0.7789537550383487
Ni 0.5770746098486141 0.8405072772980939 1.685691423616121 0.9227198165151269 -0.030771476854901843 0.36670590237124584
Ni 5.259188926925591 9.36517226235974 11.494885780808342 -0.4621120844873977 1.102218298396508 -0.4582754843501268
Ni 6.45506414772244 8.866887793693706 6.924518242101137 1.0511299643611254 -0.0915551838011778 0.5592105667043079
Ni 2.672578322836729 1.2803327592153748 6.001819634878732 -0.8401238987897661 -1.0268705775931284 0.4597050177078018
Ni 8.139993915172457 8.888902658494715 1.1802443853880704 -0.6697695453014981 -2.1582822097241414 -0.06607735124504747
Ni 7.247505480538297 1.4811117030013106 0.9781081553061372 0.8141927807463009 2.5005978561764803 -1.4640576167040722
Ni 3.9401261392639597 7.660328750566927 5.646854093467734 -0.46431937655136163 0.7741532483259119 0.9107420753279606
Ni 2.5441754748345953 1.783232188887842 11.423826637311741 -0.4103097551041256 0.6938024178809857 1.9518251969760452
Ni 0.4762273938558213 3.1660977504636025 6.486740414630409 1.2247917849560714 3.763222652819925 0.8353257060701742
Ni 3.601611245440524 1.418425149330607 9.568793346765492 0.9212296051228458 -0.3768663878440155 -0.9255187194165028
Ni 7.061621980000764 8.425089697346237 9.765949733761419 -0.0036018584186454095 0.8823182727696288 0.09243090153791178
Ni 0.6003060609149364 6.127917816378264 6.005444067669149 -0.5718897048338731 -0.9321570506686269 -0.02156667042718221
Ni 2.75685764121639 5.260173827140378 10.153233134220306 -1.293189042583547 1.0216826056342856 -0.07888530164299318
Ni 9.10126590480696 7.731682426127759 7.715119218515649 -0.9710092476491342 -1.5368707440110563 0.281116963455832
Ni 0.5642962330619017 1.9672678290223928 4.789668234532369 -0.6212993656152526 -0.8101690042988886 -2.486846053808027
Ni 4.825551432357789 7.428933480104172 7.96298858657108 -0.10321539374792546 -1.9304300191297206 -0.8976245641093961
Ni 7.37952900933003 8.024779350046428 12.581063753682379 1.308971245118468 -1.9389804798028927 -0.39737530643064467
Ni 6.158055762950757 3.0881405534626727 8.097034443803842 -0.9805578105695176 0.05301254764128935 -0.6329377211851294
Ni 0.9212268849014517 0.36007951852625575 12.961633886677234 0.5514463493778567 1.882767165836119 -0.19525703026721858
Ni 0.368945496459751 8.07959608200088 3.0297190867221007 0.4607661119824646 1.3756319796708116 0.9123461865902869
Ni 5.254189385835289 1.5546696790428574 4.494257264109051 -1.38481030373597 0.9709313432233472 0.8620253268485477
Ni 8.806180420454623 0.41885179734333294 9.104190589444775 -0.1175922312948878 -0.018121906411691372 -0.25210077872914005
Ni 6.300322253976279 5.816482988460457 4.980893646234868 4.324245590142624 -0.35145334708754955 -0.7455934344103482
P 9.357621360713038 8.77693357407646 11.4002828321773 -1.1858172034650867 -0.8508356287803154 -1.6475220252117369
P 3.776398203558119 5.307242677405168 8.268422089180115 1.914283491276845 -1.1476712885229847 0.9491057627078235
P 5.763073256812845 3.284173216213538 5.959549593660468 1.1487763486617053 -0.09349122448162607 -0.04021333899409203
P 2.4082217251857587 2.630874833742019 3.610493169377497 0.6242304232191186 0.23186491129823936 0.752531299180762
P 5.864339758897077 2.4660681978009356 2.394648862225784 0.2170327313814133 -0.27856282957541056 -0.5311613738765755
P 2.6771932838431614 8.52441453900703 2.0948302288412415 -0.5786977288946421 0.2120738447142412 -0.5744479524793525
P 0.017245133760824247 2.42782592946105 0.42506323469792523 -0.38168463516826523 1.2580436050306656 -1.2955256611365236
P 8.77636139395168 0.6543573847024663 3.401790937863648 -1.6562087543524573 -0.15481023510608177 1.077232574985448
Ni 4.8595539397730665 7.030030133111204 11.84941327612381 2.0085365336251604 1.0502246789380365 -0.06205383190795119
Ni 2.5643237192285313 6.831258509763026 3.724083118149229 -1.2135874315998196 -0.08297541255196678 -0.2108926799219465
Ni 4.523749866540808 5.368419050746532 6.054675008405449 -1.3842734573958932 0.6086585369227905 2.6630118717717495
Ni 2.357663514160008 6.784161519492098 8.101016254672198 -1.1046024823579685 1.1747336919574154 -1.2151774017947587
Ni 6.444868085498879 2.511064067613649 12.376755115126686 -2.3686449852845466 1.7124845461260507 -0.24887018760698432
Ni 8.40264335245113 7.772673035067004 5.13020639479704 -1.0345167812844764 0.23652375022648944 0.055611675827033254
Ni 7.043068335954579 7.325734697598549 2.7271689967418813 0.019052645756076864 -1.0726719521979593 -0.13958261952304996
Ni 9.084503841151482 3.8026809692898733 2.505108704314902 0.9127436791390217 -1.1958360211536696 -1.604217963107463
Ni 6.142447439546888 4.840559435630739 12.187438533840465 -0.06546131492760339 0.587187254422892 -1.4186928154160277
Ni 3.850772239777633 7.842826070366001 10.04078191769691 -1.4787596988009373 0.28445142714570365 -0.4688730573603151
Ni 8.840764487996728 6.850487513956493 9.874282191386596 0.12506668529506204 -0.8713489182423187 0.2965978327002505
Ni 1.3025915040695688 8.176510263135954 9.690264373255932 0.8894451136223972 1.4891870647818481 0.49799465731661974
Ni 4.398470559219857 8.46812514673142 3.5200633836565403 -0.0024224933985635697 -0.24527372850497756 -1.032830394720989
Ni 4.038822520787698 1.17268785574014 2.3231094626244495 -1.8794512140890083 0.17292134288449576 1.0689731631901331
Ni 7.731626146115485 2.8117400331851594 9.552456197202682 1.2959820319476518 -0.43394693490709135 0.3581783245162089
Ni 0.33846611781279845 5.122231517057876 8.115760679887666 1.1323462281301402 -0.375869828258701 2.582746401951778
Ni 2.2525324512329923 2.03024516275651 0.564774613166227 0.9770181728473755 1.0916099267530428 -0.7309692567392702
Ni 2.139034426481307 0.5987724305804818 3.853324538334239 0.5584716316557542 -2.6232376771976047 -1.0427785070726363
Ni 7.7324797263016345 4.939809237275167 7.194613525003603 -0.16202989278297256 -0.9286801478636199 -1.3600305256881289
Ni 6.775016017497645 4.376033594326796 2.8065885360617195 -0.8446428697060421 1.2192677698140486 -0.7513398499758223
Ni 5.905152147797455 6.392443254066055 0.279540944962378 1.615317158344418 0.6547607305974917 0.6165243128241125
Ni 7.951568434080569 0.8561174767023713 5.723747598236694 -1.401673912260528 -0.48351754674636727 -1.421750371295429
Ni 1.2916825616905432 1.705565771950325 9.31605012964717 -0.7054567142904625 0.5573717137233561 0.5432990376803739
Ni 3.7464478570265385 5.3507471268926325 12.453594215883781 -1.0050403690919143 -1.2145248558124244 0.06313395234600741
P 2.0643414701922436 4.6634743770119735 6.661299438698297 0.6405895813034322 0.1784867527874152 -0.44591696278477394
P 8.758004729948453 1.839446541147086 7.3623082635745245 -1.8624004292543086 -1.6280438618824669 3.457401501749194
P 5.898285986300081 1.7951541714877917 10.336948916285102 -0.12453009606530166 0.45529994666157075 -0.7769608929780362
P 5.771252618596605 9.001275083000928 5.0052760235521845 0.6798066178225259 -0.31056329374140706 -0.6297662654356831
P 8.442123781061035 4.886906025738018 4.1554628462246574 -0.05308865229486341 0.8100677028343339 1.1619044014032311
P 2.3383876099563126 5.858702377667675 0.20124325388719272 -0.6064203916208911 0.5395897071495869 0.8767171245327676
P 3.8454350186136903 3.2709567933312966 12.744859225402948 -0.0458175725547469 -1.8004779807178994 -0.2052707057494787
P 2.865084104818451 9.007343944324427 11.617908259637122 -0.39845439842743635 -0.40285458437766103 -0.1332276238392996
Ni 6.466882950299887 0.27646993229265066 2.7517155240949953 0.22602105092295266 -0.20778601597216473 1.3070742852060715
Ni 4.560716454602493 1.5811963248277967 7.249802643039263 0.5528866813688091 0.16484087986920642 -1.0526651700587288
Ni 4.978614305737789 1.6571274413868786 0.3987654609628984 0.13339474554478317 0.16938916136152118 -1.8624693348190313
Ni 1.1848912384014574 6.824589328308608 12.00963965706603 0.76681943366866 0.12336332945071012 -0.15300557779717522
Ni 8.887936518284018 2.7273762947870885 11.686743404648713 0.3169717683709122 -1.2320700637850395 3.107990124792338
Ni 0.6838865691422001 6.091317048396356 2.1113455984429184 0.021848720443975272 -1.177375757565953 0.5909240957575049
Ni 7.559756368634069 0.7826711226851669 12.095855007867902 2.2403690490235673 -0.9523371251609275 -1.0593916901492852
Ni 5.056299482679396 4.260668949168037 0.5958955839530982 -0.2224832129730233 -1.180636944815728 0.9914690581653828
Ni 7.386610910874453 2.4828959214707313 4.192297176257499 0.6368743372353741 1.0332507700878593 -0.25436720616581354
Ni 2.653602578698493 2.853753062347374 7.874068981179464 0.20682390916921153 1.6314287191943002 -0.05394560097852
Ni 1.2941119822203522 4.504473962337112 4.273679950005481 -0.1172685294068819 -0.07251770755375253 0.8617031676224385
Ni 4.1768680108927025 6.578383034615862 1.8533448901780423 -0.4837913692330442 -0.8284786012413538 -0.41449988192607323
Ni 0.3301075979899698 4.99798400996194 0.16332740961849335 0.8145028557875521 -0.6113587094627729 -0.7048517337166118
Ni 4.523215206424209 3.7758166434312925 10.256348434707723 0.7043447121732063 -1.0353444193920942 0.2988588608202853
Ni 6.042184597681535 5.427278563582633 8.811181837545334 -0.5281213014986711 -0.12181963911267407 0.6852779253497424
Ni 1.7542104625587747 4.056344364608867 12.050097481889086 -0.5980398808666797 -0.17824789730373172 -0.18861432813972034
Ni 2.509197447206576 4.206893397440648 2.245103489612882 -1.5920728431044968 1.3046466496011855 -2.5832683358935187
Ni 0.47590190778483915 0.040984980938017654 6.537234841642251 1.7776910647303705 0.5726283827721106 0.009198121559500288
Ni 3.2645221119280188 7.935322270537601 13.66854648484096 -0.08672819472617967 0.3799910495159262 -0.37595390333207507
Ni 0.7598420737066007 7.920792647368976 0.525378604574733 1.1439902401269717 -1.335211666872236 0.509102080083691
Ni 3.685627923762908 3.37866735682085 5.595550172279358 -1.9916716395490215 -1.2222474212676628 -0.698907600318035
Ni 7.722189864057618 3.9626944241856585 0.0400441667328446 -0.547168033717477 -0.41912426807196207 0.8428248426606968
Ni 4.368060592588041 3.7618123003772213 3.2872536088853113 1.2570118213320416 0.5195189045416407 0.4042895170519747
Ni 5.331114782611205 0.09809043339159287 8.79901878889281 0.6978130817022755 1.1430386748469796 1.9868780748151202
P 3.3713415752232416 9.04410417234111 7.802707801616995 -0.8168417883333738 0.4846056376042235 -0.2725315357796661
P 4.5532499729742 6.063477202325033 3.912041475139247 -0.12886111934048775 -0.1342583790966591 -0.4467682550414757
P 0.06904525705741159 4.024349177631347 10.32162762094383 1.6102554275507945 2.444743468211022 -1.9031812107160968
P 6.707714502820509 6.614458522483215 10.604491900630961 -0.5676083038497 -2.2609054784140223 0.8460371789504075
P 6.715030904416071 6.750853132228195 7.056572724899621 0.5531468770087313 -0.06656431818379505 -0.3711847640782059
P 5.591062779300747 8.468556626825519 13.435187979950062 -1.977190929434343 1.3414679321945928 1.4686897161594445
P 8.248520538839978 6.63254316642712 0.5486710256543516 -0.491298990463999 -0.021351726202898713 0.4741484468266415
P 1.2738980778120972 7.8923806211728715 5.1395141708268826 0.22488590887724494 1.2024946641207679 -0.4100220486603777
