# total energy = -381167.30933341815 ev
CRYSTAL
PRIMVEC
9.22872508066569 0.00000000000000 0.00000000000000
0.00000000000000 9.22872508066569 0.00000000000000
0.00000000000000 0.00000000000000 13.50717200937915
PRIMCOORD
 96 1
Ni 5.694891746937825 7.899998572352169 4.852136600129288 -1.3403754704613626 -0.6208571358715114 1.44545825643533
Ni 0.29360814120553347 9.039890651651588 3.28945010549173 -0.3595299534480969 0.5592745871730238 -0.4490868758723234
Ni 2.6463318644448464 6.17747754588422 8.71434494060271 0.13074445240612967 0.9306624684009713 -0.8588394729213983
Ni 2.7847367204182047 2.688010280976313 11.594744885084799 0.6040467491823919 -1.137356536860538 0.8026629257298306
Ni 2.3955419664501876 4.006743034843169 4.828644959123522 0.685437076635426 -0.7486188515002332 -2.1477843955166107
Ni 8.701689127324626 9.17135377629052 7.593580460981586 1.1373501091026346 0.547549842536928 -1.499918078046107
Ni 0.2665110976130174 8.922740760396698 11.464347778676364 0.4344174467856066 0.6589750257891555 -1.1127539078205093
Ni 2.8270878215473547 5.272044077402368 0.8713591907566968 -1.3058129019951448 1.0464243313553399 1.9604039397839912
Ni 9.126283908245732 1.0518638254192383 5.714185649197213 -0.5971921881544038 1.4567561979466523 -1.0732355380109129
Ni 1.3694083268923394 7.196407854541875 1.3958616486962387 -0.13485461791976128 0.07023713904969194 0.30373495796566397
Ni 3.8906769132178805 6.190763066688468 4.748404898029854 -0.23289283834212146 0.19417305317442043 -0.5575650606810849
Ni 5.608881546850695 4.812572468659706 5.288042759417273 0.17348801402124314 0.30382006148030255 0.3638638049367604
Ni 0.30164018215870586 6.528964591015429 9.572304627887219 1.3350743699634233 0.8989661657389549 1.4635986747897825
Ni 6.630857621881194 5.263738291189306 7.5423293689114175 0.9434711901298656 -0.10733558656388612 -0.4030474171147575
Ni 6.256013472663756 9.078448559077135 6.9031425956243275 0.09677940831459461 0.1130372649343537 -1.1749589205943443
Ni 5.663219513796898 8.435390112216712 0.6331251376346317 -0.5773576699269798 -0.1078948015014658 -1.3214907177417177
Ni 8.361478892046248 0.6846527778171799 9.605095199171792 0.9635476491647663 1.1299322193720087 2.105086599537768
Ni 7.873184616861179 1.532085885432107 3.500429220997656 0.5990019876696329 0.23602469910288384 0.46360460987252416
Ni 4.179015691741561 0.033631427031679456 12.512775306942435 -0.5879583282609616 0.8925306945262564 0.26987275800058036
Ni 1.7611536766265725 3.335170235314278 0.013487326183552093 -0.7607547155318188 0.15219850851484756 -0.1391578732808055
Ni 1.9164690759583611 5.788366877490913 3.1782104958548185 -0.4458886806499998 -0.9491702973971717 0.3163189652782617
Ni 7.046156275375981 2.920600323466982 10.9932994548644 0.9857640373608054 -1.3368224630027816 0.2017143558567881
Ni 9.22535540093788 4.202802566542976 11.659615037405565 0.031066639497817464 0.47799944514161546 -0.039156872705119666
Ni 3.7373702248375076 0.24415367758167897 5.886712431388062 1.272160761158338 1.377694518626795 -1.5981468172127187
P 1.5363181926925318 3.730895635584805 2.1177222933227817 -1.8122536331965888 1.0799368612904885 1.406322980996765
Ni 3.6807619473741227 9.19413162419541 8.22050101748675 -0.614426035534187 -0.7844929396890231 0.5619433922544387
P 2.068486452193174 1.1549714256974877 13.375480223493105 0.5997751183902316 -0.5395678527727159 0.1624600383418557
Ni 9.014907893120958 5.5227031756141445 0.12110845325542444 0.8207285249822898 -0.5747058341264296 1.0967878714095562
P 7.431100036400304 7.014568127809765 6.326406178674669 -0.16726363037808611 0.7539549190011661 0.2179344172600763
P 6.628204254856999 7.101512612060344 10.881157326725598 0.030340559965070322 0.003321865284381376 0.056009168375768054
P 3.743256215067237 0.6185446989798442 3.5212824435258416 -0.27082997970752715 0.31476601896884504 1.6715433278269984
Ni 3.8945822210210976 7.514634383454294 1.9159458768268296 0.0664884706405371 -1.8490877713058025 -0.09200332708218993
Ni 2.7031737129490927 5.947036356969485 10.967085309806345 -0.17545645060152362 -0.5632230302978106 1.0623582289767768
Ni 8.749552505018126 6.801243024769418 11.785869527833269 -0.35609650228651574 -0.3673823596129802 -0.2895311556614562
Ni 2.4668278481213584 8.22241069431684 3.527476747529509 -0.5722203487004146 -0.05177430435881406 1.3334962268430262
Ni 1.6269717850720038 0.3862994073454882 6.862708645598575 0.2730845800696587 -0.06404258020320584 1.0624685293023959
Ni 1.393045716227603 1.9509348187480007 4.169944726798632 0.20994368574511588 -1.0602352690965031 -0.2391118226686398
Ni 5.751761623966975 6.505233773263821 3.1391293892977403 0.14023927927044233 -0.9776195538768002 -1.638028741009321
Ni 4.2753217033099 4.723376359575215 2.7635406156020337 -2.2106851488058896 0.26841828494224096 1.582177695477972
Ni 5.740970641879137 8.670222436699659 9.122368323316717 0.02949081037026534 -1.8840234068407231 1.5843384505747165
Ni 6.459509906304618 9.248039820426426 11.421314650107893 -0.23674486509836 -0.01022039217642756 -0.8594580803420038
Ni 3.0239228091028245 7.582921212960794 6.547176592213543 -0.3171843986023505 0.3282658532274927 1.2278647674544403
Ni 3.545169286732746 0.38126454998866066 1.4772910535299775 -0.3176489969435949 -0.8642377611188341 -1.794321731308516
Ni 7.777140204858605 8.725466659284407 4.714082100717222 0.4885746495543005 0.17810931484333842 1.1840639682194058
Ni 5.438318629971416 3.975696772091754 1.0576348986968638 0.7887365454567254 0.4285833566023328 -2.0359678903632354
Ni 0.8768733358893738 2.377781224503019 8.284906830578283 -0.20692855306787586 -0.7400763612468609 -0.4981404388658647
Ni 9.269715213018447 3.7817487226013426 4.484013691183703 -1.1723225114127616 0.0462114655590559 0.1392082669027667
Ni 7.015876125638594 3.1994094035234806 8.618379008469864 -0.3509406691171892 -0.4015201818369536 -0.08862464041794414
Ni 7.704779896399467 8.671502406003583 13.116395750695343 0.8806246871172898 1.2869564314102737 -0.11269119444884462
Ni 6.542773310951207 8.66862481078016 2.66609851449094 0.5420577090741051 0.869267867343574 0.4609502029688126
Ni 6.403237971140076 4.091762893717044 3.094141738259337 1.9272462220851 -0.47868618679599495 1.4261721545122084
Ni 6.851040370681258 2.7321084934911135 5.631511777857761 0.2813838439639735 -0.3303312203969537 -0.4278423646712502
Ni 0.26832454317427223 6.677319573329521 7.206477569255531 0.9457525299648744 0.4241446041046889 -1.844847765082526
Ni 3.131047831283905 2.4319603631414357 2.4450141814731476 0.9443569351689285 1.1270343289989235 0.5483484271788234
Ni 8.3097288922328 7.560507735879648 1.265677559077069 0.10818739304122013 -0.44340936587157187 1.9717707868600365
Ni 7.56589855550275 5.927808788885701 4.436837946634501 -1.198742396167187 -0.5229716389769316 1.3190453415250185
P 1.840642573252827 6.431098324894129 5.408116025819595 -1.1908429388144521 -1.1899294258612474 -1.263021260750915
Ni 5.017021872147286 6.955549397204681 7.460940138296707 0.24545627682942886 0.20397846930061644 -1.3148971236845999
P 5.006997003073477 2.7079011908161457 11.640525743377971 0.5147394808751264 0.1619026231764889 2.256463897702901
Ni 2.065991913476765 3.982937474358485 9.811780344662505 0.22435111941969751 0.39949903764186684 -0.9578973928575246
P 1.5474361742375768 5.531952588832291 12.735118120728394 0.11545744434007213 0.423301025157471 -0.2427887572995948
P 2.777766960558874 2.8474271877856436 6.738450720428164 0.37976042156235884 -2.521927213781876 -0.196917448688777
P 6.632165619710023 1.1047162805455573 8.525257971614723 -0.4855111801376284 0.6519456297461997 -0.5539068951032075
Ni 4.572956609259899 2.0270789780691074 7.992497375954454 0.2116943498876354 -0.6106681111536515 -0.5741185941643919
Ni 4.433701554697802 4.252964283278561 7.46496036305203 0.2616467705463623 1.1783160099920351 -0.08104399985720881
Ni 4.693198981095806 3.7186378273603515 9.82575536717938 -0.399277408549364 0.5056976823878323 -0.4235627634592899
Ni 4.678792319295421 1.0279928650431123 10.365858502080195 -0.7876582247908822 0.674529942804619 -0.8055854986932642
Ni 8.73109104994837 5.476624280672832 2.6236128764422526 0.8850495556578628 -0.2071589239111271 -1.1830514677944914
Ni 9.104421658821021 1.899362332925607 13.294105007140844 -0.6933133940597092 -0.053746597593836466 -1.7113023528924913
Ni 6.046313392177592 4.874851850995227 11.551835082025907 -1.5204159408891427 0.7793517618077158 2.0440041304041507
Ni 8.31257845893132 3.218450114774574 1.7951476059136702 0.8545387886635154 0.12764627309678017 0.20577695596193593
Ni 4.558400461993362 7.028040505446701 12.161800249532797 1.221802106200128 -0.5922644118354833 0.2967533844415083
Ni 4.093341833953272 2.232789665177344 0.1501142393938671 -0.007209630374561776 0.0007841864641921978 -1.1453794071650143
Ni 2.2307716113842937 0.9987497707271534 9.872439678258607 -0.7099983109145579 0.1435444323842754 -0.009592528784441546
Ni 2.2501486649342293 4.821476196737376 6.828181240054147 -1.474844422906931 2.268862785587886 2.5468496880551688
Ni 5.655399555348829 0.8951413941372953 4.384370416583523 1.4715397840137303 -1.1973015499556026 0.09306956356317521
Ni 7.37447307325365 5.230365660870902 9.890817047753652 1.950728107257124 0.525117995895973 -1.0545665008465
Ni 0.22063120519851945 4.589530810319487 8.415714087734472 -0.9283615881819366 -0.05690056984178588 -0.945417772333275
Ni 2.276738392225992 7.812474831920253 12.797882396544745 0.622267900176109 -1.3749316111696772 -0.760081343613878
Ni 6.520275748295352 1.6061746195936257 13.314411673433412 -0.674248149898142 -0.7369498998027373 -0.1541731157427151
Ni 0.6673862721924759 1.2875837198574616 1.6234962479839732 0.9454699657274492 1.116784112025825 1.52257386777241
Ni 4.940008828554172 6.239542042862149 9.584693235894553 0.06674146719160765 -0.4169545141141529 1.2536945840333504
Ni 3.2542238553930427 8.188925949898824 10.441545796445375 -0.14733758087812046 0.1773672944709913 -0.3300046902954704
Ni 3.91411810287882 4.491234773483001 12.840600671350131 1.1974712427642473 -0.09123122480285578 -2.2401134813693355
Ni 0.09981238003376425 7.089665888867809 4.435771928404005 1.063802160512155 -0.09015367546796087 0.03892753030313296
Ni 7.465229436891102 3.6996158017925267 13.408421214527994 -0.2521182622306367 1.4180181579465063 -0.9124534015921124
Ni 7.872091504389943 7.415394719612724 8.539533833632225 -2.68623896062049 -1.1026880389440752 0.9492291756595653
Ni 5.866547776288339 1.9193840425483226 2.0447434887474403 -0.15810176137315995 -1.083748778837411 0.35766847475932595
P 7.798787568925722 0.7930643092913302 1.3978441996910778 0.01790670507709174 -0.2084575881178926 -0.6296729343909284
Ni 4.602489331666527 2.7761413061144724 4.687102776929301 -1.422968045752614 1.0804202286848104 0.08076066428883512
P 0.7671500694497408 2.510001119314344 10.763354370840458 -0.7496799457748959 -1.3132025095909965 -0.9974358172717791
Ni 0.622719080622135 8.88740613333505 0.0975822437356111 -0.5928992172060048 0.8127748173528518 0.22515973136392192
P 8.251055846768192 3.637691447439116 6.9011600446294885 1.3583066010184863 0.3435999124814018 -0.18927458743153855
P 4.885455976250374 6.087281752744838 0.6033214728206036 0.8148414700738933 0.32890091570833035 -0.2918682884350651
P 1.314705989122391 8.591378196146184 8.909529982325527 -0.009704114661641353 -0.6001710682770697 -0.2862252312166748
Ni 6.944823815008285 6.431920494957964 13.33820415393981 -1.679842077500681 -0.5135223206385736 -0.09245121325288592
