# total energy = -340864.11514566815 ev
CRYSTAL
PRIMVEC
9.32465565319075 0.00000000000000 0.00000000000000

0.00000000000000 9.32465565319075 0.00000000000000

0.00000000000000 0.00000000000000 13.64757609908382

PRIMCOORD
 96 1
Ni 4.580569122126833 4.381692871726368 0.9696755775163881 -0.20717537897135932 0.27503347626591346 0.056852233102353704
Ni 3.5314707922292574 5.728201085650707 9.083962733824208 0.16718572595229914 1.6463408604194418 -0.9733988309272333
Ni 6.754668476889153 2.441427900464257 9.467568799915716 -0.2656877733849553 0.9151358335202819 -0.36179123867844787
Ni 2.4988957517029133 0.8468903801222003 0.7393481969126354 0.010333777825840267 0.8033987754545905 0.19049303321967193
Ni 4.603022892333337 6.286570775740271 11.631433412909491 0.08061642540148696 -0.4417967699688133 -1.5552623591443666
Ni 6.0025604215252795 8.08105408445733 12.452335045962526 2.045437777526884 -0.05009074600880406 -0.7853406324012991
Ni 2.3076190954545672 7.3898080548982135 13.694250465180755 0.5598821388500357 1.7775725368746353 0.62017450798219
Ni 9.093599765181526 8.910976389145654 8.609068291353267 -0.25438263278478124 -0.5375353957237193 -0.4175664366665389
Ni 0.5070598412779741 5.392392270681093 2.9206629700245363 0.1700756459055845 0.31925645064003083 -1.121212323000508
Ni 2.5849623210575783 6.810122202561112 4.541094125950663 -0.5764469851872525 0.8825617562390026 0.40598773069000405
Ni 4.478631989279032 6.754593879645941 3.298701284375885 1.5113751708431131 1.3105601868721428 -2.7800490018941155
Ni 9.37081244560892 2.059042431764789 7.994436427968445 -1.0087131899578112 -0.6432175058445826 -0.7850760658860026
Ni 2.1762813241262404 7.87344063194578 8.833966857582341 -1.4069590719188672 -2.078083074365731 -1.5950810338032013
Ni 2.9074368788032303 9.549566089653222 3.6294775828253787 1.466186747231933 -2.780558337430366 -0.2899183637975458
Ni 3.7916473272383424 0.012161215574469527 6.379873277686401 -1.0447569709552458 1.4394017658286047 -1.2018562592058204
Ni 6.427456994199603 9.265434514918013 10.005760868182252 0.3222751828616966 -0.6966103196434261 1.0699751220920863
Ni 0.8239321460584819 3.084959668334553 3.1885649820336583 0.5228687948504801 0.9184317306627344 -1.4820411977656864
Ni 8.636896792933124 1.3542756518736823 10.287065207399765 -0.4105342124101059 -1.3224764786937546 0.8776864304245723
Ni 6.993109240157639 2.6019518431988784 6.947666464524592 0.9375070021266305 -0.15020898888864453 -0.15201673152134465
Ni 6.135138372021988 1.9440880799766733 2.310657068184334 -0.5700868472971795 2.0976270579359295 -1.297454245617804
Ni 2.182277077549323 2.342577228554311 6.835552402771734 0.08138261414355015 1.8926299175628114 -1.253125084683126
Ni 7.092705884499694 3.1231627815139746 -0.08893017102842611 -0.23969751996878075 -1.07895649965509 -0.6981105583380365
Ni 2.922999728668121 2.4521326048650325 12.095559743322925 -1.0542253154569972 0.010330435391730597 1.9546503251296659
Ni 0.8453135808938282 2.9858945293503756 10.231615211589967 0.3687067348513585 0.46956057034564297 -0.03669812675198196
P 7.270331245240432 0.21381434835346286 2.5080012777023533 1.7598509512251561 -1.9216702706592195 0.45099900529337167
P 9.006759249428548 4.072608519137086 1.0785679708280718 0.4401638623510806 0.15605182082266672 -0.6198477207703906
P 4.652919123386079 8.09694329726127 4.8713519735598405 -0.8479194835747849 -0.9034072322294441 1.0736980794696283
P 4.0393101746987865 2.3142489254449425 4.951682014911582 -2.3703321431789823 -2.0632822619074727 0.8155971172929954
P 0.5028889229169403 8.269943628922926 10.54063708898806 0.6832290132405137 -0.4256733820443895 0.17393075798561658
P 0.6775704899474648 1.8093934327038528 13.136664978610444 0.7864816879842778 -0.9885508560773233 0.14986214707218706
P 7.308674228250874 0.7756742569597608 8.07419207054746 1.3451556654588253 -0.6516504671032841 0.05849773912557667
P 7.57925707868789 6.350826976111127 5.838473527961794 -0.07627717459618476 0.6160990523612357 0.8073490183515902
Ni 0.319006718401882 8.655928414607324 0.6614649451382149 0.013577481574118552 -0.2974118439611136 -0.4517433396585639
Ni 7.790078212657512 8.583970048874935 5.082753101095428 -0.779016232845168 -0.26197252931689724 0.07632371156340403
Ni 3.685542073426129 2.3105936605276045 2.7922941689760075 -0.33371427793657366 0.5837908271468333 -0.6870550718548232
Ni 3.5684896741727044 8.84640315049115 10.084139259158485 3.114296783736656 0.4086583355436317 1.5387425071124725
Ni 0.2608684244398669 6.330088942498475 8.67805675434032 -1.348710472689619 1.9257135874906575 0.2513119642792575
Ni 8.479375389237743 9.021762619969355 12.09253016278302 -0.3378869212570245 0.30337397508181946 0.08822329121446743
Ni 5.168069035690283 3.919777417108597 11.720196672606232 0.0696046476720156 -1.158242636280928 0.6894454264638707
Ni 5.250461690816808 0.5328816770154537 8.042215962245075 -1.6732793366814989 0.20577772729288432 1.4078574153634205
Ni 2.178920201604829 0.2877476760998622 11.983035396732408 -1.4923942588652361 -1.171401285150073 -0.302481288064221
Ni 0.569506126035423 4.377384880930934 7.515215345391266 -0.15954929245296393 -0.6463570799148288 -0.5421664667378274
Ni 5.619988459717783 4.9009736063733795 9.381411781403658 -0.670633178853374 -1.6138120345538012 -0.2026440667599091
Ni 8.468642710870764 7.396960065591066 3.1155501328442945 0.6644033958935783 0.9028007089936969 -0.6665440963856649
Ni 8.07765058523583 3.883504507597259 11.354947123137864 -0.7049525209605343 -0.3269761878817917 -0.6646170545662812
Ni 2.921731575533534 4.042359337015035 10.672022416058933 2.1643749528854404 0.8413071204645899 0.7661864280703514
Ni 0.7795924771594174 8.363516545875694 4.783325361639808 0.8757596457155048 0.11850291603461527 0.1365698008386551
Ni 7.993495570238446 3.7260856751112947 2.960581819797811 -1.6258311705018644 0.024304123963003302 -0.571563431842706
Ni 4.74310719042815 7.346858692119493 6.900882803444827 0.3151403715891282 -1.6809720773400663 0.9433189808227175
Ni 2.193233547645935 3.7645312293311526 0.802451869875881 -0.06135449184808143 -0.4861999786745369 1.0188590201425614
Ni -0.02655568611756768 6.118148849880688 11.301107495315883 -0.12609332678736349 0.004869669387475485 0.11359313743782372
Ni 0.856688728017962 3.95534165280943 12.556752537147092 -0.3231861247117402 -0.10430785548115586 -0.619768787903339
Ni 4.806831885441127 1.261607226494846 12.421764163229128 0.8618828877334125 -1.3795122885618243 1.4107463068754413
Ni 7.10919187524932 6.276472173940585 10.339539705670987 0.533939450842345 1.649903895180352 -0.9345432915126163
Ni 6.708781847658999 0.3338068114549398 0.382254923523849 0.22273132442808738 0.2986994524242856 0.04402165699658871
Ni 4.464449188413545 6.853108863961437 0.25716653624552216 1.2967788168173344 -1.1750728204643892 1.1034583414511965
P 1.446785558110695 7.202457078573845 6.796083001388806 -0.3479160233582524 0.3864074945652313 -0.3345920525558366
P 5.42873045278024 4.5832079996054205 2.9980725293045674 -0.5075442486782679 0.04617032790847533 -0.8627565485876173
P 6.775555704988226 1.6594529738497892 11.660884404529185 0.9615193058808279 0.2634905086233204 -0.16088575187620036
P 1.5911591976901396 4.920182396500207 9.4735738779942 -1.1331849219813517 1.0143151095256209 -0.7121148430369285
P 8.336782758839961 3.917502201190662 9.149389178447935 -0.04691800470777726 0.14957958283476175 -0.4625975087642485
P 5.2544246693623915 7.275711571407024 9.5049765199894 -0.006061632813047626 0.3923886518493307 -0.3122609931588042
P 1.2213713384379252 4.026899058359559 5.36783765561266 -0.17359085814769457 -1.6298444054263155 -0.6244019157999763
P 1.5558747016513477 7.330242156194248 2.6003685167117254 -0.3750450183645605 0.8531197968288017 -0.3360501251586019
Ni 5.8670172306109345 2.983703235331053 4.475313344421684 1.5220632466845787 1.0505519803704682 0.22581690533194657
Ni 7.236156383194404 7.74595394329822 7.5795228313668295 -1.0206819322839131 0.3659988490018922 0.025992310298703625
Ni 5.363663007389465 0.11320970876251885 3.530572827914105 0.9116944119389009 0.8012539611974459 -0.48684481134738733
Ni 4.456364712180556 5.3188673628412735 4.93073231162132 1.0239593174836044 -1.6054536352867768 0.9193449865056232
Ni 5.85822408056744 0.4402691995690258 5.8461169479942985 2.2940295146615006 1.2226605975456815 -0.6471011571697048
Ni 4.766679919282819 2.9059915572160175 7.005682605500849 -0.17665921266037318 -0.11038517202348731 -1.222149719347534
Ni 0.6261543400642988 6.008528200982157 0.14374049547769147 -1.6395441492125826 -0.9168764703604726 0.6892335675633807
Ni 1.6569166675806157 1.681552407151041 4.506211522559671 -0.3252988001793688 -0.029710125469923028 2.935295296096351
Ni 1.806017907448556 0.08883412707779198 6.954681402783044 -3.715828222696362 -0.8164013583618455 0.6327191774164199
Ni 8.084942465759703 1.908775609971677 4.421268574180871 -0.940846865133141 -0.7688233514725663 -1.3909346714661528
Ni 2.1906599427551563 6.854069303467779 11.294201655525626 0.4574416755949219 0.36136263578146155 -0.39945532888812496
Ni 2.673043015978939 5.365490639848134 6.452150546633517 -1.6414475368828827 0.05915825552771102 0.728683546028887
Ni 4.16961290927756 8.624075391756236 1.7971268485233478 -0.8272634978873301 0.285323802448328 -1.4949257670378384
Ni 0.27637252897572834 5.93467693020329 5.190009017384171 0.3948841645776748 1.5532052195050219 0.718626161792885
Ni 7.066904563004098 5.579351611478604 3.9282087705225175 -0.22853636114563866 1.0934256398055426 -0.2918909141428844
Ni 6.329221749546147 7.30320998018567 1.920118120801906 0.7451550613213489 1.0328977576238147 -0.8317824688036063
Ni 1.6331201469963141 0.7234673762985585 9.395919080277112 0.9505029001656663 1.8036676912997904 0.5147996446891004
Ni 4.604570785129964 1.9082907278908057 10.260820964772604 -1.2294930470864824 0.2896993058082043 -1.08955330133433
Ni 0.7279926315648444 0.40143200982231086 2.613483644533755 0.21123952173840393 -0.45837832847657833 1.1348895633772842
Ni 8.516375621870388 1.7634601801966938 1.505887088975672 0.6674524671325472 0.5452564185170609 -0.7875525524509532
Ni 7.220891922302357 5.298138653884023 7.7598206383456 0.5538577870328267 -0.661405489607519 -0.6471908886700338
Ni 8.24360147741405 4.008911798090312 5.494322876270111 0.09943844320399649 0.4928989879612672 0.1735558911447011
Ni 3.0379913790778414 4.99652335027124 2.9447103238391352 -0.6828032385570046 -1.2160369215815767 -0.49116092222423796
Ni 6.896944069003288 5.070719633299958 1.0459661781482543 0.4507313534542818 1.7810934055437002 0.3004110357987536
P 3.4555867465728913 2.0661384945252332 8.414481382437435 -0.04880005222183854 -1.7099694930136808 2.5228011317463968
P 6.709649040611327 5.3891939138784215 12.159758130830292 -0.2881283617766586 -0.21705278598607133 2.0376072257388715
P 4.649776714515816 5.031472158715583 7.023397585832376 1.7619363729992754 0.5917447918865875 2.314336601649969
P 7.848692996510538 7.6034638841098525 0.054360876058919226 -0.3645765147330689 -0.7602870318667809 0.7033625507655951
P 3.9875210385995654 8.449023635906277 12.38820472843959 -2.0254016848116154 0.014477367680568615 0.027384562660539936
P 4.409788058450702 2.30668662991443 0.624640016027116 -0.40592088200781057 -1.0481911934477754 0.3956660370490218
P 3.0486681095124126 5.07174534539411 12.9087097903408 -0.15187917750221583 0.38474604770240833 -0.35536708031965897
P 9.188105147674433 0.8489809678631879 5.715932636539121 1.8760565865851624 -0.6477657873368973 1.6956044825412604
