# total energy = -340884.959335238 ev
CRYSTAL
PRIMVEC
9.14876871312046 0.00000000000000 0.00000000000000
0.00000000000000 9.14876871312046 0.00000000000000
0.00000000000000 0.00000000000000 13.39014778336932
PRIMCOORD
 96 1
Ni 6.716028645720141 2.092259323538466 11.493473492562408 0.8804174562024902 0.4994704705311978 -0.9365168702992193
Ni 5.014037490527465 0.7027004437136563 5.809676614323581 -0.5306124433516409 -0.8515604227614818 0.33626481227256927
Ni 3.1168756560877373 1.6938670487298535 4.449345305350998 -1.3288664413804985 0.093485053834039 0.8356838607405414
Ni 3.316803694975181 5.029096363543012 4.859994185371596 1.1590918716551004 -1.5609403833657505 -0.5683546950974212
Ni 4.184491200771315 3.3202253344088466 2.427352183701111 -1.006017645403519 -0.5492549981534928 0.7814562097452283
Ni 5.666253199688031 5.109751906984721 2.47436496059357 -1.0611582951314047 -0.2508280826643035 -0.3110512891214191
Ni 5.83434352405901 2.880352543043438 0.5635495039859193 -1.118183306366197 1.2931394202925341 -1.3863033433417287
Ni 5.999780705553616 8.216545620142245 12.51362888557196 -1.8900636994975322 -0.7476369472029382 0.7067468938567958
Ni 2.0578782513680998 6.842885470284882 0.2569651214683191 0.8954177862660644 0.30618393372678876 -0.5000368845576292
Ni 0.3877577462586303 9.28279799831348 0.3059732447791807 1.2691605408794335 -0.13235601986762366 -0.07415164361274972
Ni 8.091939392638151 0.033403983690378135 6.843677753640378 -0.4844557422899205 0.4855888274530993 -0.25093761165897427
Ni 9.068542987893627 2.742691022833885 1.042254243416022 0.2101743136986832 -0.16960487691675308 0.3685028463706686
Ni 7.152360863660874 0.7730810052089756 4.64861737753418 -1.1832149899555495 1.7504036897693274 0.2111832145791718
Ni 0.7109471436749039 7.985347090387768 2.3289480292933256 0.3540095378505 -1.358323570299351 0.6321504493971436
Ni 8.16574250844399 4.277085887156699 3.6961765948676213 -0.6147476805396639 -0.6570970920401522 0.36817580204855305
Ni 7.93632798855466 3.9790921982974212 12.619424330082575 0.7326556433027576 0.2860645372690944 0.0261000395211615
Ni 8.404616855002867 7.095446374578423 9.439143133633817 0.3155869722082436 0.648365111483793 -0.049860889386185096
Ni 7.2429702672732486 0.8695657479772343 0.2055398935093973 -0.44720277147573306 0.030632637284192406 0.7240630165377401
Ni 1.8794406697792703 6.750345676510732 9.080997206506058 0.7348495656302828 0.5492951073628088 0.3002403145488442
Ni 9.432746314671197 5.605358996291022 1.1825002907379027 -0.7648643668248182 -1.788614139400778 0.8140223166067079
Ni 6.6467907654153695 2.2833770983226462 6.8120504608003145 0.18124143271441687 -0.2681953702981575 0.7666350855719959
Ni 3.7101275520130685 4.668149998365402 0.3956494740005562 -0.39772806178437303 -0.7676673834912521 0.14630348318665123
Ni 6.105412387107381 5.836337955600558 4.5601890403415535 -0.3322392360529439 1.060834593243399 1.7881983920195976
Ni 5.602220968682071 3.2994576298248313 8.847941476738121 0.9508991071628203 -1.0755641861440894 1.073565410546506
P 0.6423588259364166 5.662063063697071 12.434224893666414 -0.8314574813640196 0.9658927523581754 -1.0294918172660592
P 4.46982299397232 6.1372683991609245 12.495404538641845 0.020617419140035457 1.1802219687654962 -0.06710604961987798
P 2.405924852905418 8.800886615510382 1.2357461236361285 1.4462519559812188 -0.25147471510936686 -1.1919145746120763
P 6.271425941019959 7.837923834146874 5.602437794496452 0.29086427265058296 0.7271087453425994 0.41890726696514946
P 5.0907133196546175 1.228478341908577 12.630992947900411 -0.38044459211357706 -1.0717196155870188 0.669371281421815
P 4.225514278901151 6.488892169197075 8.27373182765031 -0.4388695690196893 0.5485392030333908 -1.4732017450971853
P 5.0065812441680055 1.6101009239848103 3.631769264351555 1.5826353518406808 -1.091320420537082 -0.950656395024395
P 0.4840183441976782 6.077783106118955 3.4741405568051675 1.7208267474431589 -0.5051438667668914 1.5282040694749939
Ni 0.9576016029995288 0.42594470614130947 4.273867350384604 -1.1115300627157372 -0.7986584325561278 1.503164867118179
Ni 1.8948380472307673 6.83987552543548 5.072482568586526 -1.020529722976765 -0.32446679119637667 -1.8732571694631546
Ni 6.270410427712105 5.877324438656237 8.869995498178751 -0.07896834827510271 0.08419360122978403 0.863251743056481
Ni 0.34658005394048197 2.4609363981317114 10.322303951660322 -0.639997199135072 0.6240368191510737 -0.48568215849785384
Ni 2.732892691728387 5.344802068294208 7.129463325760929 -1.0051249583859205 -0.0485560545318325 0.3474797071517822
Ni 0.5887159364835891 0.21498233751872003 9.310638615855162 2.1780097700600556 -1.119059024102931 0.1479163361997259
Ni 1.8741984254063007 1.1383355254917011 11.57202024485583 -0.7375196562632782 -0.12317101093424594 0.5545684399466062
Ni 4.23785596766055 7.4224691060126275 1.4665558307276887 0.8993819131201349 -0.6697788012728788 -1.5581846749974841
Ni 5.816393640185072 8.26048715543609 7.796199045470082 0.14636133300778018 -0.07225931168604328 0.1942663842191751
Ni 5.527951265680733 3.3296119709300807 4.868497050851941 -0.524887882163038 0.10037098232059488 -0.4449525419889756
Ni 0.8901495623136119 7.9240594899435735 6.9502362054471645 -0.25919548079239235 -0.5155007845211832 0.952407830497863
Ni 5.152385168377458 4.872441999846051 6.934329241588033 0.7834123050303347 0.14841127355827344 -0.5612355675541366
Ni 0.8711064005992379 7.6752587295196495 11.467724283508792 0.42593871989063414 -0.10420346869280764 -0.6985229632851067
Ni 5.1020852389488605 0.5413500171255166 10.37485996741069 0.5255949355323917 -0.7024109854856032 -0.09958602452545431
Ni 8.273899250114578 8.003242081650471 4.7568765854124075 1.4589172101537131 -1.6224961925913606 -0.8530478059402856
Ni 7.969199513916055 6.588293539375635 6.630398916823659 -1.8789346794639061 -0.10785777761594327 0.3264113165172572
Ni 2.6236106515274757 5.80535107655824 2.426268054629214 -2.033342794035563 -1.3773921568950278 0.011554023386186553
Ni 2.6221925924038976 5.571975139891431 11.286689366531679 -0.674619931415264 0.7240457901465595 1.264574721280964
Ni 1.3391784412330663 3.637358247052161 3.767117060997541 0.933380895773399 -0.2445543338404498 -0.30895224050054537
Ni 1.6972795393949802 1.2785587008922341 2.3399814441516176 0.5225453500727903 1.7957954876405653 -0.8753235866193505
Ni 1.0662981220139303 3.634952120926348 7.759041322048064 0.3715082088558957 -0.7471674637656874 0.3113441377714896
Ni 3.7957325792344943 2.9594527958334824 7.2812011412449165 0.02381612858299124 -0.7934228951888013 -0.06792211776327012
Ni 4.0958304848577916 7.137375180793641 6.001129234036297 1.1098804429274562 0.1292084753775775 -0.7911819216734245
Ni 8.324363857376882 7.331557793038459 13.084102177588354 -0.5040920284636093 -1.054944710121525 0.76342043528944
P 0.20736781746353225 5.709691552712219 7.931774646452693 2.279688672558797 1.1451909453032922 -0.09821511231985665
P 8.970980520191448 1.783460939034376 7.882471932794869 -0.5085330949540984 0.4568585493979422 0.03174978160777113
P 2.496278090998695 3.633332788894907 10.098594603832046 -3.542984270017021 -2.4927583055274036 0.6266629439200111
P 4.141107740358362 6.605612158220367 3.580418141417801 1.572834563700175 -1.4966967428953322 0.8858334850117389
P 7.371354936184039 4.014186874413846 10.445064872550056 -0.400103246884769 0.3975550265416185 -1.1279378146497994
P 6.426726286973116 7.7549902473389 10.110123881945164 1.5081381519630541 1.2985554491017828 -0.16297940118043544
P 2.377929621175423 8.7732207394478 5.62067494970252 1.4836828471341672 1.7576158912470503 0.7859332716799754
P 7.418031953271108 4.220244588222563 1.5857286045963441 0.06014093115595449 0.8171022410836121 -1.0842411450927971
Ni 3.2659090955915335 2.048345234550239 0.5724329582374961 -0.3013692859469649 -0.564197478395938 -1.0435243840997255
Ni 1.8780775032669272 1.275567053579911 7.325910258219202 -0.7076341815577555 0.28803348807000717 -2.0560685177678524
Ni 7.600385207794722 0.6650843669878241 9.106197489447323 -2.8331654221031206 0.49666873941634465 0.3713575422106443
Ni 3.0462837580391624 1.2894182891482813 9.31152238689605 -0.2530672564074674 0.9047830295310482 0.6380483029388172
Ni 6.930759392104032 2.3120859339987 2.4883049392167704 -0.4345894535870967 -0.21670157329423967 1.4018469475032826
Ni 4.461598251055567 7.096681458331218 10.490805970615567 -0.9896823985786053 0.2967032479298632 0.05876204853055686
Ni 6.834386264311952 6.030785882133012 11.479173052458762 1.3617356813046935 0.8259146971689195 -1.506901965563108
Ni 7.8032865964574105 4.23855127406953 7.93168041413674 -0.4398026223569199 -0.717780525963138 0.5492303155631445
Ni 3.361952867716202 8.610308618070016 12.424597644532598 0.934252756855391 -0.19260673712856508 0.7893911483215889
Ni 0.48061134279367485 4.956427695036035 9.947500861653218 -0.4843737240990755 -0.7038307486512653 1.3126270967035005
Ni 8.708026614837362 2.4270676569995415 5.49527643884293 0.6552137589745104 0.6452648752919146 0.241545628921113
Ni 3.8499207352922586 2.665008829167419 11.558188221701393 -1.0007054891619862 -0.5035729227353456 -0.22550014542247618
Ni 1.4742600087145608 3.704656588426619 12.408970632990766 0.12021372807813491 -1.3126075563194748 0.27406005660905064
Ni 3.168502156954522 8.468191647581866 7.715965260258029 0.7352964233597143 0.16778993519520136 1.0291277490584212
Ni 5.705336738887553 8.236233770038634 3.4352427376069916 1.1687875016763096 -0.19132144265823825 0.11946168040345877
Ni 3.3837726806822275 8.51399038288917 3.391081631868205 -2.2093759430761626 2.1428638182865414 0.709400786539875
Ni 3.9739231440727654 4.811602689060277 9.592313646271045 1.8055343121948841 1.0426280975377011 -2.089911948679859
Ni 5.372211778837693 4.296151920792421 11.392484811042296 0.34822661262013577 0.007292419896355182 0.8221174349100164
Ni 7.94657460931858 0.14552122726159172 2.5669980718068195 0.5328387615789986 -0.4513538175296291 -0.5054138325988263
Ni 5.083266222063697 0.6233678122027161 1.5920751053319968 0.27252305113923386 0.30006882196798645 -0.26919450098663317
Ni 6.246559588130375 5.625669262448077 0.2568836974283201 0.1292311010853968 0.7525104732451556 0.6996064261572725
Ni 7.846724949481598 -0.20317768147257226 11.380366352235253 1.3034266611511551 0.6067358659787809 -0.7955065171907074
Ni 0.39756888564008336 5.051483400158468 5.629968268784654 0.018501915458929426 -0.6748063363944572 0.45214443175172453
Ni 7.719858976148317 6.39490686999373 2.8315072678125746 -1.3945689257846305 1.627572064452371 -1.6736169225265756
P 8.981282033566604 2.002775218456414 3.235662351924038 -0.8335035652597711 0.37890552976123126 1.2772222348416453
P 1.9062191152935495 3.611979563124381 1.5519184155828247 1.749821334903296 0.2674469221679071 -0.6126056944959966
P 4.862634519972012 1.0813935901036333 8.074661028374992 0.30684753545271676 1.2894650567647405 0.03304510338042696
P 8.885842080165524 1.6957974388916277 12.411568883255903 0.31648994363848715 1.0064431629767119 -1.3779482865088142
P 6.880011173017012 7.9221199510132605 1.31618026687919 -1.0884122457513514 -0.27342576545916136 -0.5504698443972004
P 2.2032064396135143 3.208948862666387 5.83676520309134 -0.42573663118215715 0.8677640291045378 0.18685723623929756
P 7.163943204631519 4.429879470530112 5.847731831939296 0.4555071775763703 -0.7952455502198368 -0.13434168283908476
P 2.582496085712248 8.535727856938344 10.341157733865934 -0.11590430206950361 0.2910866730740342 -0.310357091267872
