# total energy = -340897.6982845935 ev
CRYSTAL
PRIMVEC
8.99378542088378 0.00000000000000 0.00000000000000

0.00000000000000 8.99378542088378 0.00000000000000

0.00000000000000 0.00000000000000 13.16331406923139

PRIMCOORD
 96 1
Ni 6.187796192058367 2.07172742269979 11.291135251141379 0.8570641261885305 -0.2622088136974194 1.0914716014029655
Ni 4.531986367557638 0.34376945304276546 6.018187792579999 -0.07178417182183766 -0.13965306774966915 0.3745878762224839
Ni 2.8215932604648426 1.754228816328869 4.800384302815835 0.11685149647412134 -1.4693726011590822 -0.38907835652917505
Ni 3.5560977130482763 4.316369360330387 4.682388538666364 -0.8791103073552924 0.16913822169297968 0.4925572883511323
Ni 5.075813579370863 4.575147542901076 2.523117409244767 -0.34852511769716105 -0.1392504329946118 0.43136297622999903
Ni 7.1791991260983465 6.07149755518277 2.654303458820093 0.6229672402359787 -0.4662785571602615 0.05477606729961534
Ni 4.942004042642447 4.716979536059238 11.390873631263513 0.06117374329584304 -0.6942968410189011 0.7567203975614452
Ni 5.4683383421733245 7.864021909042866 12.430696406873917 0.1296126527945316 0.33326639176587763 -0.028511220065815412
Ni 1.8721733159024982 6.579583464471548 0.335879205255977 -0.06336098075514894 -0.06277656900658866 0.1332726181446221
Ni 2.6666932973600224 1.6924415117634557 0.3097684479613178 0.386500825609986 -0.707183210063266 0.8584640918598506
Ni 0.5978187033368189 -0.023412621724117077 4.503669434744799 0.5840746769358393 0.11364635927326235 0.9603743936431074
Ni 8.525244999530376 2.2138022480593005 1.244515031912531 0.6381125805178495 1.0506633091373516 0.24039480314612144
Ni 6.81962759239744 0.6938372538856997 4.808637899526123 -0.018730229419651617 -0.25262708354625524 0.09951351941630604
Ni 0.9417032768305942 7.551964542739205 2.502820234726103 -0.6302192938127017 -0.3712127891026639 -0.17289871717667643
Ni 7.7008746448774215 3.899489427111166 3.7402895352854246 -0.0525795738689288 -0.16325528054964142 -0.7755748112637868
Ni 7.573486670806895 3.9386933369511423 12.602727732094632 0.556279766210758 -1.0617445066521778 -0.7149281441160075
Ni 8.068909330484596 8.631254746096975 6.88738766973751 -0.6390569467089897 0.8003867281011441 0.44067628321112495
Ni 6.987235774039514 0.494573646351503 0.31165354534660317 -0.9669235076155348 0.5757587008709761 0.8640379864032023
Ni 1.8425028184117704 6.378716265029925 9.122255161574556 0.30792457056697936 -0.20751913546402326 -0.5193445837473056
Ni 0.1406133352588001 4.868371922922353 1.2744247640905135 -0.673424368445266 -0.48200419542563444 1.2243125313268077
Ni 6.4183159014202475 1.9309746837698452 6.889375296274475 -0.08986416925200008 0.32339284140590757 0.33613188623913076
Ni 3.437379747944425 4.448874798199707 0.46382659276812904 -0.10594899062900463 -0.4821970281627309 0.3182362369056326
Ni 5.8692363190297 5.48283632397237 4.730605120690475 0.48188772445242817 1.103527247015919 0.06536978365506162
Ni 5.389202025889325 2.8713828555265795 9.20596122013653 -0.8985352488491235 0.42259037224369156 -0.6902689508064305
P 0.23724166444662337 5.553419550497751 12.374502337346236 -0.21462000817486263 0.11709420861254673 -0.2826017755314746
P 3.9293937630180067 6.332362295928012 12.620761170869612 -0.4748079347875112 -0.9701651544812838 -0.8474705689628245
P 2.5115145269129124 8.602699477975404 1.3561243091665274 -0.4343691100461745 0.10280427435243585 -0.47895486707634927
P 6.29857264479959 7.752858723536533 5.810286553705974 0.058572558227570085 -0.79862706509756 0.24872029229268133
P 4.59809068903592 1.043413994054795 12.49058962026881 0.5159247594324792 0.08639343709458024 0.4829673306698521
P 3.9231520760648197 6.0384004255174535 8.11220811074213 -0.45534082720183516 0.15455132501774027 -0.3338011812234251
P 4.774027115805732 0.812336670008337 3.8315377821455874 -0.21448862480332093 1.9991766896768148 -1.0079045780135867
P 0.2206535269589307 5.736425092462384 3.5359822129913616 0.08969216245051004 -0.9731334930809886 -0.25403116298263345
Ni 1.4976810924964938 1.2144038389452816 2.5594747860578217 -0.17618510123743206 0.19188425714024374 -0.08826031509998992
Ni 1.9340415645350282 6.333801301565635 4.758985909378484 0.22689548310810603 0.491722708264979 -0.22874410628107059
Ni 5.7379270545966525 5.543472424027685 9.3341847168554 1.170831271579216 0.2706705713115274 -1.8123127685692981
Ni 8.426007573245839 2.273332112530694 10.15803702947881 0.3563782951929927 0.6938067887563599 0.019191228216470176
Ni 2.2730353176179343 4.991200047878665 6.981163170248747 0.3063250872903434 0.3553858493727364 0.08184104183720745
Ni 0.26493262980709664 0.05407693248332773 9.090426155627394 0.7422929092822054 0.00011364275972883654 0.11400451394362947
Ni 1.391248638023844 1.0501503391959153 11.285382826104982 -0.0580447107485581 0.3320050085549508 0.3350743915088939
Ni 4.0978113853312435 6.803492741685599 1.6750709149603058 0.38976664084545126 0.8203243475653357 -1.0377617705843352
Ni 5.620036517734435 7.915619254936866 7.985537840733369 -0.34374800802349187 -0.15974649606543456 -0.30628883473576923
Ni 5.2548618558320355 2.750083674060243 4.726143303835322 0.5549972999539087 0.04294076522758411 0.1955755899489019
Ni 0.9329882989377433 7.198059093736436 6.784687636137443 -0.1672201787346604 -0.1849430499357202 1.100060628623557
Ni 5.192903669347154 4.5859670665389505 6.961352559511304 -0.3528569123032956 -0.12622265327637616 0.33488310143369426
Ni 8.211451832676333 6.9605242318911476 9.158072911273502 -1.1043420296077302 0.39352379389503844 0.5576941300597815
Ni 4.626295199533319 0.3856526115042901 10.382800716290202 -0.5432242185783805 -0.6458256328913909 -0.3548376901787502
Ni 8.266529773456332 7.060993806752899 4.991686611659885 -0.8442908856832622 0.14796055917410003 -0.8185978517925322
Ni 7.238926853844913 6.083252432485097 7.059498140268295 -0.378952838059399 0.20095588042420875 -0.6056850561167633
Ni 2.2543642194697826 5.284514365752293 2.503070261955639 0.17775527393802934 -0.1773896630684945 0.4866928591505553
Ni 2.456913256750376 5.04126845028269 11.395507229416657 -1.166002739842321 1.4255718019240482 0.8985840998091879
Ni 1.1370482921378404 3.330218796867729 3.7686037699626933 -0.27887933237456486 0.6656555231331246 -0.15980614565877638
Ni 3.7605714203691893 2.64728470882259 2.666729272500963 -0.496469478921345 -0.5299005048862809 -0.46370231179265303
Ni 1.039105970927163 3.2206115362070746 8.331943372228555 -0.280515068205775 -0.03469498027902412 -0.9570702689705388
Ni 3.643490324178134 2.7961228606789255 7.012321239817367 -0.3347288352440171 -0.5353522720294716 0.23035284552908714
Ni 4.081955341961691 6.849864698357981 5.907576825487103 0.31269268137958406 0.23246217856260612 0.6207512064212664
Ni 0.7905564203043979 7.207025897615871 11.099990333538942 -0.5993647703256904 0.35832693427893125 1.0517164329922146
P 0.18475933008548598 5.40425762237295 8.040046474907983 0.28861430027414164 -0.10978867609006897 -0.9995533778354139
P 8.391894145848953 1.6465372319232998 7.873543629471309 0.05229546696960671 0.11687952149857936 0.040078098967808395
P 1.604023609116792 3.1442093306345584 10.477155416570582 0.982107928665457 -0.4590671270134868 -0.8792468329331568
P 4.031743038993903 6.224256997401626 3.7069738566388946 -0.9600172674140047 -0.7808761688720423 0.8610948446144783
P 6.850152499485507 4.0174249328995595 10.403283162784708 0.5079777366712607 -0.038333348362559784 0.5158131735552793
P 6.053851748551424 7.644159835184627 10.157326520445237 2.1146670441373514 0.20522288323067883 0.5586225554113218
P 2.3784244930033074 8.482083824186939 5.813458661758408 0.7317115342219334 -0.7280109454418946 -0.9708079302716056
P 6.874822452385496 3.8899470209766815 1.5504934987757606 0.8806889646963221 -0.10539080413268946 0.3726328093786421
Ni 5.266958496973299 2.904578916829482 0.3720180330878175 -0.21764748214727678 -0.5050626199069947 0.07671683323676465
Ni 1.5137799680673947 0.98729277418752 6.971395919483385 -0.8494240931447694 1.4782220811299123 0.3537822523310423
Ni 6.839386938559044 0.6969625942549109 9.22003289651543 -0.6771326705347886 -0.3536267005897845 -0.45848682902998456
Ni 2.7766962845710226 1.587349131290842 9.275568620963897 -0.3953233089976224 0.07296816482760982 -0.4370402291204344
Ni 6.472728302092846 1.9186352104272326 2.475532190944164 -0.6483072616626642 0.026202112316664552 0.6935342518212636
Ni 4.041222488631741 6.797260048517646 10.252233439139053 -1.3202367907299586 1.2510226936281421 0.8256352182552877
Ni 8.20999483946824 7.0861314364851165 0.5431436841353544 -0.15641434636840804 0.08220408160358102 -0.568206342445015
Ni 7.416095429191941 3.939080069716253 8.203101103085505 0.73518380904125 -0.5525763492172419 -0.19429518057458153
Ni 2.965565774508968 8.385841328385702 12.290546251554725 0.3398867252958727 0.08839015580963487 -0.5880873976396581
Ni 0.09700067189655805 4.729220077764263 10.137107591858117 -0.5064065355293988 0.3358608919659312 1.1003478208466728
Ni 8.633737030821873 2.3404797130962507 5.573873216879507 0.03562340563056445 -0.01546210019134111 1.515232082695358
Ni 3.542741941974093 2.7211956358849725 11.460613240733837 0.4431954500885528 -0.10897852148394782 -0.26371856547372646
Ni 1.1389729621781604 3.438360070535055 12.62190697910857 -0.8569543400835435 -0.34793427819069755 -0.05466859518747359
Ni 3.1288479454529385 8.32216532892091 8.113787419429421 0.577607838264573 -0.2512104057043867 -1.1127654777847353
Ni 5.656101596527346 7.86556884010331 3.5665862653894966 -0.7466658415389206 -0.7260633347972205 0.6083669738243006
Ni 3.012486352080695 8.372080836975938 3.488528303955191 0.9034943926266117 0.014643460944787683 1.0954167020936425
Ni 3.362083777955831 4.308562754746284 9.464936366603869 0.2757896377056476 -0.674710177136225 -1.87579510539366
Ni 7.131810871694393 6.084547537558958 11.46274566721309 0.6273959654312937 0.3281568384534542 -0.6117397469512754
Ni 0.5463014021314121 9.08983886145154 13.560055912014235 0.5035698374115521 -0.4361179744164812 -0.26641231025580564
Ni 4.683828443682511 0.31676291473868634 1.557338668718226 -0.18237040411253755 0.04393115416531144 -0.34213875455484305
Ni 5.935907248977794 5.448623964937897 0.38035527200079244 -0.40270880282841615 1.5588685884383862 0.10960227111087577
Ni 7.795884992101444 8.724619230622965 11.390413149459473 0.020787883279628713 -0.8658513854628572 -1.0802402514635203
Ni 0.05227008102958806 4.839888605082664 5.792911460010207 -0.06665764922854972 -0.45752935021272173 -0.12334481750794886
Ni 7.792008670665098 8.690128064246203 2.6917265991835118 0.6207080118881567 0.06429197720985058 -0.4023889575951522
P 8.442448212655675 1.6241157253320953 3.5819611412489687 0.17527673049054973 -0.02284476580865743 -1.3677464062751477
P 1.7692304501010832 3.282443809698664 1.6206540173950899 0.7444114982871051 -0.3136527313000082 -0.23735370232695252
P 4.62286856735873 1.1469054807555539 8.171837806229634 0.6508297709742017 -0.5906551583668344 -0.5202686382234718
P 8.500341208214273 1.5706206907534812 12.261837189705634 -0.7440471729691509 0.614905803384083 0.6185601123072185
P 6.295739602450521 7.631262747157437 1.4409743772104109 -0.2755651803996673 0.08259540350472871 -0.9569537979973326
P 1.7125875906901697 3.1741136665413996 5.906563225891103 0.4930208582511122 0.31616315642668774 0.779242232813045
P 6.899285548225078 3.9106597083732098 5.785276635724096 0.2789886042589195 -0.339307455753635 1.0361504602331575
P 2.164840081239197 8.443455516602011 9.98284618750499 0.733986189188723 0.22440099882102646 0.9784957858341665
