# total energy = -381163.5074424034 ev
CRYSTAL
PRIMVEC
9.33863762352256 0.00000000000000 0.00000000000000
0.00000000000000 9.33863762352256 0.00000000000000
0.00000000000000 0.00000000000000 13.66804012598057
PRIMCOORD
 96 1
Ni 5.779626606496515 4.014493411797046 4.550650728612952 0.21247365125582113 0.7593732618032599 -0.4847064248481459
Ni 5.503427069073723 1.8695298213173122 13.316498060746964 0.7248492598844614 0.15232500679038283 -0.006021523603731565
Ni 0.864981943273215 0.10629797317651685 0.011574307096355402 0.14891032468187904 -0.9523592366481146 -0.030573501911482833
Ni 0.41277990984196705 8.86687737999743 9.0835197579019 0.17372301285018465 0.23963504216196146 0.549289450935854
Ni 7.077286294152768 0.5751106408116435 12.024567627087494 -0.3828886827786954 0.1396936911796175 0.23447946610295103
Ni 8.622821432235487 6.135064481592837 1.8681747850419521 0.6248845118633495 2.362582324030235 -1.366991273276678
Ni 7.767028708086698 1.3091929047483943 3.57532718220298 0.12242050592146657 0.7223812579599429 -0.4386055167250253
Ni 2.06351199576099 3.2563081249333203 7.66166086318741 -0.8363744590496629 0.8129789629438579 -0.5965283293181598
Ni 6.0616721308826085 2.516594662691662 10.632696030676302 0.38217571587207083 -0.10589139791819183 -0.12437274455183096
Ni 4.032554336376966 2.7017985180530633 3.5149136696422714 -1.2517063499587282 -0.5211289293412379 -0.2302191481647003
Ni 0.37501352664980075 3.4069403449302644 9.615274841084416 -0.22319052345269302 0.5221961942634877 -0.3333795203049742
Ni 8.031200080639305 4.731504646709965 3.383372425921815 -0.02426710007748079 -1.797733842313859 2.3168436843425386
Ni 2.972955191322206 4.376020078427034 5.2654757885288905 -0.6066325076316973 3.1801244808647424 0.12283213953758845
Ni 5.682962371580929 1.4025325847774988 4.977312522833435 0.1275244028069352 0.5280981615702195 -1.8249921638091795
Ni 0.565425540045442 9.078108017574051 6.492496155757315 0.12868294189141063 0.7160835978766893 -0.2790066019810485
Ni 2.61857258224322 7.839720660997809 4.044386389863396 -0.40212284841795903 -0.280615084118749 0.7378526141226647
Ni 9.237808054410241 8.742533424060708 11.626539962622411 0.2814843740975797 0.28111593501456744 -0.3288533502998466
Ni 9.08286138397073 6.942417693954636 7.04309941064596 -2.111262903551809 -0.4051973735782247 0.7904131618282001
Ni 6.283231301336887 6.655917639566151 4.748892255538999 2.183233223242524 -1.2935538821221335 0.08563881831674283
Ni 5.862357594528314 3.054369431491664 2.1927503315179466 0.9427355975154215 0.6689059117496221 -0.7470497072409005
Ni 4.627920481539097 9.311994189292802 8.8861943512971 -0.392077291256499 -1.3100156272225825 4.2126142044168615
Ni 5.34395115953325 7.972282617777513 11.558364174720014 -0.16348333740004745 0.8974867529799512 0.1623970463144042
Ni 5.378261313052703 4.74858501437112 7.358899439630874 0.7109992413752465 1.0639625973494193 -1.257410599432357
Ni 5.136213172314899 6.666498315651491 0.7546674221846903 -0.5485307183929586 0.2705075633711019 -1.8712283119585837
P 3.5155673742547813 4.3803345288696 2.183154881670032 -0.21123849329713942 0.038033300623637724 0.8909700349073558
Ni 9.09023890745477 2.195028025160678 5.538344234019077 -0.28315610537304786 0.047090525729899545 0.08761316843429427
P 1.848489871431812 1.9110774187609825 5.708757555590574 0.06345174069674234 1.01802032629135 0.8097545424692892
Ni 3.9523447804219902 5.558833204302605 12.693044096112741 -0.9623166049711428 -0.37283926896249336 0.46453792032007096
P 1.1872769945152817 1.42280676640263 10.43832256732885 0.4941698842538908 -0.4371255897453891 0.3764676097437
P 1.9561363438375639 4.513335401603418 12.721596045859714 -0.0026675195298341155 -0.053793648781688 -0.5313017561091817
P 4.587418811475443 4.650856174800876 9.4404060556468 0.46585689624181065 -0.25744301687765986 1.5979161892591511
Ni 4.250564824649046 8.26908318913169 2.1559831825191886 0.7254807228208731 -0.6143864405455032 0.23963349950006474
Ni 7.838768119991008 4.099596413708525 10.869303481310558 0.1902750036715949 0.9605685119317843 -1.077890263174105
Ni 9.090220230180128 4.73872341335954 13.026598742373427 0.5129487075232908 0.28221739560886233 -1.8066774246603918
Ni 3.1650509610269264 5.4606934646902126 8.152383841706408 -0.19372799521720185 0.05094718047182839 -1.2789759843079584
Ni 1.5527725820069371 3.3056908390897894 3.8856463649438635 -0.24650451558828515 -2.8850654534065217 -2.448868546122989
Ni 1.8209502299704985 6.8180270448313065 6.2979051021602706 1.819998824359646 -0.015248441518638255 -0.5871903397466854
Ni 2.6155375251137096 8.805653273717208 11.028741102438012 -1.310542189150014 -0.08675776241253445 -0.5473109870532444
Ni 1.7954837659945737 6.967968205666455 9.141471605664643 -0.6482172730520191 0.18517984853687464 -1.1571717718142522
Ni 4.248108763033473 2.908266450595682 5.952868601312714 0.4994018220767915 -2.4259417621234864 2.183782410877775
Ni 1.9523075025357197 2.1719055591524676 1.267675190944153 -0.964068811775559 -0.1475160154375137 0.6806753935807245
Ni 5.01604358726092 2.7068787367559977 8.363500547907705 1.9095511187981824 0.16429143512363964 0.12129127741302981
Ni 0.566478004471583 4.670738133658501 5.192911774949086 -2.129554759882461 1.1410527547652025 2.3597857351217035
Ni 8.238545845090151 3.8519917837643853 1.1591116643534227 -1.8333423355460878 -1.1215352535575651 1.0765095807764944
Ni 5.4921646724639075 6.9562108612785964 9.164187840949365 -2.2078291674143333 -0.9666928796619675 3.2901129316704436
Ni 9.09391833055947 6.779906727284653 4.463161704865812 -0.023445375507133815 0.9529629316703845 -0.2296851300381012
Ni 2.401365216780795 0.07471096630003428 2.3295669714613583 -0.9974594714208629 1.3556910177725103 -0.5668745110074689
Ni 4.402784612990658 0.9033329251617116 11.101824344252897 1.4646407429010517 -0.7571184043308122 1.3577126761882294
Ni 6.257764837360961 7.412664776282356 7.345943014210926 3.0042751657001743 1.3988135599935974 -3.6469005464867124
Ni 6.080330728251107 5.76261160929661 11.548618372811223 0.0661017767250797 -0.6432213624993245 -0.4249154208324424
Ni 1.0863263250690967 4.47329132476852 1.5713321898198278 0.4889430886373128 -0.8982385435443112 -0.6470669614976597
Ni 2.335014198611031 4.27013860847506 10.278625332083855 0.9214993138444645 1.4872088580095548 0.9010392462178999
Ni 7.708886352122596 8.497487580742678 0.23540556801097146 -0.09472201156493364 -1.0329486654664082 -0.8115964807740347
Ni 6.623297779401903 2.676528165460891 6.53531847719538 -0.09677966542491075 -0.2607150027607123 -0.36044578039414693
Ni 1.829112198989552 5.677994216525854 3.455553555371436 -0.5424384894522917 0.31557977311939195 0.5892773041827013
Ni 9.248836985087015 1.7220914152843454 8.10708864910559 0.5812775738066763 -0.9471188141847816 -1.437232268981112
P 7.694831702953631 2.858930429625821 12.494938913291591 -0.4662343341858874 -1.4280719426380826 1.369794547053428
Ni 1.3783922073012373 6.306325751433132 11.248632392266657 -0.43754030868530447 0.022209446217503686 1.740645324830983
P 0.4667506965145237 5.230626795635984 8.197420354053417 0.674930006456515 0.053683605566384955 0.29774968691650655
Ni 4.171980191588024 8.062288404282816 6.96970239061707 -2.055326754505822 -2.7999799364900873 -1.8427741703829488
P 7.1546102111753775 6.3498064468023685 13.453355790694589 0.6591981975435549 -0.07034563960309821 -0.08174154014486568
P 9.326889315820708 2.2321304312392805 2.2348750567480904 0.25327371599131865 0.880373233228116 0.7789972066817745
P 2.3305596686086414 8.732307616193589 7.694996996834223 -1.045754558981825 -0.7253238855280347 1.043285785726358
Ni 3.752694053124118 3.2272369469512694 0.2832819599674708 -0.4713269182174463 1.4018855140507018 1.4181549406346867
Ni 7.6530413009395994 0.15025587291288484 5.595080191202552 -0.4774399730937197 -0.8073991548632352 0.9723750176484092
Ni 6.0561903507748465 4.281457036908804 13.650530845238514 0.4274705831541283 0.30778444544468925 -0.44270694048790854
Ni 8.247408211908322 3.666152901065118 7.5696061796537535 0.9521126678549474 2.3723779699644174 0.3375349372342445
Ni 7.320978035059169 5.832670066483038 8.573605879687074 1.9820983940382897 -1.3992331640295192 0.8737076482824825
Ni 2.670289955730082 6.21193080538669 1.3362245243394146 0.5069197277203915 0.9865291976616043 -0.8293831153334942
Ni 3.0402680891360916 0.8812591881247137 13.113745971994598 0.3480108970649039 0.14263220498265114 -0.3163480187439842
Ni 5.1548530924087546 8.603910691659305 4.555489076609258 -0.04395403698344689 -0.9623307460385296 0.11558779927034932
Ni 7.7594363959442605 1.4551558060845529 0.9053874253724573 -1.609522406039512 1.2058808069841813 -1.216445469873905
Ni 5.201714374488399 8.921769890173627 0.11717655179241519 0.19759930524715003 0.2782982630601143 -0.3247640107218214
Ni 5.627546897714725 0.6934610593153802 2.708800628316777 0.1912995882813673 0.8861623291060673 -0.6087588099460806
Ni 2.7943070593605475 7.6509868007288535 13.120757420895634 0.1665483494786164 0.6783272050635221 -0.3606506973161015
Ni 8.257279151557224 6.635307266997444 10.902421090844046 0.2994466150029553 -0.588560994841967 0.5816236442921854
Ni 4.2395358939722705 3.294960744807304 11.810990189951962 -0.24933272906569964 0.7508084029523844 -1.4394920115495662
Ni 9.039511429523996 0.020757923038388564 2.010842081267328 0.5532052410504924 -1.125247926522462 1.4820368268903121
Ni 1.1547785366362138 0.3273453863055725 4.158555900438265 -3.0396777135691844 0.779852098482902 1.1243367275621023
Ni 3.274060874481627 0.6361890643496481 4.858605368384014 1.627047559407469 0.6708352675618512 0.4275587719925604
Ni 6.823135279446206 8.051110055408897 2.471577761483028 -0.011376360157741697 -0.3307495388812949 0.3649899481214036
Ni 4.264236589687826 6.349675705879865 3.428464036229022 -0.013895527035169617 -1.7513511412842615 -0.18203076138493168
Ni 7.177191036218937 8.463326845420372 9.947941382935822 0.14578617723060056 0.8004330079580473 -0.6893595516182837
Ni 8.309342054624985 1.4798004699761793 10.181021630253722 -0.475522958576665 -0.2676114727702294 0.7538839565539146
Ni 5.464783787837061 0.4408350440834314 7.0514920440068565 3.4685240940249167 2.2505264491725434 -2.2200676184620542
Ni 0.33026651205976 6.9848431233065345 13.437706102271102 0.3346794700633204 0.7443775597253761 0.09072497459039859
Ni 0.8210567287674724 2.2035542010352724 12.661784875406248 -0.29104862074724713 0.9834307612419385 -0.8949236202384653
Ni 6.220466319898606 5.676929611871195 2.2847499170914056 1.1659415475870822 -1.3721530199832754 0.9876435137717055
P 1.1101398502391033 7.80346807091547 2.229065490470341 -0.5062360713898056 -3.0838004149200113 0.1174294804647784
Ni 3.386311295086914 2.3293176298448723 9.784553518221342 -1.9433801515324851 -0.5577674064998781 0.27005222100123816
P 7.8762160556505085 0.015949458681511527 7.971351555636551 -0.5398794704758638 -0.5264693677175449 -0.883202475146795
Ni 3.3620028221388636 1.361237130541511 7.704782954883497 -1.982035402010838 -1.0400009443274993 -2.219424071340784
P 3.9601145266735376 1.1665732355733582 1.4423058411300709 1.6019499930088925 0.7806859072381072 -1.2660865299398
P 7.541453923584145 4.672624538397458 5.584651734905553 1.0248172946085254 0.07804532224020108 0.3646081393019527
P 4.439186621270142 6.064557769814974 5.597868708306773 -1.1309894569919294 0.39143194436301615 1.4441091986066033
Ni 3.6895555261929753 6.607926382370597 10.578310608506666 -0.07180654041934086 -0.7350822504663793 0.1019324132704438
