# total energy = -340869.3942575414 ev
CRYSTAL
PRIMVEC
9.25982767173347 0.00000000000000 0.00000000000000

0.00000000000000 9.25982767173347 0.00000000000000

0.00000000000000 0.00000000000000 13.55269379530674

PRIMCOORD
 96 1
Ni 8.640382069396969 8.088153737429012 10.348606339122462 0.03995571445733119 0.492610510186571 -0.0007037109352439493
Ni 2.0193091002048384 0.2100517787284319 8.04413344352854 -1.3273494905153398 -0.5675437691603517 0.2543263256255491
Ni 8.895888489303935 7.6736838590165215 3.576921349837236 2.528655276534329 1.6024066209303371 0.18930081268378365
Ni 0.4210628755847354 1.1011046063848533 6.351348084175636 0.6859320139939735 0.5271054586396471 -0.9597259614258309
Ni 1.0783532102441142 1.1709422253077086 10.296184603741121 -1.6417840942866948 -1.4640406474232075 -2.254731488392826
Ni 7.448327437414092 4.637738298782477 6.957898268125697 0.4710754643282725 -0.2069522072169597 0.39833201391695916
Ni 8.47430706337981 0.55973990402712 11.894697511392911 -0.7847731899336032 0.7307532840737221 0.9242568219849437
Ni 4.553853521558644 1.033646763126699 12.959654529208532 -0.2465857624481818 -0.06050114270885065 0.6333948633272058
Ni 3.3845132464065517 6.445951111718111 11.269769347825218 0.8482925506434875 -0.46934356923883036 -0.1977106340140337
Ni 2.634995029955653 8.33430773157198 4.376693576054274 -0.6601834442749598 -0.6322067565563757 1.985821865636464
Ni 7.681258397902613 2.2415079206334827 7.562823352351419 -0.043803884558827784 -0.5443259362829916 -0.8067064996715848
Ni 6.659584591719331 9.138514489173552 13.463245617289946 -1.9603388908740107 -0.8036409733723836 -2.154389302427638
Ni 5.013640995702831 2.0170126629875393 7.718326413324262 -0.29797877220817715 -0.3550271804817369 -1.0550472971376603
Ni 1.7005210192373048 6.037722357033281 4.01180081401847 0.9400703919784326 -0.39021401279551504 -0.10895846687928976
Ni 7.397398386223996 1.4632194201739248 5.224875254401622 -1.100078883456002 -0.48965631265425347 -0.13856292000928394
Ni 9.224380869480052 6.446886354294512 1.3545173792965328 0.13656825817675836 -0.5492022905386864 -0.34168289796434703
Ni 4.902171192388945 1.4356899530488056 10.368623308205667 -0.5380295617513186 -0.3070043727455551 -1.0573710601748307
Ni 2.390220750108563 5.964393783147032 0.3559477686813254 -1.9388354695845962 -0.33403180917699243 -1.6690452439954933
Ni 6.869801195377069 6.67434475673697 12.124456054983662 0.6229566987130174 1.1768479100869411 -1.3543005651828868
Ni 0.9423541239115796 2.615632730675928 8.12210211696958 0.5209893184395802 0.5303576470283576 0.2981608063119962
Ni 2.6988137610105882 1.922117950879157 11.523421950268864 3.47058534742932 1.4271376037492711 0.43257473714991307
Ni 7.609235459692328 3.214336136811718 2.1584972711246215 0.058612410326570025 2.0204674807347915 -0.08736968496492051
Ni 3.039066122097875 1.839048038474366 6.645169818267036 -1.7318248983258753 -0.6123658105710487 0.44606994342287054
Ni 8.594157010571339 7.820359526443999 13.13260032722261 0.7361765119718224 -0.2621622767302001 -0.3261277238385674
P 8.42724862008016 6.116643866722951 5.48347445668995 1.4515556275823194 -0.37307298223985425 1.6112175343537478
P 0.8664309463628823 1.8103888723955754 12.353144162516674 -2.0576795710087143 0.9788068893166819 1.0786299695536068
P 5.379330102902698 5.284240934417045 8.248007065356239 -0.4363712280778678 -0.16376050232083408 -0.2051184964423306
P 1.1162259046745673 4.5530571763945815 1.6664930051803295 -0.04988660041779795 -0.02103805161722183 0.8071638989239777
P 9.014164265822314 0.21114721632039338 8.584343445398382 0.4090458007900375 -0.1656420356142631 -1.0254377018013436
P 2.625846320396414 4.5519089577859315 11.931005294977703 -1.0636157555329617 0.12138126602367483 -0.36917544695766097
P 7.571177568712092 1.4892673149007867 0.718498720345134 0.19582241585238533 1.9034653176154186 0.03424503722579909
P 2.4167501558648583 8.202234812094828 10.255634893183569 -0.1609932239883421 -0.10551807373917312 -0.08636952583518029
Ni 8.315602880043981 5.837330430341487 10.157391827455124 -0.40562700491647563 -1.53983316907349 0.4666079154752222
Ni 2.8991316090824695 3.6875411009876222 2.9296316288660944 0.28352917244175047 0.40838656993948375 -0.12033816947114115
Ni 6.855791076386049 8.87932265792592 8.823101615325799 0.26084844301478305 0.6393549375653826 -0.47762843495544194
Ni 4.227333484637705 3.219975371752585 5.179730817443971 -1.0724084141239272 1.1664629673081912 -0.38978309590568355
Ni 7.863158449098657 1.6999654295879583 9.815985691862693 -0.2987691293199564 0.2575060089051114 0.5809744407439608
Ni 1.022960922204268 6.571199538335792 12.016495726288149 -0.36068206477466913 -0.2974002739968878 -0.9545888973095816
Ni 4.4024275626292555 0.8615982423963168 4.959581196838667 0.7438448271503576 -1.3598862868007806 0.26327067930303044
Ni 5.602927157282198 7.554945091123686 7.218476295548449 0.2545304712165552 -1.2954585553440139 -0.8967617018884686
Ni 4.868298743433786 8.755611362671432 2.0634247703284485 -0.7323247423259001 0.3421973757069203 -0.32124031383927903
Ni 2.1163243128082265 9.190276924837667 2.46537073206192 0.43742409482241446 2.521275182020174 1.6918123624886798
Ni 8.936502092671164 3.158804951359535 4.670515310145674 0.8664100861798045 -0.2197115637651571 0.3866550917996631
Ni 4.765560957442129 7.436076685646001 4.811287837548844 -0.7025002027652998 1.0471732937062224 -0.3794770859939851
Ni 1.3364153425380751 5.111008081750805 9.978156754610444 -0.1965909185872937 -0.11351600434298514 -0.04729184310742823
Ni 5.595667452530737 7.016560201251948 9.806241575395903 -0.6001420148113471 -1.908330101906888 -1.4480180467427062
Ni 1.0030985922401303 5.04812459327227 7.345261853529321 -0.6256414446340323 0.2923475420643288 -0.0683985431790564
Ni 2.1649291472985563 1.8593270606755132 4.481062943649512 -1.0400374539923893 -0.5246731950490706 -1.3710955252530386
Ni 0.8635705856514968 2.419518844284102 2.0417401063144545 -0.18611984385264077 -0.08670993989373454 1.174970747668886
Ni 3.12583070567082 6.073344913383881 6.083560355069865 -0.2820942397674368 0.28209706798091416 0.02870456702354411
Ni 5.53145054889377 5.47183577951889 5.783653062352624 -0.2064477567767154 -1.0134869571973708 0.20628269195376087
Ni 1.8604382399742063 8.859645524511565 12.346436343483564 0.07228296583512712 -1.1097637148439339 -1.1730277650099024
Ni 6.96802944538153 6.800380268691224 4.226475098629464 -1.927649113950474 -0.43093745865680616 -0.9023296828945493
Ni 4.370545976584255 3.3869208015537193 12.533232991455849 2.3278922288472166 0.6601934715772888 -1.1423190230721358
Ni 2.117787365551506 1.118151948792302 0.38620610696748475 1.3036292640802645 0.7127488770765016 0.9737083917478521
Ni 5.404766849015278 2.6424954902218314 1.1603989857286099 -0.5704411453128047 0.6068878181756129 -1.5482486468306949
P 1.727893069295109 3.5440693338713776 5.84320301293508 -0.21263588786529833 -0.16709470890038963 0.4096263558838558
P 6.113625162961502 0.4539435970158103 6.84168465518914 0.3888158468964078 -0.5025748204881344 -0.29140291876287233
P 8.563497721754901 5.30422364213854 12.488102444239432 1.1216573809577264 0.8505823751189288 -0.2808714231039292
P 7.10324144637749 5.750445469011183 2.100884476452887 -0.012066958466863089 -0.027562997219933178 0.3656766897757831
P 3.2571535791213546 8.407293691841131 6.519116712640553 0.16089937872295515 -0.7258589320958984 -0.49595628673035225
P 4.151319560779615 5.489383152610752 3.852244726553644 -1.660410708248947 0.5888610425808891 0.17465272375330568
P 2.986544380579652 1.9282201771944796 8.968630916110124 0.6904067619358755 0.8017224161934322 0.9591654609366707
P 1.6150157722028784 7.958025381724573 1.0134177439939929 -0.1552789472123842 -1.9596575485362704 -3.179623629968924
Ni 0.9298255773188161 7.262640116775002 6.078477635761094 -0.07488235113118717 0.25649685091430663 0.17171729527406554
Ni 8.839273904035526 3.460073438717676 11.275651190246299 0.0801975926965135 -0.13812531825123306 -0.8911389563850525
Ni 7.234906933445122 8.08558876521453 1.755426240351224 0.31241191691437165 -1.4352342647144765 1.5060493877548256
Ni 5.771733812408643 4.23880641089671 3.290675080614676 0.17388576368029407 0.1764964618302638 -0.0640459226373155
Ni 3.2537644822603413 6.913850194742758 2.164297627063799 0.5665721492757017 0.7059930464099067 2.6182391955417486
Ni 3.423848993580284 4.09528834464302 9.880455388790113 0.9863510202125272 -0.8617242506683611 0.6844348606231567
Ni 6.763507635629594 4.22540744051997 12.80131888700677 -0.35516139206675607 -1.0667121350700983 1.1347047010599876
Ni 3.9966434024015487 7.756948227798584 13.570989266022215 0.561084386688253 -0.2833826195615571 -0.4731081784875852
Ni 1.1198279775678304 7.319041726011161 8.694839114860413 -1.8946850003196272 0.3371269031625484 0.35012717207695826
Ni 8.148046301628565 8.708154746789752 6.435021737332717 -0.9867855366467844 -0.8166870079230645 0.11030906736991326
Ni 4.178867547559713 4.978249935039459 1.2329932552949727 2.840501550753218 -0.41990742609488974 0.36966009990356336
Ni 8.873738981949987 5.193892797605814 3.3684131843512386 -0.7111488795792333 -0.6717222981524948 0.06455011596724368
Ni 2.619605196668755 3.5103450421560445 0.31820934174946425 -1.9755721628839977 -0.8908463648452979 0.7088127752468889
Ni 5.767928023310619 1.5527989913035594 3.02878308367122 -2.612539059833178 1.0575705777801463 1.9045279545519778
Ni 4.44953230506635 8.559284500247356 11.323397638728387 -2.3871787824226756 0.2822215093739204 0.4466954928220113
Ni 3.2855349503754723 4.0653513223707325 7.553282026106642 0.701478703479321 0.5293315197566885 -0.22499749475444478
Ni 8.853821093020915 3.4524803801766066 0.16152102285801495 1.1560507708359316 -0.7231533602392771 -0.033168259221852556
Ni 6.049926809663926 3.212187856834245 9.089602228410584 1.480341184355444 2.034202828043013 0.69545846542717
Ni 8.202595945366902 6.852401979525034 7.968942718334231 -0.30487318533516533 -0.4478689443048222 -0.650804317052905
Ni 3.1693518948696293 6.640666764159082 8.663355701397446 2.2198256776545766 -0.9737346170000973 -0.47314983035879804
Ni 5.710868966322733 4.723475041504131 10.753601562048095 -0.72616232226893 1.5016993383162462 0.21596572356947966
Ni 4.31171829254595 9.032202409771099 8.389822249334681 -0.24952324780995092 0.09459859861319192 1.1636627788552345
Ni 9.299644747311525 0.15484746518661457 1.2248696086387778 -0.5274427873744078 0.2574569008347308 -0.11959280666468436
Ni 7.815896289594248 1.1387828444380352 2.850484179385689 3.023872628216128 -2.1701938735600623 0.4721288452934514
P 6.135209820838614 8.835134761147895 3.8287442103690355 0.5049433207203111 0.010008533275937603 -0.17541531295094306
P 3.670928970472162 1.4796093148296467 2.1375848767232193 -0.33012964590910887 0.8892895618811393 -0.19381052762867912
P 5.298917760987281 5.797966903685287 12.99319732830508 -3.2907433661655907 -0.4895005038026795 0.8700841925972821
P 6.397327757572803 8.54553365642603 10.914810528719729 3.191101034480904 1.8081522094337052 1.1785057574053381
P 6.279727948461128 2.6275038295169644 11.348185270933982 1.0202967810303525 0.7760723197254956 0.21330643156976165
P 8.748536854469753 4.0619344460272515 8.888195424625984 -0.42901118816837086 0.16248472093220404 0.169394817788476
P 0.15682999425203265 0.5786734732940998 4.157085655357083 1.155303608257262 0.018288256786226566 0.7156503669940126
P 6.269792153565315 3.3784480594011854 5.295267536991075 2.1411360369621577 -0.03812740299934079 0.44657850762817286
