# total energy = -340890.67630181543 ev
CRYSTAL
PRIMVEC
9.06158712073233 0.00000000000000 0.00000000000000

0.00000000000000 9.06158712073233 0.00000000000000

0.00000000000000 0.00000000000000 13.26254871045526

PRIMCOORD
 96 1
Ni 6.425054918676606 1.8396109250784158 11.369744627619907 0.25076766174001325 0.4509673807244879 0.7442168657777958
Ni 4.252602836971708 0.5044812091227519 6.073637508447329 0.8474816247064179 -0.2679081780750418 -0.9927127007644967
Ni 2.502203237122329 1.56309659401046 4.772939105084125 -0.3969443895408131 0.4256476710127766 0.5579674383258262
Ni 2.8592750777165543 4.314701893527786 4.6286822627158 1.3182896943059168 0.5506439080812194 0.0424154888517334
Ni 4.964209273765633 4.419743811461253 2.874948904963752 0.6803100398215057 0.39277097488941387 -0.33764446622891525
Ni 7.279834432018906 5.973407293276343 2.6573376086734806 0.3931982922348196 -0.34181428133588876 0.3290112160339495
Ni 5.117812237092944 4.413273838255206 11.886307650854175 0.5111867305268615 -0.19132581353361242 -0.9650579151617056
Ni 5.886950690532794 7.888854640989781 12.376610194605075 -0.30618136262362755 -0.5925240932547731 -0.2674350950933652
Ni 2.1860897703254865 6.5354069266643355 0.2896690370948722 -2.37831773248762 0.9206904447899241 0.5911228420318723
Ni 2.8728765199886506 1.5808301200107873 0.3735784276980564 -0.04806600226929141 -1.1945342716231104 1.4448856717613117
Ni 0.42169454916414645 8.987590202865967 4.568854946051538 0.31227873377061705 0.5027668818942824 0.9188353938590563
Ni 8.632829066988185 2.5223833916459513 1.2489059960011852 0.15868154513602994 -1.0751216992900323 0.6215531334972715
Ni 6.901911879453932 0.8962580222405617 4.954928396233933 -0.9691963628101115 -0.3851193718814271 -0.08697630618124375
Ni 0.7007280014523838 7.396946384000629 2.395946160355625 -0.34305920948658336 0.36718567022114185 -0.49073283354788394
Ni 7.543508494133124 3.7941590212289587 3.9877172406591033 0.6700528808698718 -0.19321428880557692 -0.002392411491576525
Ni 7.627989670883791 3.81829908932547 12.55630509189526 -0.39521686532674516 0.15273792595808536 -0.108215160955362
Ni 7.814386518010378 8.878987081193037 6.965954646447961 0.17200243061465215 0.32394022926894533 -0.1756261434101685
Ni 7.244041162881812 0.5141408609962056 0.507056512183198 -1.799228167471198 0.2620265224832842 -0.25073475161954883
Ni 2.0424364296595745 6.599019268270007 9.26186088496219 0.09060593251403105 -0.6802221080933898 -0.36745280783959944
Ni -0.18630260662050618 4.831139866859752 1.3046465368728324 0.40114428655477363 1.0265337630789997 -0.9249183668283426
Ni 6.269947731886824 2.2236138026031336 7.12363351166334 0.21174165818580307 -0.8342787528628988 -1.0437133601820798
Ni 3.3545361219413334 4.415475803926172 0.3225064165123409 0.6736084594316141 -1.5376168781484614 0.5107984939495074
Ni 6.249495729749502 5.727448633988204 4.668748976340249 -1.7342738740870005 0.42149302541445477 1.2566289840713263
Ni 5.421755992383175 2.4439644166807835 9.321118227796395 -0.9473463568145556 1.8904506505233056 1.0027091498555765
P 0.2924654428811272 5.7031182725621035 12.39981963770402 0.01288534060310039 0.2053236704746012 1.6402434892724527
P 4.114023985094853 6.2380509452127555 12.800494929376928 1.7691897121275788 0.3468662419374994 -0.6957412867749114
P 2.3800349195257966 8.52049257142045 1.3494116834207208 0.14896277518636927 0.454582865989888 0.5223427471436811
P 6.479379133480879 7.832129105597829 5.672192888027654 -1.0781206340173561 -0.3271957600917655 -0.4659926504887265
P 5.0521610383845275 0.7907883973948743 12.623651713554448 -0.5628949575344305 1.23089584097128 2.2532299641466356
P 4.151946727205926 6.0433355611069635 8.467368110751304 -2.195669649233664 2.5583445760686456 -1.7970537855276985
P 4.601247401541252 1.2460860300884096 4.019387487655089 0.43250506025424224 -0.36062087251943054 -0.8910019165865557
P 0.1733273200186315 5.485159917485009 3.549854101590826 -0.2800162741924855 -0.5542761055171679 -0.15699155902811673
Ni 1.2328742360626164 1.053074224361801 2.6150961141394355 1.4797621719235226 0.10020463194605969 -1.6618998911999638
Ni 1.7321223786216537 6.595349325485064 4.530937640892739 0.8730108793257739 0.4178675128467255 0.8211095624707923
Ni 6.192480223569604 5.767727388751339 8.941862715765582 0.9016524543218666 -1.109766028836779 1.5056889190916132
Ni 8.490100008208852 2.4340419787807535 10.250730139920455 0.3936875731664123 -0.10483210341574202 -0.965160502177841
Ni 2.5142279632349673 5.043760947121214 6.938196286613111 -0.3534549508986106 1.6156035792365853 1.1130953503203282
Ni 0.9049453658156837 0.12909318247616952 9.429685103120832 -2.1863776824087764 -0.8920509266763604 -2.060350175862342
Ni 1.5535909891181026 1.1525251430401826 11.3911499087226 -0.5837656303358526 0.25295129965489344 0.7665751788683378
Ni 4.109402575661963 7.058568597641801 1.8008282383493401 0.4733123240785913 -0.5800187616989108 -1.4671640235435377
Ni 5.450553716261068 7.661843760376494 7.630342058901002 0.23789260554955802 0.7170955840809715 0.2518938049246565
Ni 4.899237694091465 3.0722404982887026 5.157964129636353 0.5856553911593978 0.016570245653855335 -0.6126041518340998
Ni 0.6406206817460112 7.629620756565987 6.996750450286546 0.8000409147259512 -1.6601741667581087 0.36505911079644227
Ni 5.0310475403872035 4.831792301132631 6.993169311055413 -0.4694492415787592 0.32111407267405984 -0.5712970655551968
Ni 8.547849502945738 6.9281179894145595 9.103651916900096 -0.3985346168460685 0.9297628394048375 1.1215221409314429
Ni 4.634938382465736 0.3211000581908025 10.572412858163284 -0.11504889604774379 -1.0506885059483324 -1.3911778978252105
Ni 8.3373760188325 7.032126886415968 4.9109497954483485 -0.005241450904597425 0.14089182525277671 -0.7846135244272874
Ni 7.417778972797129 6.2195290611327 6.98441581789429 0.1131521932456632 -0.0036039153011744383 -0.302723228871698
Ni 1.9823581070319962 5.220389403328869 2.2639704870155293 1.2154599660321843 -0.3192510513233921 1.32596212324951
Ni 2.420132442546465 5.256264226750074 11.492423112571482 0.16573793776217907 0.15786856231643134 -0.29166414284405895
Ni 0.9892081583166772 3.3322989871407183 3.811205678925339 -0.7510318318171001 -0.23507776180858223 -0.7166829220235851
Ni 3.40897813737821 2.737786379154271 2.7181861662065407 -0.21029464132663137 -0.6528383167637982 -0.24444840439020482
Ni 1.1379450493587688 3.3393489019226577 8.33134734491936 0.12464888103135309 -0.29328265228408845 0.44344664686741053
Ni 3.8616315989491614 2.871943176514949 7.40279654464744 -1.0614413735894623 -1.016762542624849 -0.40029633673218157
Ni 3.9243377818425014 6.991576284039134 5.776489943499585 0.18175899578078375 -0.3594227384462713 -0.6330323377814646
Ni 0.9032617229281718 7.647526452721657 11.486865641188752 -0.009194522015074489 -0.7493071358165095 -0.07407733873138854
P 0.40544984192817973 5.430799456332243 7.915274604406518 0.3990789193853127 0.5629420087222822 0.031674705395461585
P 8.549797744177251 1.497499764824783 8.175778017186289 -0.3344979501801336 1.1018817409926958 -0.05892608491224691
P 2.0349606202828396 3.3248866088738467 10.499562228485395 -0.7430629546790105 -0.4063451140294227 -0.6742062409166131
P 3.769919275674091 6.05841404208016 3.650238363742909 0.11219574286966483 0.7815652245192668 1.1932489771527837
P 6.821454047386019 4.048173431469723 10.275809894601652 0.15149634024150038 -0.2542839024233879 0.5523884015761519
P 6.489047846941457 7.628605858808175 9.967773926566533 -0.06863405622863018 0.8103950042667657 0.8173292694927536
P 2.174336891826547 8.481935518210744 5.769726374870742 0.8884071592761861 -0.03903140287084891 -1.1106530594274227
P 6.803457735359115 3.8772900214982498 1.6921018790915332 0.30772659562356036 0.6155915165971979 -0.5723327059085628
Ni 5.165847710433637 2.8350715785101803 0.6997747224870111 0.2566241205207903 -0.946959148678466 -0.5333067023543525
Ni 1.2828488890476983 1.0159126555690863 7.007612574771264 1.5186130833524494 0.11593541241775517 0.9223189815322826
Ni 6.69117560931412 0.5227113100974369 8.926106428075562 0.1163133645824642 -0.9212753707591166 1.0515171724972148
Ni 2.7623795266069475 1.561338646108537 9.265548044762665 0.9985303358875384 0.17450539954216399 -0.1947888323815484
Ni 6.3643151001890255 2.036401412635447 2.89953842778158 -0.18115684342041058 0.05499409684769238 -1.0344201078056119
Ni 4.320374447066982 6.542520272556138 10.599495223598739 0.5780819496875141 1.2066081720685091 0.10415847438748514
Ni 8.309602254299541 7.379856230686056 0.12319318310017917 -0.2649238986357373 -0.7528388031188518 0.41580703077327097
Ni 7.766885678309962 3.8882092339818444 7.89723751523756 0.7933254503789885 -0.265261227370498 1.6622459616854726
Ni 3.0904814731679355 8.430465703350315 12.38646467060168 1.3973968821517289 0.30081752720855287 0.6134230481909694
Ni 9.28060568408548 4.741919480043593 10.592240516947811 -0.33588531744596345 -0.5640380699999382 -2.4136498321300106
Ni 8.748509288204424 2.155606591242655 5.920348982193197 -0.8215579628621206 1.6079905427760177 -0.6013170089560548
Ni 3.6066838452346954 2.343362676437741 11.657263350090416 1.4089282798300962 1.2027977971834833 -0.8825087915138802
Ni 1.030773658451323 3.3111583043820247 12.521330990234114 0.13378426767371795 0.3493599548936306 0.014388150400871994
Ni 3.0433430969524515 8.409950270103131 7.760924966300245 -0.43176586809537254 -0.8221940537842227 1.5724193305396275
Ni 5.488693936463101 7.8606459202749015 3.7310731578351524 0.20498634173984048 0.16121536730147717 0.16910222624872168
Ni 3.148611554564001 8.598884361624247 3.5161667453011898 -0.906867937084535 -0.47533732492842 0.5200025290462786
Ni 3.6622223127134927 4.3205556788094475 9.383703891580994 -0.0512351440258924 -1.860535608131428 0.9916125257217826
Ni 7.31893518045601 6.052424332991649 11.301322395569178 -0.3005233930069018 -0.060685233695198716 -0.05776831715871987
Ni 0.5688764718558773 9.342949403493886 0.26339405907210817 0.8459525896564011 -0.3920677781748022 0.25536736529555376
Ni 4.850912249962826 0.3684622556082327 1.9194489445870946 0.027625732137068548 0.4544843927388108 -1.2486081706493788
Ni 6.286684483303587 5.756228234691853 0.4158144852798274 -0.7700963046477188 -0.21005450029136727 0.2071129011645401
Ni 8.083116945739407 8.941992296461445 10.931788154204257 -0.7219084320885825 0.09503825725377181 0.6428758062344476
Ni 9.099011478134246 4.815037426541621 5.743917162426117 0.3851216858742722 -0.5825399854588676 0.4733208087190235
Ni 7.778529817763421 8.865893087799847 2.8096175802807886 0.07642449880732644 -0.2656355799907812 -0.10520954135981882
P 8.560707895073723 1.7233598238734082 3.5416841746404453 -1.5955826560299682 0.5706072385770237 1.1195902140160525
P 1.8289001290986577 3.2334370716253527 1.2897175720871712 -1.3768200864416416 -0.12394414165484462 1.2462910924804276
P 4.643981846414805 0.7775177030527795 8.144226476981618 0.2992365558746782 0.9642711575943521 0.28120875183868993
P 8.48564170734418 1.6992378789511438 12.33188944983409 -0.05036148317168746 -0.27801415616079217 0.14984286379847742
P 6.4719576936268846 7.5938727953645095 1.6534288375666497 -0.848331631411539 1.5054037837510268 -1.569637396919116
P 1.8765731389544176 3.1828734154772547 6.215174968519947 -0.3656890310709573 -1.6426621260162744 -0.8111642783326223
P 6.762680593304198 4.206334373120063 6.055971944350426 1.2572038827381897 -1.3970500403352712 -0.9623016925728073
P 2.613443280648143 8.41533285285438 10.283872894823977 0.9895487012142183 0.03339863006510377 -0.12917762213964207
