# total energy = -340866.59276638733 ev
CRYSTAL
PRIMVEC
9.29993644778137 0.00000000000000 0.00000000000000

0.00000000000000 9.29993644778137 0.00000000000000

0.00000000000000 0.00000000000000 13.61139704330540

PRIMCOORD
 96 1
Ni 8.049606516151387 0.6940151994419884 12.0681099972585 2.061404328158469 -1.8177020579056695 0.7153186946862068
Ni 2.7498517167923735 0.5626954464380595 10.898645775430792 -1.0979307267647478 -0.49282494019022216 -1.5190720252667387
Ni 6.600602013758685 9.150532996134752 3.0991378009498938 -0.7011578298047924 -0.0007366210557084087 -0.8348649643836719
Ni 8.555857858137994 1.116159775930423 3.064116100170021 1.370842271591652 -0.040617516411046176 0.781643643165686
Ni 3.570589710638394 0.14230297798163083 6.157673939234545 0.1716303919872141 0.7539045253792048 0.7150207038298136
Ni 5.380608447078015 3.2824869785603012 9.229044919849194 2.4667582819192164 0.07096064747927779 -0.2860311129279977
Ni 4.219836875874065 5.83372925197943 9.045181455751685 0.48996535925424 -0.41201259672784524 0.08359016331783023
Ni 2.6880443389754327 8.221320543237152 4.5865780108026675 -0.4101261783384098 -0.4679747139157618 -1.5207928646125874
Ni 8.114417773449953 6.564053263409517 10.744822966136816 -1.3659641175637445 0.6077815336344758 2.2194322988709003
Ni 6.71421933768128 1.0655867213760257 6.2991501528634934 0.6736513968544076 -0.11197977020411683 0.9718692816565844
Ni 6.522556946855319 3.9399459877039402 11.278757429030387 0.809537798472793 -0.3119722582737917 -0.7642365034328322
Ni 1.482753971862711 3.8364841944127175 7.672608481283828 0.45130908033462275 -1.1290439032297845 -0.5059493933873221
Ni 2.1803422068986307 3.9203882212957204 13.384413706080643 -0.3718213692209403 -0.049271592541618364 0.333447140318116
Ni 3.7730493277125436 0.5372247804186436 12.862757019322181 1.0108451486991494 1.0237466872521659 0.7536774969700634
Ni 5.6591229446497495 0.7251141870164467 0.636648541292154 1.395851649151796 -0.8406481467243521 -0.5476028072620505
Ni 2.8148675726934016 6.139687862090705 12.608360047012662 -1.308580694548269 -2.0884335643621195 -2.1630868302016357
Ni 3.748153397767321 9.138675577128343 1.6324559793043414 -1.1501907125107287 0.4221368296460407 0.5521122650966298
Ni 4.462965115156081 6.810036583189547 0.4165432247491714 0.7012131085227602 0.5521405472314039 1.2032737083786373
Ni 4.158857192403453 4.113287503672938 6.181833314210899 -0.8586240144764825 1.0418724503185992 -0.48093075985579753
Ni 8.180828619822323 0.34206933345244234 0.6946429451540924 0.032459920300918294 0.058784417128060054 0.8726290705063229
Ni 1.0887156633908817 6.724746865771676 10.584072634162155 0.7970831176492079 0.6532211540245136 0.9333783246702376
Ni 9.028415530273445 4.971634440626347 9.571262122291598 -0.20737232547351384 -3.1763868681991814 0.37990028957433286
Ni 6.99411952578788 6.576171080637243 3.817683442833613 0.38091690376430526 0.2385348671192473 0.5733552336358061
Ni 6.584764221940712 1.4216719890908682 10.750077430245538 -1.5471929518726708 1.3290317633137692 -1.0010063082318568
P 5.997324434521982 5.857462689865201 10.600024815198775 -0.7023798751373517 1.980771961917382 -0.7535965072204829
P 1.5356613104724877 8.09556680221388 6.939975295626847 1.1719885251121105 -0.5472870757938445 -0.7256889821769372
P 6.314749866307691 7.981335682483895 1.2013183642439869 -0.21557877254370614 -0.4503130349699406 0.133258477077235
P 1.289594291264177 0.1250376459146506 3.050939950171369 0.998023571454449 0.3365234652505946 0.2249509577872255
P 7.145187693897779 4.339424759014005 3.0263444081743085 2.1569894590546466 -2.4126887537683226 2.4624467990280556
P 8.580037692974594 6.0037599905631085 7.34155213260581 -0.7097903086688099 0.022059293792884592 -0.525607791048198
P 5.282084920055344 -0.19288719245979874 7.554924295140447 0.5392847743146584 1.7205680944651338 0.3586910024865694
P 5.082480383479208 2.4870541118644307 12.1492882127605 1.265686209177588 -1.870237408800224 1.6091012593416933
Ni 4.234186677855939 2.4640832687696603 0.8221367042919531 0.007997159272863647 1.0072232356758462 0.11524275722610476
Ni 6.847078230171923 7.835977675370024 7.156369007522411 1.5193178227289577 -0.8493533878078341 0.12548423244845483
Ni 5.200087380149842 4.862685684814512 3.7052806906147335 -0.9512896577330198 -0.3330774156835231 0.4705221629279639
Ni 3.3642520200539128 3.259627734703238 3.7286244611621764 -0.669505235896518 0.35125794324729187 0.050011813141752584
Ni 8.916118797330387 4.510878387878452 0.714270461085879 -0.07212201477723064 -0.15389517949098014 -0.3962568765554853
Ni 1.454593764214547 1.1010473791575477 12.966339711787585 -1.0010086222247019 0.31831362711078726 -0.34551229901276626
Ni 6.870597769518755 5.1617065423149775 8.56077938452089 -0.919990333399106 1.4965396484921776 0.20782355407831948
Ni 8.018898125908906 2.6510212918660074 4.845099504939122 -1.7108184712775374 0.5734202825457866 0.31810613908567154
Ni 4.663164847666656 4.598679088144738 12.521096883074664 -1.597907447508403 -0.23711561817421747 -0.9036823402677018
Ni 7.842831728552552 0.9412744705064732 8.58702194526778 -1.358904125393169 0.8449498594234998 0.3857035265196712
Ni 4.52814836991367 7.9920120095579 11.554592614903495 -1.104887103477923 -0.8080200762766858 -1.1339611380257437
Ni 0.22895978606141618 7.127666613577719 5.325023656756909 -0.08282757412019283 0.3810351745097244 0.8896816551132355
Ni 0.9760934326711777 8.933202780636094 8.99449308198499 0.9716857048908686 -1.4802319124710897 0.2596135421664174
Ni 0.6821243006642663 0.3278469406002835 5.222911284248298 0.832327799784115 0.33696698054591645 -1.0954843221067843
Ni 4.762850866748779 7.419284721643595 2.907054123001588 0.05473647231093154 -0.5395963920178062 0.0434308174901252
Ni 4.547324838926389 2.143254060233876 7.350086684309483 0.35225475994292244 -1.045183259859387 1.0265062522751742
Ni 6.331880349295775 5.470845730700912 1.6488433973680234 -1.511002875105359 1.9794324171703521 -2.3518058022400203
Ni 0.23553112117508612 8.001293346160566 12.654624440997905 0.01466222999786507 0.2897221886263397 -1.02881767401717
Ni 7.083538415000923 5.178148830003866 5.8890527140855715 -0.6630039444428903 0.9624572443140651 -0.6905453443962688
Ni 2.439968533488389 5.923947935729376 4.003288785033005 -0.010466703859278748 -0.8793190809319889 -0.017563462805060076
Ni 1.1350386469759224 8.666359703341257 1.0227428440265127 0.4859973757454275 0.4384774757875932 1.2114634432782814
Ni 4.9842916541696605 1.9253379487372533 5.05705621714217 -0.5114129876050547 -0.3528211739693537 -1.5739769048347345
Ni 2.530577814570311 4.75720580530808 10.73274978860417 -1.5563661337315067 0.7592588477125827 -0.5297814628099133
Ni 8.188184869574535 3.6736423067246897 7.218763211330963 1.1660883575775918 -1.8465760606275423 0.4694620970945657
P 4.173160494702951 1.3667372643294076 3.215134048622951 0.1118527577079493 -0.7260278535735948 -2.0390269889045336
P 8.625653881387489 8.665922606326903 10.297416972199667 -0.8509302453766507 0.1568653178628976 0.7219747665501437
P 1.9945387760523083 4.2775057819593565 5.479784829641274 -0.8363893714479983 0.18280723453964 -0.7103446385103831
P 3.4254828018093653 3.7045552955696355 8.735168073337041 -1.8913749621097877 0.48581045654560195 -1.732604199694061
P 4.517434843093761 6.478010251137121 4.901777037796114 -0.8345806003740337 0.9837446929379317 -0.25239568426173953
P 7.6458590739990155 3.2117702615997206 9.408510443987383 0.42667045585033614 -1.4682462008641228 0.4539272346837602
P 9.305981434324666 5.850729535856855 12.583382277626452 -0.20058101358329328 0.11073895581848026 -0.23900820721124003
P 6.121236788123083 3.3243738924464736 6.238729395575068 1.6735318190119368 -0.949058454409656 0.4260071112347244
Ni 8.814423991969532 8.005868914906568 3.1012619064409246 0.9081948834260746 0.0960489579064733 0.2036627378324105
Ni 5.549504593411668 8.55013839720549 5.076574923817193 -0.4329814856700285 -0.6212546284202461 0.4339106823525172
Ni 1.5298860499211304 4.215475205667001 2.4150428437464444 -0.10190284558408902 -0.18983200259690533 -0.538282558302389
Ni 2.0769455131627375 1.9699590439472567 1.5883817203591044 -1.0165694527774363 -1.0175613843770606 1.0314134597688045
Ni 8.2877778892919 6.942635077458872 1.0061229275509402 -0.10832854660477471 -0.051432090528046905 -0.9328281085937224
Ni 8.432419801297149 2.933190664472658 12.007878958674176 0.00786320479816065 0.8011840271914589 0.7563771552894135
Ni 6.551461149421533 8.01451785582889 9.68631907638062 -0.7062717539925901 0.5844390022537935 -0.11234795217681297
Ni 4.705851556089732 0.7858706720116428 9.46865964313072 -0.2327992501870507 -0.7840990466847141 -0.3804546194159061
Ni 2.446357589847137 2.146695036729854 6.014141509650838 0.11447502582214478 0.6637963584371988 -0.5935080544345972
Ni 3.512660406331785 8.10721032268135 8.011641385476983 -0.9146694354068248 -0.34794507682397496 1.6373314578319802
Ni 1.8367188540611132 6.360514853704195 1.1796141724971954 0.07444397804218793 -0.43820442463186465 0.4896321442845374
Ni 6.4141382874225945 6.014631616303102 12.76234560519496 1.58999590597081 0.03158780210861012 0.2291549685662441
Ni 3.7086007679365283 2.9654149443606657 10.664801662732382 -1.5404566615901019 -2.8822500954449137 1.5877970985472782
Ni 9.014986422002655 4.9609395136793895 4.630148213190926 0.8721102218883755 -1.0033377845785107 -1.3022431823660152
Ni 2.9307540811160466 6.24545603962788 6.6729052998820055 -1.311458016096064 -0.35514622255810446 -1.2663894058921996
Ni 0.07035959939991675 1.5400136807430755 10.144914753885228 1.3497743951777592 1.1845563344747922 1.0770150596580033
Ni 6.76499699083814 2.122747700305144 2.0829653620434034 -0.22453443907509715 1.2341660270821195 0.7514573493902929
Ni 0.8663281424367829 2.6290362420376527 4.104367004605527 1.2944815361427253 0.12907529223382286 -0.11019336772765538
Ni 8.819018160588486 8.892627157792983 7.122149891260383 0.6069166145310192 -0.0938879456994125 -1.0531436523570443
Ni 6.531522085617814 3.5826889279931704 0.2598113953256231 0.020942406579621996 -0.3790700803635536 -1.0867150605545863
Ni 6.419095153564098 8.329971701081769 12.634316169716103 1.5561946411506489 0.5691388815616133 0.37788145937209117
Ni 1.1462078706831367 5.978157265445739 8.328678079918012 1.621719462326336 2.42406999902207 -1.0693616568778035
Ni 2.407632654362674 1.3395907497570858 8.47196499117876 0.5044291000880538 1.503708912547107 -0.25693599533425426
Ni 5.280866628377039 6.339478397396353 6.826455621037246 -0.7543269576286041 -0.38652473686938593 0.7154025126492647
P 9.070153645176008 2.4392524383797665 1.3994832706536973 0.22803628158076858 -0.2797198259979892 -0.44242180514732193
P 3.06520326274402 7.437094099994399 10.021009840233308 -0.7695612580798552 0.14506858233828562 0.4981257835778454
P 7.843324625185759 8.958796205816988 5.021475590180113 -0.22999494796903613 -0.45980400517951137 -0.4360878925094941
P 0.12985501300901944 5.882405119492802 2.6511868307352735 0.5308140178394859 0.43548188349437905 0.03463738756821131
P 2.6910110187111544 8.010788581302169 13.117316740520025 -0.8341828507149828 3.37399157276297 1.6185328370682381
P 1.1819196267495002 2.8808599219243693 11.69489889652381 1.9295365607811739 -0.36190051056280254 -0.8856182836771394
P 0.6697711950437062 1.5922700237995593 7.068616666925799 -1.0896517745854073 0.756078393102072 1.1083904886454912
P 4.013880482685083 4.6177253580467985 0.8993168771030863 -0.522722499080603 1.137170388991661 1.532985035803405
