# total energy = -340895.8045586745 ev
CRYSTAL
PRIMVEC
9.02401643545400 0.00000000000000 0.00000000000000
0.00000000000000 9.02401643545400 0.00000000000000
0.00000000000000 0.00000000000000 13.20756021485393
PRIMCOORD
 96 1
Ni 6.56119101345464 1.8645603578996353 11.36754919885584 -0.5908821867759759 0.5865079689676803 0.7793916139067157
Ni 4.496234318921553 0.2988655033696423 5.935940365692373 0.25401085126765927 -0.7876224864569403 -0.1325110573882492
Ni 2.677118908618894 1.5430346464460436 4.811130987780875 -0.3370371716622195 -0.04788448238610463 -0.10617293371435263
Ni 3.0853834676304968 4.09670500797863 4.637028830716143 -0.07795893317398188 0.4519505705733636 -0.07448871523719429
Ni 5.089789010778414 4.529920972888891 2.6872898777286145 0.8711267749291836 1.0442347799031886 -1.0195169654415344
Ni 7.324379169355976 6.321720684943723 2.759917870529399 -0.21118012925537824 -0.3285625585323051 -0.9311172965502029
Ni 5.125235347982728 4.721509869320864 11.444800195360742 -0.21106905759881067 -0.3401638902166594 0.16708545292900903
Ni 5.7950249320753455 8.017288283977475 12.307663126616012 -1.2220620447297341 0.08975155493353575 1.0618396374691454
Ni 1.895061534007217 6.638671219981178 0.2920550780417157 0.6586847482422462 -0.1804654737803408 -0.3137239508575758
Ni 2.7374444595890672 1.5159265005800153 0.2366494209217953 -0.9141415879278127 -0.008345029530585628 2.0571080147759604
Ni 0.7010911904726075 -0.2476578187719844 4.370580302178236 -0.12071046520889533 0.22150130867572818 0.25042416235766546
Ni 8.6573256853403 2.2934357708253548 1.23186940845077 0.21457449964890787 0.6902807778809725 0.6665669792038005
Ni 7.181754586994932 0.39459136905946984 4.6700350738318495 0.13583060867978541 0.5689175095794267 0.49516901494236654
Ni 0.74685017384726 7.266138166220375 2.273324847430871 -0.502831930804263 -0.25316418699664783 0.8535157467156398
Ni 7.5673959363906445 3.935256326990244 3.6900205542736666 0.17543048245959464 -0.33199395281135724 0.4482026734951571
Ni 7.439065396323803 4.171775802073001 12.463446529982996 1.0152299080304064 -1.1201645984622837 0.09809632735380525
Ni 7.873102546744653 8.536006806171564 7.100437368610127 -0.059587372645329637 0.6650369157125192 0.18860481505802354
Ni 6.845880689147537 0.8252815117234247 0.3593634130568728 -0.214152838730457 -0.30578926939153145 0.36912608177696427
Ni 1.994172308323658 6.370053317852661 9.235425846368216 -0.036941353111039604 0.2627652004215217 0.06948791958849322
Ni 9.207745577849753 4.963660330761944 1.2318955780989096 -0.5888469015135019 -0.7520751854799499 0.8367773509150362
Ni 6.1033304592101185 1.9969065853534207 6.617423270495109 0.9000300882270951 0.08473404711428632 0.39617460125432413
Ni 3.51692998946978 4.443543085994875 0.6018874687851876 0.18611881541137623 1.0253392285502665 -0.7351290445439146
Ni 5.989537609885678 5.692033830620957 4.74438033699159 0.2763691643582014 -0.2580567392022588 0.7616345470336109
Ni 5.291890886549243 2.75403962611624 9.326136163631832 -0.764325977822845 1.0901048029624258 0.24356188802019343
P 0.20735746303859695 5.7230944957577305 12.411118062523633 0.1851230271570102 -0.8218844929636038 -0.8191493534206279
P 4.111955596032422 6.439186309024313 12.664636980077235 -0.8748888130747771 -0.8780633541480167 0.0783332857942651
P 2.3543749549243196 8.519718456208787 1.5438585391616122 0.7182212130449824 0.391883430078138 -0.6729471716985314
P 6.274182165495575 7.676938473896542 5.930220943971371 -0.27585931460131846 -0.04055735259707209 -0.552066756570675
P 4.806534153724898 1.4103725784112626 12.845581146527996 0.33713513069266454 -2.1567122941338597 -1.4173542991102621
P 3.995942838624412 6.157339198560377 8.305521690989144 -0.5392922305138261 -0.42985553844653707 -0.46789063884238774
P 4.70791067630485 1.1652983355918227 3.932194478157906 0.6737696675998267 0.15211751876526705 -0.07138025151519965
P 0.12428236622013598 5.581985948185466 3.633558184809901 0.8336110373719128 -0.24736172138225787 -0.12763470313255437
Ni 1.7234608343439697 1.3073002608074757 2.6108708955542226 -0.5477262202137921 -0.4536482699907607 -0.844740314515855
Ni 1.8298539900565112 6.323480368180699 4.785852010079642 0.7321949016162551 0.5605336563911056 -0.13314920519288034
Ni 5.998327002053958 5.593554737466507 9.28021294315506 -0.7399418925515256 0.4563445858760012 -0.390451839837934
Ni 8.496779406011902 2.2689897098562906 10.087960790624926 1.3919353448165253 0.18901053513687446 0.15111658830457844
Ni 2.4815865169327753 5.011875651455083 6.863400817376197 -0.03464715776022421 0.2645135505711961 1.0420148894337344
Ni 0.44366216652627705 8.891986213003483 9.176454800289683 0.805754934391593 0.28109253797579975 0.41453304915685385
Ni 1.491164599029955 1.1246902608923794 11.325430503777579 0.3620650611651248 0.20335446256337236 -0.32503191967122735
Ni 3.972462347431534 6.844021741727962 1.738101398875609 1.0045994248997536 0.9304840338415781 -0.3982625941316045
Ni 5.5899270827933565 7.669132699537649 8.027727266380213 -0.17074696094099626 0.9233687629530355 0.42401913427041815
Ni 5.17905458298439 3.3083669178134394 4.64076657839181 1.0458625453145989 -1.6461002051635456 0.667421871004928
Ni 0.842331488687231 7.214286166837486 7.0397093464996 -0.18600311576911838 -0.039454092230564314 0.16601458846233344
Ni 5.025411676354897 4.514859889183697 7.16294853640079 -0.6752945888847854 -0.5452775015629836 -0.10475497032090346
Ni 8.110181510856602 6.929840139592786 9.145681098880784 0.035272964269681184 0.578857394400958 0.026392373950599707
Ni 4.587160310181906 0.5944363382786698 10.562759424027414 -0.3872981247003008 -0.2522164783713979 -0.02328288178734055
Ni 8.162674215418082 7.030223300249809 5.047308452634496 0.6279068436294412 0.3503899388200417 -0.29398867721217753
Ni 7.1445846626200415 5.831770727670041 6.991105090691005 0.540409889058037 0.5977866272052931 0.7828754586902582
Ni 2.33027180658605 5.362440648327076 2.5351783467161204 -0.6684685671018874 -0.8945670082299947 0.46844728267680613
Ni 2.5456209387254973 5.096890911842517 11.586874312709194 -0.6451728297987406 0.7900994872425231 -0.601003591480694
Ni 0.997235050435727 3.3931204817194773 3.6107355444271536 -0.40829966665263234 0.7408875442942466 0.25113172994765137
Ni 3.803406420449452 2.609168063621826 2.515419359969031 -0.5320329778482514 0.30375089880526396 -0.047152746426402666
Ni 0.976380548073413 3.2511005084706244 8.10893980617246 0.12924035705677742 0.2772068297681484 0.30737049783572223
Ni 3.464563621140698 2.4668232257753777 6.945816258581207 0.36416950910263735 0.8567921034740663 -0.02635226474128365
Ni 4.09816689866781 6.8561139239717965 6.075253133961263 0.11065359519352556 -0.45303531899711014 -0.48593824037271793
Ni 0.8435298780916946 7.441149944158376 11.267198524658577 1.149399069847369 -0.536103034152567 -0.2462209229095953
P 0.18239974032831913 5.438639444496432 8.065447655767695 0.3852870078075429 -0.8522713327855774 -0.10485832866798714
P 8.305659758443122 1.4476778630351512 8.032824933357483 1.3595726122151037 0.4693016602573014 -1.0780226749869113
P 1.8463318443678851 3.282332629922796 10.399302899345557 -0.38265522661165063 -0.49395802535340083 -0.3391243932085514
P 4.055564516299794 6.037752930578817 3.8740419103849835 -1.2113945377135587 0.35132762014296265 0.10844296069545194
P 6.878791277687285 3.962626169337669 10.269551979065895 0.36620273748258225 -0.724038591057708 1.4641869431930847
P 6.3240398572098915 7.923907760201955 10.190095512903985 -0.5362362172963216 -0.22810210182169746 -0.6330490499520129
P 2.3032087808030206 8.218984079001311 5.803613088673448 0.0762010699426107 1.2114562441894297 -0.3639807901305989
P 7.062628543859965 4.028330034201368 1.5150791454212869 0.6231173926605977 0.38591255720668377 0.8275740871492135
Ni 5.415826730531944 3.1356472400918074 0.6053806656109998 0.030366013886367057 -0.06661856846049817 -0.6025395685092462
Ni 1.2291883731189468 0.8511876585783494 7.028376986453475 0.2786970411604297 0.12892771091236505 -0.6177527859145748
Ni 6.611048705168956 0.8925032161792229 9.122171730834788 0.32635269536517986 -1.940022805024478 0.03027448261382528
Ni 2.656950231518171 1.596917049563905 9.144676725833218 0.3004172064463407 -0.48728678398081243 0.12489262161104299
Ni 6.445124111947032 1.9360486174038551 2.6647704443036235 0.34057038162645864 0.1880106331174504 0.16455163076356177
Ni 4.181801484515463 7.0308188853454014 10.570155508032673 0.2076093811849844 -0.21930275836251265 -1.2991282908861175
Ni 7.969118083367337 7.1947852669651535 0.27538050016846427 -0.13868993250545147 0.27669312335652346 0.8483853674676098
Ni 7.549826176070685 3.622520007704932 8.221006361121344 -0.1483876194091896 0.07043074311773677 -0.9355215962654857
Ni 3.1548954674993435 8.476060263898585 12.382734823112042 0.33808515331075967 -0.3789173568357732 0.26747314742015227
Ni 0.04796264822834239 4.721112812590469 10.221343877586035 0.3674720911133091 0.319080844294115 0.5325263725449022
Ni 8.584294318997502 2.192664577454537 5.882330487875828 -0.3987714154472229 1.0221675156905041 -0.37521985337952796
Ni 3.54242283636443 2.858248969811611 11.762006110067974 0.6450923542697923 0.30099339066478487 -1.1483341189179643
Ni 0.9256475267489086 3.3924797765408865 12.550272910502025 0.2789883471486034 0.2503665696468527 -0.4146567192189117
Ni 3.0450100173626504 8.377671410910134 7.849636493978334 0.5114248146795967 0.0038026615755418383 1.2778616681978574
Ni 5.577934164732122 7.912005082306719 3.8171563145426832 -0.6850372700938461 0.11695331215930825 -0.40020583390090425
Ni 3.1683953963327585 8.361626709395555 3.684618777936981 -0.3534485231407074 -0.28982966073848154 0.12738890567033542
Ni 3.489966227869349 4.181611980166866 9.243324568098085 -0.4539956260278504 0.6284488321758402 -0.05261634064413519
Ni 7.270442622138516 6.261133437492154 11.365065789487556 0.11567701655004593 -0.5743391948156301 -0.3893858604672649
Ni 0.5228361809686114 9.000743661065192 0.3215410522818114 0.8723465062688976 -0.08328523048290173 -0.193568329710886
Ni 4.641728538561358 0.39314933120680956 1.8278073430916593 -0.3032546758951358 -0.6129651347179443 -0.9624302477308716
Ni 5.93323677031905 5.682630805323886 0.40051563595728856 -0.0747064876749552 0.8688654896988327 0.8698540788643471
Ni 7.96525580426259 8.601385806437667 11.392855248606873 -0.10723531354059596 1.9676446805068049 -0.23605580945113536
Ni 0.18606710067450888 4.879204559403702 5.838269824425272 -0.666548210150723 -1.0571448030966375 0.15234608983630538
Ni 8.06581042123501 8.905549309953097 2.2528403297491515 -0.1836338442059934 0.23152501146031737 0.8201060609069425
P 8.714131869836521 1.620541925022381 3.5256390678903204 -1.020463902735836 -0.2387906918837952 0.5117752560404799
P 1.9341716219510807 3.34985934613967 1.4360711728843902 -1.0078660114661673 -0.7212597427609901 0.563243599123101
P 4.727664248641979 1.0934671634568076 8.048185614413793 -1.0197013135381987 -1.1070062067034547 0.54930564888577
P 8.670618061791918 1.5569135839766532 12.294957311243385 -1.7155091918849874 0.17555081008754284 0.44817747668417646
P 6.210950881180242 7.831348421937025 1.6452262200296823 0.13208245449126282 0.0645899680662436 -0.9985480764993512
P 1.6306939436972419 3.119629610627027 5.960122925376721 -0.264125571104158 -0.3012031926827458 -0.14623766294572235
P 6.810317039727424 3.9614981672626843 6.009889474523379 0.6077923322677533 -0.3750391048272896 -0.9654847182864791
P 2.5344040860918513 8.525060674035913 10.198244199893672 -0.6890235084351036 0.19885760313428333 -0.5926701319143342
