# total energy = -340856.5763768049 ev
CRYSTAL
PRIMVEC
9.36407676543515 0.00000000000000 0.00000000000000
0.00000000000000 9.36407676543515 0.00000000000000
0.00000000000000 0.00000000000000 13.70527288159360
PRIMCOORD
 96 1
Ni 7.370061924417208 0.8725699273170703 7.150053884455693 -0.11616244082689672 0.9068766788352833 0.5362233617805151
Ni 2.9326508290389457 1.9814292143323253 8.024258779522246 0.2658307267207228 -1.615474766968205 -1.662766867185949
Ni 0.47209085101293297 6.853361549568351 4.36480017371145 -1.526892292642106 0.10292820152480982 0.5657360265276515
Ni 5.245568349967069 4.972961356136084 7.272483565691742 0.8625117795666629 -0.756348358934007 0.9876684534723699
Ni 7.353918256604463 7.746685079538198 13.104049265516167 0.47760426658572586 0.8350218016765104 -0.15713014148851004
Ni 5.590643931502712 6.427689361962933 11.7661680785414 2.7162388494166896 0.1641878196662398 1.8859985282892227
Ni 4.528280093321924 1.632130434314346 3.4423805853728338 0.0565760966228316 0.9501897398006216 -1.0026471862693893
Ni 1.3977569646593677 2.67853788621154 0.9637891417202429 -0.8689729618109745 -0.21894563213341 1.5286272730553416
Ni 1.897143162138292 4.296509836922133 6.246068417031329 -0.24069973598105 0.368153690561366 1.4579247643334567
Ni 5.200068302460036 4.527427962364291 3.3948916080262257 0.1021499285978886 0.6010185038790294 -0.017638024796737366
Ni 4.526735020706435 0.3103067656489142 8.136162302412407 0.9918102435548855 -0.5015486932164652 0.5594753903299203
Ni 0.826682207044696 6.555902296819138 7.30245703802458 0.0817327983941173 -0.22720915769378286 0.06945372391644813
Ni 7.698413265399742 6.593845534624963 5.925556680859021 0.1241637138648184 -0.45712028769976115 1.4756113829799427
Ni 7.698806556610957 1.6869664660495154 0.512060474964162 -0.25145928849039917 -0.9707565082083798 -0.5333069594646687
Ni 6.439572374987511 7.460453354461538 8.426878483704568 -0.46099288328128996 0.013998885382253311 -0.4635166781444082
Ni 6.418053727288156 5.126522845962765 9.708389803220426 -1.904495558652146 0.907170041705986 0.9276781889616669
Ni 1.031874405235141 0.5265204818298465 8.777898380975438 0.3167467968442996 -1.9029079024500515 -0.6361014636250916
Ni 5.07896270163508 6.983278746339822 3.408980797464193 1.8744807574576106 -0.880613117153064 1.331934795893177
Ni 1.6430770396931733 3.048962022717658 9.431735655544507 -1.3261778388047418 1.2015274151114919 -0.7896189480616789
Ni 0.9621120356267031 8.314157476939664 10.990134288240077 -0.8943101550241824 0.9304166709387526 0.05686457439752788
Ni 7.15060542855904 0.4165459586899303 2.6075375856954195 2.089742770091846 1.5276497396334208 0.4910326241764898
Ni 4.022844702451449 4.795896034401058 12.381562073621813 0.4129680186625791 -0.35517321914129796 2.9078333432306565
Ni 2.493915754775304 8.778203649867953 6.967459075572508 -1.6051348184947776 1.4356021895768567 -0.4109977823100857
Ni 4.351654883180401 8.353421049525997 13.711850867404834 -0.07152963260887035 -1.381483296245266 0.5909382368248919
P 5.659338796394994 8.219037188284293 10.449036748588826 1.2067331276821476 2.8618121393055356 -0.09530565198254555
P 9.449289553271752 0.6566446246910292 1.7134742936854301 -0.2613444088145951 1.9825753336747083 -0.9424882573913059
P 0.5040766633764903 5.096005320787745 10.645967958528457 -0.3918836871884541 0.17375489452938464 -0.3191615769333793
P 5.806841728753667 2.393373665851036 6.403774447098103 0.5018711095528905 -0.23066652011476405 0.7357016292179329
P 8.710595017844742 1.7311180865466675 9.085677782388471 -1.7057855368393202 0.8291895112654494 0.2274446707433567
P 4.7942760491739085 4.947434883712916 1.251020013754919 -0.886165671540177 0.7651636432327918 -0.23914447567878816
P 8.501879117683336 6.140333947711372 0.6663710909074433 0.38445268483170564 -0.10772947956819512 -0.26687588015578556
P 2.8042974330358783 5.971424736570835 8.176428767587339 -1.6783086715752902 -1.7490016672154782 0.25656267115523557
Ni 0.3925383394681702 2.2149880093355003 7.248485310546439 -0.8311417498958137 1.3643700336037472 1.4899558246270725
Ni 4.041797593201446 7.2256959576718005 7.253200123042794 3.770568037441403 0.20883245495880812 0.5744250696612172
Ni 1.2391763298514624 1.482764050740629 10.871679657460241 -0.989843863857134 -1.9512245872775684 2.5010832804533316
Ni 4.278034514071469 8.333634755971284 5.19284579028836 2.4736048725274045 -2.881200571134477 1.0318065814421649
Ni 1.8538343085223155 2.0438876043039063 5.640472991556051 1.9248363270920268 -1.208935534650105 0.07869298312652899
Ni 8.078051653140047 5.756219531424376 12.025636336694857 0.7671968716127368 -0.8572086221861946 -0.5245495249870128
Ni 0.3848551147347845 9.119027940691886 13.206770375032098 0.7694794969993264 0.9620407256019367 -0.5648294555529821
Ni 3.666082753496836 6.975441014344888 1.6839671523601754 -0.26778065135824203 -3.0043088471515875 -3.018544274024679
Ni 1.5777906986314245 2.0671666983772723 3.42189104967616 -1.214423811458186 -1.0480814073427887 -1.1819800891071839
Ni 4.416070365131601 8.997538412732172 2.265166349440705 -0.2540116225986077 0.47883479655871725 1.820671939167271
Ni 4.112636831602497 1.1043523570162561 5.595437402241311 -0.06299562699593021 0.7122395415402507 2.6592822295259877
Ni 2.2796375931981383 7.771537338456424 9.193331887382216 0.7751667771920908 0.4923300028316746 0.23487233066599553
Ni 9.745100728564442 9.295287951851568 3.6419290546823384 0.5338440629150613 -1.295120712388621 0.8036327458422676
Ni 1.8531975513232049 4.818313633440333 3.9795452129119306 -0.4039172213142205 -0.3321860142175053 0.42935443044040245
Ni 7.739306187289681 8.408163440496592 10.649311870231434 0.7157526968998319 0.1464580064866445 0.3453004401122763
Ni 7.788383312003482 3.652720216391971 6.542540696121919 -0.25500201153633506 -0.05486734146184099 -0.36240444678241457
Ni 0.4957548086287025 3.3394169462766543 11.789522085226427 -0.6630486816378969 1.5791193682676226 0.8089888679478583
Ni 2.6984459127602025 7.327979764817165 3.550213544226918 -2.0707767705123046 -1.1550464979411332 -0.9790177197759073
Ni 8.542659670655786 8.25802920265336 7.808605971521118 0.6354399187816927 0.5851913070387857 0.00680442451634312
Ni 4.514870735834772 2.7100573675675133 10.828070216989977 0.47746774100786155 -0.8239768567162584 -0.4500497540062249
Ni 3.030908083307582 0.3452694179183134 12.34459925462109 -0.7318244056507138 1.9526178680806694 -0.40176083709285
Ni 2.3022050174607336 5.612209399584355 13.991301128310965 0.5025961606443732 -0.7658611835204487 -0.5534659509110469
Ni 4.261197904600869 3.353575429880407 5.149413330863144 -1.003692082594136 1.3211107086944798 1.2130451859431044
Ni 0.29283433538684916 7.906080388997906 1.3446542234764831 -0.8405069931607977 -1.4240255404828508 1.1185571447658478
P 2.969376736905294 10.007388510139254 10.043346563736087 0.7975446306666587 -0.8066931299351462 -0.9169263497618015
P 0.4792084855282851 8.426011370224604 6.090965600219742 -0.0989213943582619 0.2276758129175563 -0.8228208887349442
P 7.3432525735193614 5.382143405099829 7.911533090719113 2.1740970652692106 0.49322089007706027 -1.2326562753058126
P 2.25606821275459 2.798107778497465 12.813511001676702 2.342652932096159 -0.45985439880147255 -0.926488796639256
P 6.1012670207306465 4.394186518450404 11.811601641105586 0.3356701161113638 -1.7824008115012142 -0.21798866753677942
P 7.282685726992198 7.357682615340382 4.017550253622374 0.22059088104631686 0.4625049490504422 -1.5354972607022974
P 3.109940888608953 3.3679867435485127 3.140768364714716 2.0889989499472863 0.11163087150513033 -1.1013376955637677
P 2.3795054686174657 7.661518804157158 13.1005274363605 -0.9057327950388272 1.671870115038798 2.463595053699886
Ni 6.789086528764013 0.13202692319734854 4.740077711045495 -0.7484291040869304 -0.3945931156998172 1.2132896978537426
Ni 6.831852265945455 7.612216941608376 1.6968090468140025 0.12243079033411174 -1.3803255284917388 0.639151563305325
Ni 0.07932777370978263 4.658562489075239 8.67009257794308 -0.060196724094554385 -1.0956344745314035 -2.7050733197181738
Ni 8.93406870250318 3.8643108880258317 0.2388420069405014 -0.45046730115961775 1.6227990685437599 -0.0018465662904355296
Ni 5.7902766775003345 2.993002301807588 1.746942439352211 0.29316386731803706 -0.5030635871990949 -2.075588590078651
Ni 1.1256556309570878 5.918040136686579 2.148150977212388 -1.184013574597445 -0.37668435374019643 -0.14096355903097657
Ni 6.44412331614586 2.7097670811973305 8.541564073710257 -0.49229555004931347 0.140886425936138 -0.12154350263315199
Ni 2.9758660418903475 4.394036693227084 10.630385198895517 -1.5646330017259893 0.9419213291442423 -2.3220771648273364
Ni 8.83951025843526 1.254215036642221 5.367218003634208 0.10389082254839527 -0.020689152918235337 -0.6270473238426233
Ni 1.8263601081959855 6.30529151858684 11.70616682223227 0.07079583976663938 -1.6693236944678607 -1.068200546690167
Ni 3.806178701377619 7.61404293651759 11.471957223915298 -2.4338931557600794 2.4573171911109744 1.7006194192573485
Ni 5.253125159668278 2.6488912201470685 13.17396052394028 0.5665415531480823 1.0072155223663621 -0.8382516214677177
Ni 7.9241436924844395 4.757924704365861 4.107429468684477 0.34032664104676874 -0.35725581270193957 -0.009355473072970985
Ni 7.940877297114007 3.6016953637750078 10.191788712963447 1.9646539733095973 0.19993078159380406 -2.2628957693711738
Ni 7.565396559320834 2.6938949716018534 11.979737379530732 -0.8098432455283537 -0.6187714569870763 3.853439320315338
Ni 8.746412610294712 2.8292246045657654 2.35908897271716 -0.5113178567880872 -0.4443416478778542 1.3123095654630816
Ni 4.554405866638373 6.670434315970923 9.801243048965434 -1.7541101920866373 -3.4414393219929824 -5.051186185338475
Ni 6.478985772797164 1.1379600274222537 10.619489159529563 -0.23538963662204623 -0.44936198391058096 -1.459674657145028
Ni 8.690883636901686 6.651153682544914 9.601639331604831 0.10600118402317875 -0.14072110400286733 0.06979053843057657
Ni 2.6165383359863763 6.641162212964752 5.584364381830308 -0.2299191004257782 -1.84220827057715 1.3408593520763163
Ni 2.2306166529430818 9.356360458507437 1.343699087677817 -0.7173838047453516 -0.703738188937459 -0.2112768027342426
Ni 6.7012795838219565 4.9953695910989016 0.22431926076255157 -0.8184150463577649 -0.07471522942570359 0.0728501511925068
Ni 3.521304767387298 1.846886163790844 0.9052945653131249 1.4968800625507317 0.1861877209760987 0.36021181000646996
Ni 5.6791719103319975 0.39805939894751713 12.701429561333844 1.2593571816357667 0.6327564584122586 -1.4514034182751714
P 5.909228540740064 9.590780748544704 1.0602016729267496 0.5477167071320954 0.9715872316397912 -2.524619158791742
P 0.1589935905796813 3.3213723709430356 4.991199767852373 0.13397812885207894 0.9310288506014547 -0.14635850479430276
P 2.995764704362553 -0.1381632024999538 4.014630534582923 -2.565773778653181 5.045493505829072 -1.4392870946276115
P 6.7162621061539705 2.68969986534889 3.56977135431607 0.9159786411365516 0.0232312026137987 1.0950791162485656
P 5.970291683319476 8.709742886887108 6.57655757666911 -0.2860146578677655 -0.7768624197269589 1.218079148822586
P 3.6676278261123247 3.860452888525338 8.311685360754883 -0.31811410950547153 0.9231080530924812 1.4874207169100446
P 8.20766919946488 0.6578553997769852 12.09155849854807 -0.5414270174686416 -0.3269800445365336 -0.12654558383343367
P 4.803349839261235 5.585755883591893 5.349223057905813 -1.1872642203242585 1.4119320996534264 -1.6256658485685935
