# total energy = -381172.56212099857 ev
CRYSTAL
PRIMVEC
9.17729588905100 0.00000000000000 0.00000000000000

0.00000000000000 9.17729588905100 0.00000000000000

0.00000000000000 0.00000000000000 13.43190018891432

PRIMCOORD
 96 1
Ni 4.440609015646249 7.506954671463779 1.481457847482103 -1.2939117796821844 0.8561310728512997 -0.5549947288507473
Ni 2.643107121041435 1.8987182916741916 12.697457058590084 -0.5260618478664811 -0.8748152795243642 0.4124784806206703
Ni 8.436880893119678 3.8127810221823664 10.874641428557174 0.03257613416380842 -0.14210358617269075 -0.5398604443124703
Ni 3.294318864594426 0.11293121535381462 10.99370124214863 -0.8432953545392121 0.3394972031669379 0.32734514118543623
Ni 4.002393133874306 3.040456503933159 6.7509538095267745 1.7637729119873817 -2.9250517639914717 -1.0770430846824612
Ni 8.737226257784608 3.8357059074738076 4.216743564538067 -2.1896396409895 -1.390915131082127 1.4198600962512513
Ni 5.900707624526551 0.2114008477443574 1.7242395410093083 0.3200563208335069 0.6356666900805181 0.27255364726685316
Ni 6.509400955927722 2.3955128535162986 9.703930492973514 -0.6499411977216613 -0.4884160124892492 0.7862657153187297
Ni 2.990651318794388 0.2584372426940065 2.733593423682168 -0.8759987583095042 1.0593634080145111 0.9615167347776666
Ni 4.3104015406602745 5.266941920580858 6.843795006309135 1.6629370742152265 1.9071911032064381 -0.3226171395821476
Ni 1.1571927786443905 8.86626821618451 12.225984491742429 -0.15282174392114325 -0.37041831822582655 1.979749434190139e-05
Ni 7.415851654534981 5.176848406206927 1.7655961074934357 1.0835400052607147 -0.8468846145523673 -0.3645037525136045
Ni 4.495140508200991 3.852050671566705 8.911676558832037 0.6826230042253986 1.0456637990402313 -0.3110204358834837
Ni 4.2676445188136665 1.1079106993749592 4.941180034773155 0.17454396608958325 -0.386634780084689 -0.6272887504294681
Ni 8.426437130324778 6.132728020818871 9.800048902140812 1.0176814548946924 0.8730363332470706 0.32905955277338167
Ni 8.714980492393714 7.38943939678127 1.806859065558839 1.420471247472689 0.080304550588023 -0.5381596595712796
Ni 4.834471026075705 3.7661236495555905 0.5955762222950632 -0.10022468655071771 1.1850484436198623 -0.6726237269208416
Ni 4.253878574883658 6.096688779610108 3.8247601465902603 -1.2529345659388744 -1.544909812265449 1.2145747352137535
Ni 6.756306926256358 7.656425290655813 11.799615581316653 2.716245791395225 -0.710262363209222 -0.8292067376566299
Ni 7.723942656984529 6.546458876987305 7.456329953796374 1.5770264902943356 0.5977755714616995 0.475175345429259
Ni 0.5765718778348886 0.9699117001245988 0.8746862418535614 1.619058370554405 1.2264797141814554 0.7895742108666723
Ni 2.78367576315873 5.752677840799191 1.3880256328403482 1.4643139556892524 -1.1771191614704566 0.23904523109676248
Ni 1.9544611872947735 4.208882292824437 9.808242391967953 -0.5377433979694674 -1.4049464123642126 -0.33231045561051153
Ni 6.53786892797498 3.2742022318647064 3.050747005885638 0.9461333103430608 -2.5273401572673313 -2.228955150759671
P 8.945743599140426 7.027349184942275 12.64669835240176 -0.27009978640972193 1.231413404037647 0.14497602262447937
Ni 7.549436374431785 5.221046263518208 12.616436218995624 0.5612833900729366 -0.04293767990379056 0.7994310490560941
P 5.722668083031772 8.806184459577999 6.2132881601564725 -0.20069208523986082 2.117798390677482 0.3937801328802186
Ni 1.0829392770859234 5.501229108973653 11.676176362096264 -0.2557658862855531 1.1865085731051568 -0.1051501488767931
P 3.450351250393098 0.29043663822410937 0.7461270092208055 0.26576079271473585 0.4697636874953845 -2.1512376441725336
P 7.965112817342328 6.207789124421231 4.577967439639067 1.975143045766379 0.008526549413772413 0.7390556332918304
P 7.923392829938448 1.2195249727594697 2.2635167235490172 -0.024098692820416562 0.170342526413726 0.19505211334526407
Ni 3.9137679868529105 3.153961300284057 11.109726123968313 0.6970936870377478 -0.5387543557324851 -0.4258513023831505
Ni 8.690880913220246 1.3373981619841575 4.809251816795929 0.9750314814346498 0.3727580221025968 0.07211095903363711
Ni 0.5015300465540299 5.276669854291397 3.031056199688154 1.3143731328603299 1.7129442593712885 -1.0413839407179548
Ni 0.7909993977846572 -0.1428932511822762 6.643028809115506 -0.46854781281041247 0.8374769480852222 -0.3120385927353529
Ni 6.870555083579476 7.034424880122301 2.9143329256464194 -2.1185866909067324 1.195882558120889 2.214231214285935
Ni 5.2107768693464225 6.144383186679612 12.882683340545922 -0.9243504101400145 -1.650731276177654 -0.5738411721332891
Ni 7.079026538455528 0.8685429599423962 11.584127165954678 -2.0864376169780128 0.2938974030499519 -0.7654158684529141
Ni 5.120866900891558 5.443320371508083 1.9278406049229229 1.1957380621232248 -0.6588289871295945 0.2569570783801768
Ni 0.29012002151371913 5.214007277521998 6.124946591580034 -0.5577139275541234 -0.27174734931547395 -0.6311140377128293
Ni 2.238617801898013 3.381493998855194 1.0997493300836547 -0.23469003945186034 0.14072496065760925 0.8955625393740448
Ni 4.495259813048384 8.896433987983135 8.368060350765589 0.6264639405353275 -0.5875546650646397 -0.10830489245569089
Ni 4.6786221861961 8.206769374385653 3.6696353953613734 1.7167952576862626 1.6985270555046943 -0.4491771215932845
Ni 6.128607414935821 6.871381040215277 5.663909527960922 -1.3779151192780332 -0.6890142524637229 -0.33882151725615195
Ni 1.8580353387130395 0.2634049129935489 8.730856296663395 -1.0633969546539361 -1.8363983487635922 1.1705463933489453
Ni 3.14778498010746 4.641775342943443 12.664280215989168 -0.9179144247066836 -0.21005527162231566 0.5435265803101478
Ni 3.6740937257355055 5.521685301653645 10.50447152536086 0.6480313822934581 1.066991356873414 -0.3465209427829387
Ni 2.787401745315786 3.974439090400435 3.6235773001603504 1.0646771069179406 1.855540468909682 -0.36309478798121986
Ni 3.5277525644635603 1.744227691595681 9.17017345394974 0.07422312028063346 0.8926319959908112 -0.25870080054416095
Ni 7.538074882041551 0.9816861708327329 7.020101874327923 -0.6027298301431813 -0.3524401364808511 0.06338592045581341
Ni 5.042566211817669 1.8174716905992805 12.949869406490723 -1.20411497333301 -1.2120355137316674 -1.349297969761973
Ni 5.734323248892513 6.615105050718282 8.640701294406577 -0.3897748683755674 -0.9871148949617452 -0.631693307255067
Ni 7.369432891602992 4.28832096659654 8.798781134932439 0.4632899068455828 1.0361098368032091 -0.5489999447198932
Ni 1.2116967393112716 1.5167317022083573 10.56851436744164 0.5759474198430146 1.1134360214891985 0.6884095290001886
Ni 7.921759271258754 0.008658778731975465 0.11299086777751131 -0.5735051289501091 -0.9144323796953543 -0.20095639464484102
Ni 6.667938743521655 4.66671923334462 6.5591731028010605 -0.9688508065452348 0.666792207840729 -0.6111836173374893
P 2.7362933841516406 5.781540436572442 5.43934201371231 -1.33022115563618 -1.589530022077985 -1.2687566205727956
Ni 8.43800970052194 3.2522226080564596 6.557924072821812 1.0116627595044385 -2.057236055713392 0.9589263483426711
P 5.225341238024372 0.7401691086878978 10.30367779627937 0.07581103359304363 -0.5970741745193008 -0.08188937857663962
Ni 1.619774381172449 6.7920616712905675 7.057913251385276 1.0484866132010073 1.1220427893216032 2.162012880411167
P 3.669440836687163 6.914853891146245 8.118173594711308 -1.0146755781888332 -0.06792443175611527 1.2137594384013097
P 6.291430999739965 2.824523907447043 7.555376838102381 -0.519697339101034 -0.6804913025943765 -0.13456022660779407
P 1.982103202706231 0.31359462683276523 4.752166282777374 -0.5759960136927629 0.4216159241455642 -0.0843938901660482
Ni 6.743238456818803 0.1711997028207554 4.0790125423295445 -0.4006074402146972 0.046371902396320136 -0.6101086391057556
Ni 8.610304254749927 1.3888919695783433 9.091139498929179 0.36888671207264856 0.2232386030818091 -0.3818710401474585
Ni 8.597125657760934 8.659861652897959 10.589951613059046 1.89775772570768 -0.6700960754029814 0.3348815587717974
Ni 1.8560530427871182 2.8013604124608147 5.411363191539365 0.15247618765626642 -0.4554706679114801 0.8160131217844915
Ni 1.1811179891947456 2.489965583468065 3.352387287009584 -0.9757020251391132 -1.8592312874977075 -2.794544367296813
Ni 6.470296497870544 2.272555442333461 5.279649722287447 -0.2692510652561814 1.0618110982240554 0.598120356395628
Ni 1.6636785650132233 7.188979721272484 9.923944232970081 0.29501634714574354 0.18773861040298637 -0.4380149343288779
Ni 1.7462191648175556 7.89978882474646 0.875649857928662 0.5290075607583663 0.6434735877194466 -0.044276710430188264
Ni 0.6935099006019311 5.660583675907433 0.7335935761373303 -1.3338705794633092 -0.6304152118735917 -1.3484111962816454
Ni 3.172325069486689 6.979397813586079 12.381579120524128 -1.3686992571067202 1.2910072044408798 -0.011267345383703177
Ni 1.4899523526165137 2.2863672727432363 7.59068923747164 -0.9625120088114004 -0.5907382049989439 1.3255039526661687
Ni 8.781965575557136 2.0345973355593308 12.3864816320224 0.7685837246579343 0.05480820608913141 0.7321627628267391
Ni 6.263091509836054 4.994688258829099 4.268295189096759 -0.6272393852487714 0.031131945518114126 0.17228730884492263
Ni 2.251236583833854 7.18786926846213 3.061358713196484 0.858105165858535 0.20167501797842044 -0.29218710522706454
Ni 6.86564523024444 2.3188457231221036 0.6221591777535054 1.1021787034078243 0.34717631697875045 0.6768385363331376
Ni 0.48136202096697184 9.129463886830322 2.9751389354444586 0.36938602030657025 0.07608305630750768 1.2983808711971316
Ni 3.009529016570406 0.5389440466966029 6.810148286155408 0.41117364576631765 0.9859998075206955 -0.5618675447111807
Ni 6.240065674289125 5.5645891602355055 10.676829402930927 -0.6672177254139219 -1.5284156712651678 -0.1585506759851205
Ni 2.3107513480912587 4.335905246114604 7.267866839557792 -1.5972955249560168 1.6822519724937544 0.6994804421023696
Ni 5.158723246699083 8.695524624972634 12.930809998254828 -1.0981101897654058 0.14746202227112667 -0.22561764483694693
Ni 6.7166885396257925 7.210500480283065 0.6552359878285302 0.4881342195827722 -0.0016779019230551747 0.1887760505285652
Ni 0.9072995984829427 7.099565326799101 4.77219297800675 -0.7224774172181752 0.5334365430639975 0.4019809235234561
Ni 4.441159653403449 2.345221271692 2.263127606200596 -0.8178594309646108 -1.2116729881859263 0.717698507772293
Ni 8.056711408252605 8.227877155078334 5.661895111499166 -0.13023460264924666 -0.44125838096684006 -0.33639105343778836
Ni 8.901206181878871 3.4413391457669187 1.1173458773445872 0.6802833003486284 -0.41538151320007816 0.5173481221425671
P 0.39438419856920026 4.734236599673335 8.402123720155597 -1.0720541161083021 -0.02134067045930518 -0.6683706080714424
Ni 3.601721569847473 7.72048281641012 5.576267269336129 -0.30523545377059047 0.5690856597261746 1.193969400258576
P 9.104318095918174 8.19252621106607 8.492869740271809 -0.41023082223707413 -0.45040585179406295 0.32524789233677537
Ni 4.859093711118513 7.609153039200162 10.642887173847502 -0.32047643909006096 0.13224109155631417 -0.6058514064912985
P 1.2012529765163715 3.4069334632378503 11.923793572861284 0.6738424298192911 -0.4528427433703298 0.15024344167100576
P 5.831877904876508 3.7844415322784553 12.08038210279473 0.2623332550904256 0.3344742960310498 -0.19310193159742875
P 4.698692932446052 3.177776383282972 4.324923693776838 -0.16129507149947706 0.29885860370996914 -0.1152988072750208
Ni 6.897536333682294 8.684750479523416 8.970938029721127 -0.2852410129265346 0.19685857042638355 0.07857316971921306
