# total energy = -340859.26158732106 ev
CRYSTAL
PRIMVEC
9.31250283452558 0.00000000000000 0.00000000000000

0.00000000000000 9.31250283452558 0.00000000000000

0.00000000000000 0.00000000000000 13.62978922054335

PRIMCOORD
 96 1
Ni 5.694046053139409 2.8199096745312975 5.761244142431504 -1.0056147535381457 3.070527609070506 0.48873045840587437
Ni 1.5842243592889091 7.763787060848158 10.655265182257548 0.7522680182170464 0.06394539250370922 0.5158111166727505
Ni 7.01428889423058 5.011029844345009 2.356795182959676 0.5471351235970126 0.8189279814384413 0.2640265836324485
Ni 0.026073145470421045 5.394565274089737 9.681157828228143 1.5591169570037666 -1.6217847683466327 1.7148381339598917
Ni 0.04041626235503513 7.595882634520674 9.039998525979174 -0.9800687867482412 1.1609358668423748 -1.8242115768894134
Ni 2.3337318384093346 8.739709421682402 6.114636862961769 0.8987350235647553 -0.43597579241166207 0.20142459253051115
Ni 0.031633640920234754 4.4399406072660845 4.4292181914882995 -0.18576657427828006 1.421129192771662 -1.3238162805511007
Ni 9.253061141111276 1.791380985115581 8.948311347950895 -0.33843790866448814 1.6165839408719835 -1.3009735716249722
Ni 3.3020924469319906 1.0248130007798504 7.511881065091844 1.0402503413341437 0.19153458711030885 -0.5132562114613806
Ni 0.22269081182538952 8.62366632370865 1.9950063098627533 0.4570526676866193 2.486706700016685 0.3545175878351701
Ni 8.293593972807297 5.776079890716713 6.898541002597069 1.253233585236532 -0.8105531271111847 -0.6485191205631541
Ni 7.780279503389811 2.8937485096034345 4.806136156710104 -0.9497480242775127 -0.3357649898180153 -1.2996347982088907
Ni 3.378976470435026 7.580880192434509 2.6675543342070855 -3.1359241321984443 -0.4405173890357575 0.6057256795467116
Ni 3.7115445720993145 1.5945146749346035 9.798237407768744 -0.4421826925533223 1.168222373201459 -1.1276699057003934
Ni 7.806866699017374 1.2076919316849608 12.168798332436534 -2.0925933521667637 1.0014523946303397 0.13541280441607648
Ni 2.1021671426212465 6.019927777759707 4.104406473445096 -1.2854716193346314 -0.21364864540052883 -0.23107738239993755
Ni 5.538471380581064 8.65899795950934 12.671669761161636 -0.8134942120173795 0.35119289433731127 -0.7426212391559016
Ni 2.5619626581782753 7.460804780728097 12.910545702934735 -0.3106453119322521 0.6637338806303795 -1.6685940153906875
Ni 7.701961354448372 3.325783454174205 8.603136911182917 -0.9402575682885741 2.10462225830684 0.10351621281779592
Ni -0.007832746144428582 4.828663101096471 0.7102031296052962 -1.1408645500137964 1.9966909471404841 -2.1460962091809104
Ni 1.7835491702214372 6.670545789150153 1.2741031144865043 -0.3281802354922219 -0.20597827333946464 0.17426037341089343
Ni -0.017977786745713206 3.088091131512934 12.32397349862275 2.636482715132969 0.6116068209178369 1.251887869841915
Ni 0.8503944787110415 2.878699505003034 1.1887074633815105 -0.5974593257728613 -1.3658612734372928 0.8238251616297425
Ni 2.1914274824076547 4.660134737078252 10.054900229979195 0.4628739023540867 -0.3348931287360233 0.9251618502977164
P 4.545441952017281 8.434194140788016 5.151556443553238 -0.8992664705881932 -0.7078007890426068 -0.07913778397343145
P 6.134518125289364 4.756267703965585 4.331560767884947 -1.2560332594688561 -0.9221420896347862 0.48462209266445566
P 9.058336706585058 3.3808855335186156 6.614672634570028 -0.3713002066101477 0.6599456172325409 0.07186053358572786
P 1.039452255254992 5.009297718815507 2.40087405268435 1.2585832795842196 -0.9072859984585602 1.820592234969271
P 2.916275453989801 2.4770791947298543 5.715448047181884 -0.05918936587596258 -1.3995296122240155 -0.013673897942666772
P 5.488723990373552 3.2106995439936696 8.599565566341175 -0.43622056143261645 0.9622564411571686 0.2800620398287564
P 7.325736239438367 4.358949770007619 0.2114645896435935 -1.5568230187632672 -0.6518507560395483 -0.02208423349354906
P 2.4759058193711603 5.443996039200457 8.17176781056569 0.3538879246709712 0.06606860949429913 -1.0608898719613664
Ni 2.032509621327315 4.618843099455619 12.928904371046881 0.23993534701119967 -0.5591522026625467 1.0881399659265711
Ni 7.942344990432362 7.636578271961112 11.51753962085023 0.24082134916057882 1.2945260162274157 0.25651947662212593
Ni 6.1056493664643385 0.8519291791801913 5.262993577618973 -0.5069202419410238 -3.602472398080325 -1.5684212651238278
Ni 4.050491738213649 3.8799984360947595 6.958375695888215 0.3670406600028453 1.1438722264918688 1.626227891719651
Ni 7.473888847227826 1.7754752302532768 6.797298265397706 1.3356060740971774 -0.38771387208148067 0.7134322762967713
Ni 2.5254576470188885 7.755917995942628 8.197473112173665 -0.4488205095848141 -0.4019210168197981 1.3885630859101827
Ni 7.170003254331626 0.3274425000974201 0.5499023618522094 1.0106566868374274 -1.4657650863134821 2.16463463430473
Ni 0.9669078580785582 1.4812560153120375 6.453950941688266 0.35488551269755014 1.2503590919022143 -0.6731757427695697
Ni 3.7565425858549664 5.589280396113108 11.445642442621647 -0.7055898974342171 0.6665469245991424 -0.7056379770633331
Ni 1.0175399360565134 6.763270379995564 6.425968733134255 -0.15523163891421654 0.37369724608741445 -0.06050757046675386
Ni 6.4287280277277565 7.6611260294652315 4.159839146640567 0.11247547889361274 -0.8463287420488973 0.19933145744690833
Ni 4.104420442199365 6.010289337313288 -0.0508714093011176 0.21005424318105112 -1.1729326341929347 1.976812463049002
Ni 1.5104320867310064 1.0110304965666126 11.849139222218453 0.3221661680876581 0.5832578374614987 -0.3831933585033078
Ni 3.3605190897927026 6.2794206695852965 6.4433058196841095 -0.07619515640533973 -0.47548310647766495 -1.1173628673474303
Ni 4.325592384810445 6.256856475187543 4.311565893022621 2.314761862112846 0.48688852010112926 0.0830530598674376
Ni 3.4785643758785154 3.089162069340314 11.681410802194774 -0.13292963298290655 0.10500590998944496 -0.09908800184311321
Ni 7.948128054700214 0.01947989345489919 3.747047557952387 0.07623500850433967 1.249520912271635 -0.3685306142848105
Ni 2.12499208709871 3.3550899006330286 3.099863997611836 -0.5325492553630377 0.45596894770413726 1.2661654628068515
Ni 7.141441808100546 0.8988334622685795 8.936275869271714 -0.8082468475755112 0.43136503311252805 -0.20535143838874312
Ni 0.4557110518084299 1.9809462930646813 4.127740811828278 0.519617120682402 -1.2948579456455378 -0.8579069338047999
Ni 4.566069145822904 8.712414475838484 9.364333443876623 -0.09773483024932847 1.1298116346337443 -0.03553547390244848
Ni 7.8459792109738595 5.502143306975766 12.014495747767059 1.080183944304288 -2.322376955455942 0.11071170212497061
Ni 3.9450555809823804 4.722249131066289 2.23056979437325 -0.08551129159994306 0.27266343337184007 -0.14021331112851335
Ni 4.942713323461014 7.5023012934133595 7.433264916059309 0.1541152659215862 0.28816924231692304 -1.4806625722506048
P 7.581699692685025 3.18632872404364 11.33201128288521 -2.209326577895466 0.6317976940434151 -2.1065860669014302
P 3.5621161514198456 0.823717883056149 12.577692638683335 2.258903360382329 -0.7063252329383448 -1.3040408976963864
P 1.0193744991173295 6.0388135335329824 11.807854103347815 -1.438248111840136 -0.00930147990658398 -0.32081711025893134
P 1.7465692214168647 2.5794236010159914 10.003174864167027 -0.34901979794539245 -0.044413236008052547 2.072148711159167
P 2.026605494522455 1.164481918475891 2.217143959019044 -2.892770278249947 -0.27941463605274464 1.2991876833691434
P 8.403248693828159 7.104685359364296 5.172613874990382 0.8197592190904849 0.731788667316772 -0.5912768511112333
P 4.429212603986591 8.032443455474981 0.8404915631837733 -1.7052389203072311 1.9804624010967635 -2.1379776938388337
P 6.624970400217999 9.16830805270271 10.633130294241031 0.09988401538184732 -0.7775679304344157 2.0217738582510405
Ni 5.366581203035157 1.5791676702431063 11.21171516486133 1.731303992825399 -0.17726265057232696 1.6370954305617742
Ni 5.648303039156014 4.208552849032086 11.251867883385803 0.5599942389478678 -0.8213394190934112 0.1135262887556303
Ni 1.895755517022317 0.0901934525716558 0.44809714948090074 -0.4471462072061847 -2.1009900608708914 -0.20020794651459067
Ni 2.1214533360169328 3.1215230167328825 8.01198574922117 -1.224999530091503 0.4057961835044882 -0.01248579117183656
Ni 7.83955358400958 2.8776565046841944 1.8089322592309116 -0.8814286710758239 -1.3198812071627528 0.24049893282415355
Ni 2.8261956139528754 0.4405018721590651 4.152983282044766 0.08157056178464016 1.5824070378799586 0.02908971827710474
Ni 3.9239720745372653 3.9722201517864444 4.552744816749728 0.5828510889413834 0.08759748470501043 -0.47103304112611133
Ni 0.9067053209249647 8.39756806709162 4.323260534097611 -1.16734099903777 -0.6659314025023305 -0.11685638157012776
Ni 6.241742283067215 5.228616473360077 7.481472949546245 -1.3792695764233989 -0.6700922187482394 -0.2243122957619621
Ni 4.803444843387385 5.324404877642079 9.280455730735655 -1.1833245189502202 -0.07279127293011334 -0.5761991308425045
Ni 2.648587559659044 2.1628287861651865 0.13627357915810392 0.9684633412988288 2.600661334558986 0.7482324146950919
Ni 7.5024596059617545 8.572121620451709 6.758589916064771 0.7091814714402174 -0.39430438081480484 -0.4463985304068828
Ni 6.721010242076866 7.818209327484755 8.910638548934521 0.2449063178632298 0.4753938891979684 0.6106100042222065
Ni 1.6115099926299814 0.5694288178213425 9.348972470430855 2.3758368750472956 -3.1725824068514266 -0.8669934694871004
Ni 5.351085198298111 6.737772747201074 1.98592848208771 0.6809525585015112 -1.9826583803068178 4.2117343729150685
Ni 5.799826772976009 6.650803283114974 11.127387657832863 -0.24794304780702456 0.6237989921086546 -0.32034608415978383
Ni 3.8106668524004648 2.0400713736389022 2.3351920388557104 3.4258746347855062 1.3007599129522693 -0.20346322022709476
Ni 9.040978201278657 0.17660509773723332 10.650058561915912 -0.18135276148130058 -0.7852190192217702 -1.2111716230694753
Ni 4.7346347598525105 9.24940132749249 2.865009194567979 1.0357444830439906 -0.4091609862116631 0.8290784396088818
Ni 5.524614376345052 1.8969382048838583 13.822105631593727 -0.7835030649719281 1.1850101341827592 -0.12558553391300953
Ni 9.101984407427926 6.631330839662352 2.9666737881463017 -1.1297730680863252 -0.4577082989927473 0.9952850894773633
Ni 6.320032494500113 6.449317971521992 13.701618607261487 2.393951325259819 -0.08300600867958607 -2.218245991872283
Ni 8.864459709817897 7.350451621993726 0.2946280338162133 -0.45477878405077804 -1.6841918698289446 -1.393727917940574
Ni 1.721108838633762 4.365738584582924 5.862839823488761 0.5781891646893397 -0.4906796117124453 1.2807976108977297
P 0.41302347000906464 9.089291466047763 7.453395753463197 -0.20927751291602667 -1.6625925463916138 0.48939997366907334
P 9.229714696474392 -0.06020626215473216 13.079813479678988 0.4070927908287247 0.07868552692736126 -0.20302638979999227
P 7.3267978647628995 7.45917509272991 1.8587075869469631 0.9891409242528383 0.8492562001083374 0.58191289339783
P 4.143654016692859 3.838343610861102 0.19590339738662024 -0.045526523676889336 -0.41756437978400984 -0.12548140423497745
P 5.472548172928692 0.38720548711664543 7.5832194931496195 0.5294125095062688 -0.03260621607079546 -1.4909459564544838
P 3.7662182763127734 7.841937584738356 11.008971734133747 -0.2532230652590413 -1.820694050654458 1.3862187540477222
P 6.18598832852353 1.2129721207990865 2.393840319284176 2.603495461573671 2.1029839513724684 -0.9295049577577605
P 7.643143586468095 6.034120032098204 8.954785399929978 -1.7759203459831931 -0.8632663983445004 -0.3419292096471982
