# total energy = -381173.3290460972 ev
CRYSTAL
PRIMVEC
9.23453475107703 0.00000000000000 0.00000000000000
0.00000000000000 9.23453475107703 0.00000000000000
0.00000000000000 0.00000000000000 13.51567504927453
PRIMCOORD
 96 1
Ni 5.309719069749261 6.290454383478456 12.486105184404567 1.0872987009721984 -0.6527411290643017 -0.7292872410511568
Ni 6.507373609107664 2.6491110368774327 8.514213506702974 -0.05541652909709165 1.8271115241450273 0.15465519758545623
Ni 8.665105807545087 4.87316566521988 5.383996128047515 -1.2155039318962422 -0.10001205631927935 1.8082401411618212
Ni 8.055857365191448 8.642702825792153 6.677500522766427 -2.4363917538122166 -0.19921292959117304 -0.04890161079670933
Ni 8.884176679814212 2.107930351531579 2.2714582665256065 0.025231520873279126 -2.1433289308484182 2.04361100873079
Ni 6.230679238842531 7.952153537868503 11.141133032677487 -0.2707819000784111 0.1769245505066179 -0.5889880550770566
Ni 0.7012419559251853 3.5949121049465464 1.1221372830183438 1.279269090068345 2.242435444634293 -0.23562360700972326
Ni 0.7194820093293067 0.3270641410694965 6.382818201900905 1.951705383568729 0.12646690807669833 -0.6658375572369436
Ni 7.469759901920501 3.398742879316863 10.632646294816421 -0.31040491378667184 -0.259710729865914 0.5278245961938587
Ni 3.7208988650682695 8.167909212095868 12.008650177739941 -0.4099125196657069 -0.9626395355282001 -0.7722298060509539
Ni 3.2565495103837616 6.471709835187697 8.51417287474926 -0.2924565568383673 0.636422080189304 0.790007184639033
Ni 5.188349577095166 1.1317476635254666 6.0329382953668675 1.2401425563805286 0.714719370539311 0.03821790583061805
Ni 1.5319724076195438 6.561598798247498 11.501853359772026 0.3822255952733998 -0.23984073041486434 0.03658114155814345
Ni 2.4407152869934676 4.282487872621044 8.041312972668416 -0.3453932569363987 -1.0100869303768862 -0.16117937185721917
Ni 7.432720182295181 4.744168446709263 12.890264763834558 -0.06585289393906724 -0.2054774224436461 0.31066330965438116
Ni 2.3785114596695704 0.15436633288475804 2.195702759184218 -1.3712747311433804 -0.003574861835451908 0.15914485792569366
Ni 4.5327068312267915 3.2970706496796733 7.1570637737567715 -0.3631883761362906 1.9513076339096784 -0.9682648521347776
Ni 4.624535046622996 3.146261459651977 2.353214374667925 1.2860578308554045 1.3681354141834503 -0.13343151231998954
Ni 0.49895577435438704 8.198013795984808 8.470436270388891 -1.2351515309238406 0.36365580269101244 -0.28742156551762116
Ni 3.709558856167773 2.6530911214345285 10.006640865369263 -0.704830136450057 0.4226225110332077 -0.18331862695841977
Ni 0.5825717178326666 2.734456608749086 6.606529427974995 1.4104159201192161 0.9644254237840292 -0.4065983676908094
Ni 2.452295393802281 8.341850912136385 9.887459957494826 0.4487055812735047 -0.2727724481458786 0.5685819806168788
Ni 2.5606349576627268 5.359954939797064 1.9216319202941925 -0.61362822222324 -0.48895363016027404 -0.9954802362073047
Ni 1.3954859812764322 1.318285269217676 4.2491798285630615 -0.45525418102529985 -1.2795971628317253 -0.3574902973102489
P 2.332911326159267 7.323845015408491 0.25445945704801837 -0.3808030038942603 -0.11829568511981563 0.5761826757822722
Ni 6.157181575292814 7.879209946414901 2.649653104078132 -1.0096472717363065 0.3428501787995708 -0.3697796562005632
P 4.9919864262318425 2.1074501557149454 11.826891443876727 -0.8634923983123773 1.5201580592420658 -1.4294389981889382
Ni 5.126044169886982 4.247802959404215 11.13069893165414 0.456981962349684 0.4674733487993111 -1.7609048464109673
P 8.057288718106413 1.1216727859111004 4.176141121399627 -0.013986801197395267 0.20957396111052293 0.8489705505471186
P 8.698682576569686 7.457127058129068 10.349560702922597 0.7179869855469893 -0.3990547510155966 -0.24473971037837855
P 2.4592582331434656 8.460108366517298 7.6581434911462685 0.3416978103626825 0.3178968512883429 -0.5879472725173681
Ni 1.021117935001077 6.005661326075103 6.940921172515619 0.3797118277126106 0.11718651121603688 -0.9561762964013597
Ni 2.288761014633799 7.816590565018917 5.421826323863292 -1.776108293624283 -0.051280138331214906 -0.15379850601211578
Ni 5.184378727073006 5.760567534358422 1.1300817534231462 -0.3112657191250704 -1.0614858536741525 1.0546891424672933
Ni 4.924020249108344 8.329005674041442 8.611796684270832 0.3554359858843814 -0.9554705285835867 1.6980336608080435
Ni 6.263129394605027 5.525049955369605 3.2013232976569452 0.8859383860207193 -1.0979178712489412 0.6980403672217332
Ni 7.229892856977177 5.620562750204978 10.468146906747206 -0.08262342852918673 1.8147584018963134 -0.207572614409778
Ni 6.311278259757462 8.556258344263204 4.991879305626594 0.5880650290421551 0.07088839948044566 -0.5865740463189253
Ni 3.1560500666833504 5.356436581986731 12.927946283637876 -0.1539265469495478 0.12135169833732004 0.39805022101048215
Ni 0.4705826657658071 5.74435169101211 0.12712445482574725 1.132258039291708 0.11572843861327166 -0.05476783976949923
Ni 0.8371844681606103 6.013058188558244 9.248857698942482 -0.15998252333564061 -0.7960945284836934 1.003486394341233
Ni 3.425606141443528 5.872730195682065 6.29031678890792 0.8399485495541662 -1.305077566491017 -0.8412163605229964
Ni 1.895554517090518 3.3640764351699044 12.24809428098323 -0.755038638983648 -0.8150353312522544 -0.22587398382212714
Ni 2.9436927013121594 1.2925486203531125 6.210182265100233 -1.4564394380371821 -0.14093039180019598 1.6511583364127433
Ni 9.227747552080482 0.7354318980694842 10.409030184452165 1.2412640715794816 0.10824524286234906 -1.3583680503840414
Ni 2.189600578499 1.049403315507772 11.224862560935472 0.9055235072414985 1.1483107218791966 -0.5823019013061326
Ni 5.143442033705008 3.704350578464288 13.194002469657592 0.4021030509236172 -0.3313668607503196 2.976075049116875
Ni 4.626732865937588 0.519169247874173 10.437656319297972 -0.4559110978830084 -0.21769504755576058 0.761118783739457
Ni 5.594567534362226 3.9165601912765142 5.079380217952137 0.8665520110743076 -0.48920045606375756 0.5224144809218809
Ni 2.6979155540102706 4.7130572985123775 10.44212952802061 0.18571926598011243 1.015263332371503 -0.0014421317631652581
Ni 7.606560302451411 3.233537049325099 3.8473178014249636 -0.8334637131607711 1.1598732299058154 -0.5559059278111071
Ni 6.229164775113149 6.194812305153989 5.727037861461994 -0.040491789466459295 0.12198264705309961 -0.11815864532131909
Ni 2.8020257008703684 0.43419675121390394 13.394128693507033 1.1505182710534767 -0.2610361335455569 0.8005001137505567
Ni 8.321202492021149 8.63848264332674 2.928576691076636 0.2376087557605521 0.34777409846374946 0.2738402272887607
Ni 9.07122218492786 7.162693146253305 5.059268324316638 -0.29048760603745455 0.7061241726711324 -0.44182016700758103
Ni 0.24373631508119692 8.15728949692032 0.9412779928578244 0.240789724591695 0.04800043913867862 -0.39513998934222266
P 8.652149755030923 2.22560603021157 11.980172718906594 1.7854809930884348 1.8227146806289123 -0.273968782446825
Ni 5.790884512550875 0.5018240209052781 12.76125738733551 -0.5514226952287729 -0.20013672695702306 0.3665066418762462
P 6.523321650940853 4.630546728865849 7.258579939753556 0.6192036594284885 -0.5006192394236604 -0.4489493218531945
Ni 4.305768135192829 8.18443902962998 6.527178916183312 0.5286278088214444 0.5532011272854344 0.03010016181949009
P 2.178556074716431 4.038622274050753 5.7730452379629424 0.46505522627612167 -0.039006206059868306 0.8097586562343473
P 4.498714508130107 7.170588673622951 4.691925912220027 0.19453557872016175 -0.8684962792848719 -1.7625819770030742
P 7.137307409716281 8.687019358946456 0.7731429683845968 0.45289545098513617 -0.4425195070674508 0.3296604195821742
Ni 0.8924125277944137 1.4781073653421848 0.4185525255800836 -0.8987694763471166 -0.7659465441454035 -1.5053073673824784
Ni 8.442553515605372 4.302074321218726 8.68815982401096 -0.434450099795755 0.18139672734535855 -1.4000862560584337
Ni 1.8191664441060644 5.6806703380985715 4.308702870395254 -0.7621672796086294 -0.027478922146559125 0.5237848789068462
Ni 3.150952603399088 2.7608119714543125 0.5391767912649028 -0.14319167703054697 0.3161970949884167 -0.9691665380134405
Ni 0.17925894525623923 4.623971739991945 11.409473842640187 -0.6119958288261396 0.25893657070405085 -0.3168247012700866
Ni 0.9441757899205083 3.0753864040238725 9.653341410548698 0.33193276055611864 -0.14034083784531312 0.4504511032097016
Ni 7.208902759069335 8.369563751477095 9.060530440379818 0.9419897204883326 -0.49064387337850335 -0.5269288238524666
Ni 1.2872479973002744 7.508110925506626 3.0375534378476146 -0.34820784356705836 0.06997360097566015 -0.22017179123102723
Ni 0.8968118602375706 8.63451179330458 12.19455891160306 1.26492233442837 0.42570500661327326 0.23311292477272758
Ni 5.801882843658766 1.5977777035681917 3.9188974520686277 0.2623934189043997 -0.28792498751660095 -0.9664697079075678
Ni 7.440791165828596 2.405817979473128 6.1943828992795 -0.246250233485634 -0.19573654100679838 -0.5802625022786007
Ni 4.479940698606728 1.4191263907106926 8.20137978396871 -1.1638844079477375 -1.8230162710297313 1.1863810463883568
Ni 8.257835113295409 7.224943146251879 12.373181597402258 -1.1008998366954008 -1.953444734857339 1.1139633547475782
Ni 6.962645415950813 1.1539382509748914 10.323286604124801 -1.1008414726536397 -0.2683519504806798 -0.015357456292676775
Ni 3.7750871160683634 7.290720738595721 2.424482821484271 -0.36207123181271195 0.4072565701000987 1.2502395356052147
Ni 1.910163551358096 1.1673744993056916 8.69094403629394 0.4248400875098167 0.031763665564842065 -0.6189858869907275
Ni 7.738180128883641 6.291941143603032 1.4066708499900165 0.07961806604395966 0.15541393012835172 0.40536629505592126
Ni 0.8083597908136964 3.5187179571957334 4.116172051530062 0.6207956865059567 -0.05804908162393229 -1.4321790228279205
Ni 3.7117105028076884 0.05265254784035994 4.359765231319762 0.9182674371707281 0.23888299448728537 -1.883555208955053
Ni 5.194933800504006 5.077175011009597 8.933131719866495 -0.2793932958965059 0.1234288925813229 -0.22998800599050068
Ni 7.998944926385454 0.3018769470335806 12.270327347293357 -0.47156294548765243 -1.340320705964027 1.8805771001633356
Ni 7.599052625549047 2.1081704494398954 0.401685647520835 -0.7265037647687489 0.018257403548291137 -0.33465915834834625
Ni 3.5344720737952833 2.6888841788435887 4.4766892188560234 -0.3455382671546952 0.44820884414274426 -0.3571881926887977
Ni 4.444295393756632 0.8653821205854203 1.787610191325301 1.2075911048070687 0.014147238034659507 0.31199385554034653
Ni 7.946021806671491 6.485931018987995 7.48375114580091 0.09627367232276968 -1.094219853572064 0.3441449863515944
P 6.72725712045109 3.8560185802409634 1.3477018802539402 -0.7436759056726612 1.1600822605928278 0.5695438303095159
Ni 4.872020582887908 8.107450711874735 0.5349095126713201 0.2959501718139226 -0.6523302667791282 0.3707721020208195
P 8.703632287294985 5.291554739531609 3.3094615486558023 0.29826776420350565 0.527233242466763 -0.5205067223762068
Ni 8.725675122185445 1.4269572763357912 8.027135191182316 -1.1202422457777546 -0.2774742244969221 2.1081906923843885
P 2.4718818423999633 2.370218847297709 2.4217115375502005 -1.0486550204580714 -0.2407221045785532 1.6872681947614232
P 6.506542500963491 0.6831062527658324 7.755200300222816 0.28168774835763744 -0.3959815114069116 -0.6048232223371003
P 4.19427959491946 6.555023809373594 10.64568915195898 -0.2655263081064266 -0.6504978415560797 -1.294444512257203
Ni 3.9703882954141325 4.998561415105747 3.8081901534507825 0.34487569387003186 1.2706821197302827 -0.0035175262349552328
