# total energy = -340893.99798483145 ev
CRYSTAL
PRIMVEC
9.06002929183547 0.00000000000000 0.00000000000000
0.00000000000000 9.06002929183547 0.00000000000000
0.00000000000000 0.00000000000000 13.26026867040025
PRIMCOORD
 96 1
Ni 6.362441763804028 2.013881416327834 11.433016678336585 1.5867010372696222 -0.14699973792272747 0.299534032510439
Ni 4.758753170665847 0.3624256311034517 6.059969064095228 -1.9324825307833753 0.13213644765764987 -0.05624570986660636
Ni 2.6348195793344855 1.3784834466771037 4.729314417703061 1.1860879406279703 0.24979989851010528 0.501264329206827
Ni 3.5056786485296865 4.398580768830806 4.944555344021808 -0.34470574395107084 -0.6554019637259164 -0.30185625288571244
Ni 5.18693921189757 4.684207250197499 2.5626265484560284 -0.2651349862052788 -0.6908585047613134 0.3458802238751463
Ni 7.317305423979118 6.31381658695016 2.512369660338628 0.007235598516490764 -1.0808737712824612 1.249104650669823
Ni 5.480094577550748 4.36926251425672 11.59038938598549 -1.3669005133350847 0.4829673306698521 0.059973295229838644
Ni 5.642604321770579 7.968186983576422 12.20697873496385 -0.07442135233436861 -0.24606819938181496 0.9616604594443825
Ni 1.5759196035616745 6.6636424354095505 0.7831299002006626 0.644765824168309 -1.685342181383304 -2.2481072982080894
Ni 2.887376954027689 1.9336729775934773 0.45926647149018995 0.03301167903933024 -1.443700650314275 -0.9409468810461149
Ni 0.5796742598985942 9.220119942030156 4.597229157625764 -0.6089323594094674 -0.5717848038248927 0.6234009853392877
Ni 8.577781989992605 2.368237279400032 1.2911085248252865 0.36238182107459527 0.1509162993683143 0.5243371518658905
Ni 6.960412752723748 0.5802332637018145 5.065078194801377 0.772367874290715 0.19835032448056164 -2.1794578153604913
Ni 0.772510639945321 7.571384883582224 2.8069999987497356 -0.6391942436178024 -0.2837649426016403 0.10764283339165978
Ni 7.441853645743627 4.009697134379795 3.9988060732476844 0.6630093437595291 -0.44008595792529365 -0.794624114585754
Ni 7.663643161186648 3.885692514368822 12.599509031178169 0.8090323195912841 -0.314022198824285 0.19717815854933138
Ni 7.845767868679931 8.429061610254157 7.0285921906552575 -0.7099754280964224 1.047148354005558 -0.22337641421125398
Ni 7.0650832703672615 0.5983569461647319 0.339512817191875 -0.4103357232460546 0.6730039930783958 -0.29843925678436345
Ni 1.9291157828929937 6.65374888349518 9.473162028286929 -0.47741066251768105 -1.2264812568433523 -1.906843490059032
Ni 0.005709630417981668 4.912547166770637 1.3158106945089216 -0.7636875729078977 -0.5846909703635995 0.5331573212606818
Ni 6.388163186775544 1.8485540030188377 6.906809995813328 0.17716700553472714 0.15368897701744497 1.6069631299527678
Ni 3.3790556800725113 4.611609236012657 0.5440076428461214 0.5244340824550711 -0.4778572631367964 0.1176120287892297
Ni 5.949594352051268 5.770042692858059 4.820597836162808 0.0559672593942391 -0.6633646702164189 -0.13426120731013652
Ni 5.393562238416913 2.7869012299156344 9.345240757641724 0.037548133457103075 -0.15305699986040092 -0.8878898533201355
P 0.18979764624445597 5.695523952477387 12.523170130926072 0.12006743230825774 -0.7328628742175571 0.16889628088550265
P 4.193987188858 6.186133595073588 12.505003866325795 0.2315905745909302 -0.2284764544419807 0.1973617353150472
P 2.373881677607589 8.38485772766239 1.429045657779408 0.8718474551452919 2.587393670915802 0.14506344013196307
P 6.09491722083011 7.7838244488644115 5.783042022790969 1.684417098465873 -1.363671979095458 0.8179882432329911
P 4.759704473734537 0.9851241577886396 12.466826715174903 -0.5744798341585525 0.41884016117263995 2.034081214863484
P 4.022073134301983 6.092298872383908 8.241363172781277 -0.8300719138704027 1.9844285848333634 0.39592983223336975
P 4.723183495926089 1.1408207600308087 3.706590232625203 -1.1576114304548322 -2.612478896019204 -0.04564196620883107
P 0.15056500168878156 5.504330155729264 3.598518580010394 -0.19705603114917028 0.09963436126488648 0.25613818202330724
Ni 1.6085085286862064 1.1320415917111892 2.5121449716138327 -0.6249457041185882 0.15547949325896449 -0.4011018633526125
Ni 1.8985019441396456 6.328348873828043 4.6925705631756625 -0.8173210419626376 0.4722118919255609 1.1707559382565902
Ni 5.952031499912958 5.44483294380466 9.12840889019096 0.27488435228255886 0.5944616765971181 0.6419903183057007
Ni 8.79375496667278 2.295911066091959 10.123259895356217 -0.41251036229987015 0.26077850900879607 -0.5305435377869187
Ni 2.3898454491031202 5.384502209191299 6.955952500335979 -0.5985535872783047 -0.7976472176827939 0.8479045711764494
Ni 0.4776066886515995 9.188409839740508 9.204695242273548 0.7047789714971475 -0.9963628959225743 0.5790003477367254
Ni 1.5020169451683445 1.2898129406460237 11.460770265863406 0.8994731872823606 -0.3255073166457491 -0.28451750449694874
Ni 4.121660975549927 6.8516018017241285 1.6510888540407451 0.004180870850566992 -0.1480911712146933 -1.2033336150822953
Ni 5.527768451335927 7.834669332878555 8.05342555053684 -0.3321731587016989 0.3647850311994492 0.5681479784032538
Ni 5.219981138483383 2.715245458770257 4.92067310698309 -0.057080032842443625 0.9145298245051668 0.22035588221737534
Ni 0.768662845533203 7.296657617373945 7.039120850618343 -0.07393824205036298 -0.44025770761646765 0.02693127717320523
Ni 4.907908431807123 4.678436011580783 6.9781504779416546 0.22368186126681477 -0.4154578749639684 -0.27684816087714903
Ni 8.213251714100043 7.197051656067549 9.030971899881177 -0.0362461268162279 -0.8308638136440787 0.6434365638339242
Ni 4.777471191045965 0.44466895240188137 10.387922375097764 -0.486186351827782 -1.3526190637154059 -1.063996021690516
Ni 8.338696878757888 7.162134303432034 4.833128762584755 -0.6579154741763895 -0.31663161142267404 0.1687651546242771
Ni 7.1985737409774515 6.040004383693666 6.910257336933674 0.12824713990557268 -0.20955493494712943 0.7948334023830828
Ni 2.265424067747769 5.216121566033272 2.615256258227618 -0.04799632537362057 -0.23750745429599743 0.10701111334493184
Ni 2.388803545742175 5.327795486268184 11.651386938749859 -0.28850811371358054 0.3133879076743957 -0.5570292427822728
Ni 1.1937132106499408 3.293447463919689 3.8529830908555893 -0.7041307963901874 0.39406655377238586 -0.2973740487446427
Ni 3.5896288793342217 2.671775438545763 2.6972314026609694 0.21560011269994483 0.9457070214389196 0.08633507305281905
Ni 1.2383519746445386 3.4777284583686687 8.228474375204918 -0.7385082454287927 0.2679786263016611 -0.10746002795689234
Ni 3.6097421442150837 2.7351322229204786 7.145548107928704 -0.011680007441089562 -0.4294778433921443 -0.2647395505390731
Ni 4.004351717136682 6.915955189313663 5.932325936347249 0.008490296859198282 0.6925968276086588 0.17508826862882748
Ni 0.6981069619358147 7.336585166171224 11.318130071738269 -0.5764629260268523 0.7588662402598543 0.6061820503578399
P 0.2534887456975968 5.482024363775804 8.194978541154903 -0.016028257107456267 -0.09299988666750435 -0.40201023409949477
P 8.521020906894135 1.2996883725019426 7.784348118553652 -0.909317427066292 1.7224573410680466 -0.5699559781462701
P 1.9584068573794022 3.3500273464336456 10.485344869360787 -0.6078668942594305 -0.4655910441749337 -0.3306940030530111
P 4.006888525319854 6.154097331731818 3.7845998022665035 -0.2350119415676533 -0.7315490405021401 -0.45886375275342905
P 7.197187556505933 3.8928771175447334 10.317695370561266 -1.085144887853989 -0.0867150821000571 -0.3872793556472233
P 6.497019437921291 7.674877597426408 10.21949008977315 -0.8942859866544662 0.32321466395683046 -0.6637043129440247
P 2.1905701062857497 8.349134032425795 5.826310004363732 1.019224116791464 0.27477045241251385 -1.1058713217680634
P 6.853884929088983 3.888483003370311 1.3934687350162684 0.21844375279632702 0.004633899227585568 0.868628433987362
Ni 5.111958410026392 2.8274720407879324 0.5082024073464965 0.7914063789794048 -0.044620724033168316 -0.17144218723580798
Ni 1.474130175211906 1.0920415626801052 6.978826356121885 -0.2918271507844845 0.3292631841437555 -0.4141756658174351
Ni 7.018677800673669 0.7016376553250363 9.244078283314368 -0.6479537349779873 -0.3774294594363371 -0.3192466804480179
Ni 2.54510716994246 1.5940668421005784 9.081374654469109 0.4259361487874728 -0.463146439289183 1.4238293653116445
Ni 6.393608264340139 1.8317476488053246 2.637388097619947 1.218402850710592 1.1321888766166697 -0.3664673039978786
Ni 4.074666603956669 6.847760349332469 10.397256923208914 1.0355066560015713 0.7417833166356386 0.11434981309819017
Ni 8.286039988898622 7.336875087106444 0.5114368377800406 0.15903404337944224 -0.31078800815770347 -1.0718265734785284
Ni 7.402940820219618 3.6570445568020125 8.116663648528698 1.7150453648746917 0.056560412893547754 0.027156505810133878
Ni 2.958371343039597 8.434742248578619 12.403814211910762 0.9235752225368868 -0.3017323257133384 0.8351686116670197
Ni 0.18406627175633283 4.681235560611498 10.467828208855986 1.1218496994741904 0.387866595609261 -0.7632728539679823
Ni 8.680395881001903 2.4598432349002106 5.750116970582167 -0.25813695762089095 -0.6800063925381579 0.42699415773834204
Ni 3.840365188153077 2.5977459397432745 11.250515979630437 -0.44333043300452035 0.33198289706776374 0.6996048834953758
Ni 1.2025829792618163 3.427662736867928 12.632367945173625 -0.9048141398792998 0.4994131349307012 0.1377964741569046
Ni 2.899734833891426 8.32941940883086 7.896277531612727 1.115378232817234 -0.01802189049871735 0.7398218220338936
Ni 5.40672646088173 7.847887915518725 3.698461574403982 0.9689227974337505 1.6086083788656746 -0.695362563279254
Ni 3.04790255184711 8.102683117430656 3.4659024022204754 -0.22293701268099025 1.5082008868801895 1.0408938884554138
Ni 3.535776065617175 4.323690567251885 9.368631941096414 -0.07801035523720758 -0.022655018395354533 -0.14406662343633253
Ni 7.386125405976879 5.909693983341667 11.23640679611739 -0.4377182290240655 1.608830779289126 0.6384041436163392
Ni 0.6576249393499283 9.243313616847725 0.27469465010306787 0.027938635391797046 -0.060424780944960454 0.026266647006012826
Ni 4.830445181928127 0.1978556362377167 1.483757362267043 -1.5271578875986664 0.929878024826463 -0.15388258108548983
Ni 6.056991938491692 5.7689373692925345 0.3981393603078978 0.1683722900612326 0.09269392539131133 -0.6149993915391537
Ni 7.975589027453748 8.956790192587697 11.383238159762296 0.2736116562177223 -0.16026585890401432 0.013979602108543668
Ni 9.12064082113292 4.810041996112046 5.986547493253778 0.26654215096545064 0.2793241332214673 -0.22741638860858251
Ni 7.794968284811916 8.797931640145789 2.6454768917125744 0.2912671645159564 0.7047782001661992 0.47756544292799047
P 8.58163250241349 1.7332107709475515 3.592206457648909 -0.9712943829897207 0.05445570784571912 -0.510655797724056
P 1.6831994096221647 3.3728948601990942 1.5485338532214123 0.4499402250115542 -0.6234781184341263 0.44078195555105376
P 4.495803942450865 1.0201230506871848 8.258190365062008 0.937511630112321 -0.17857159919173762 -0.9916647191159565
P 8.633646130197738 1.7802232625992602 12.31877587159623 -0.9124518589302157 -0.36826013423224324 0.8916251519928515
P 6.358210730155666 7.821287669712324 1.2869046712646017 -0.46688867994043465 -0.8046904976828206 0.35275329684589574
P 1.7958518130134438 3.19932282029479 5.998879099032761 0.3174129696733888 0.14579414765040055 -0.015082091144103056
P 6.655551829311078 3.910118353161076 6.066944380596029 1.603144784647942 0.44019985779533866 -0.6578882204828799
P 2.3077253442021592 8.586398077786162 10.346934802881089 0.4512972532600808 0.40271343081410643 -0.8950624598091745
