# total energy = -381172.9240461457 ev
CRYSTAL
PRIMVEC
9.22782713925863 0.00000000000000 0.00000000000000
0.00000000000000 9.22782713925863 0.00000000000000
0.00000000000000 0.00000000000000 13.50585778136457
PRIMCOORD
 96 1
Ni 0.4551994822742288 0.3745934899043528 8.057621417187288 -1.3871052704177338 -0.8762268151599103 -0.9577541824114407
Ni 6.017779788226438 7.5897032208418524 3.747456567729839 1.145680226234885 1.105403123882393 -0.32060319447591235
Ni 5.388811094115237 1.1621248595992126 1.0692237104213294 0.43911999446759853 0.2706273767784178 0.5594903027282558
Ni 8.776457150930836 2.520128804730973 3.5038114808573875 -1.1092780334567671 1.680483310629106 0.5664973301737082
Ni 8.858889330280826 5.034397939262994 3.3775987986854896 0.3958449858290473 -0.6806877348758987 0.5590802117740307
Ni 2.575615728992866 7.076211554871901 0.5029414912637112 0.9807192758480465 -1.5183251197983851 -1.6482882139537998
Ni 4.032366651760835 5.518609709892352 9.90920706857048 0.7806902781134812 2.1696585698818827 -1.2549359126396193
Ni 4.282394626627957 3.121644713264404 0.3679559138821376 -0.4267367903118973 0.20104689747611829 0.27576058423992506
Ni 4.23453911536533 8.177598856597875 9.373200427295922 0.7627776594991186 -1.440691945394938 1.4227674997060336
Ni 1.886241678783486 1.762164315799049 9.075720197209787 -1.2606152224125837 3.0521959006408528 1.8237400365696332
Ni 6.366121032856775 0.2105134965065936 9.766355691381682 1.1216666369291068 -0.4123311564095286 1.992168633790098
Ni 2.7321750433163796 1.8807234381866766 11.977872738213927 -0.48085722630538474 -0.18608204863616984 0.4342688370228843
Ni 0.2592308868189568 1.071036978443525 11.835142245559943 0.8177722705674432 -0.7004294362792002 -0.12837775194616602
Ni 1.760355661690396 1.653903448438242 6.35739612234794 0.45744450380839924 -1.6554716190761167 0.6193800371053526
Ni 6.051359850988625 4.140673658257067 7.570910750983321 1.1838569944149224 0.7494853132655867 0.1915965506964958
Ni 7.046913203877137 6.739155942766476 1.4599557471145772 0.7797549107834055 -0.1065017778086811 -0.023943655299791023
Ni 4.224840669099031 1.1721370519863994 9.59160371596016 -0.24144766989066802 0.9831235144141649 -0.08168369032373675
Ni 3.888569422295829 4.544446460186787 6.958690563031332 0.1326331847884103 1.4633888727718216 0.4165899316858825
Ni 3.4321610946734693 2.535576187271204 5.074569438911971 1.069348544251681 -0.49511964976166994 -0.6793196508837784
Ni 6.352260836575157 3.356714380426797 2.3166330707224954 -0.23582620993883258 -1.5257885180549657 0.4334640817334019
Ni 2.5517248846698926 4.637582918955338 5.181413834815236 -1.7001177970305816 0.31917083290476 -1.5997038772871934
Ni 0.21400715184096128 6.397883213683222 1.3689536847507797 -0.34978521535650725 0.06633137623738254 0.5825281583843258
Ni 6.667760244610103 2.7903103539516576 0.13464137943130447 0.784100846456927 0.39866291489381667 -0.44203639678344514
Ni 7.409640630932934 3.464089376387448 5.728725487051583 0.34119901634939304 -0.5416275635152221 -0.8853933121505267
P 5.502147266372774 8.52612465776991 11.671289256708473 0.5227839484461577 0.4896072045838729 -0.01744904871438285
Ni 3.618480151345994 3.4044314742831503 9.981152745221117 0.13641784864182313 -2.384921610957383 -1.2225536396541719
P 8.018354244592638 5.634686546794124 13.066674206578718 0.38237909013212856 -0.3183707056009678 0.5459645003276791
Ni 1.2520038954067698 7.505333197804019 12.033205557763502 0.8095336847077349 0.07758560899496315 -1.1333445874876675
P 3.015866131389452 2.8365140841660765 7.63752182079614 -0.12305325440945904 -0.3816458115105298 0.9472679381681363
P 5.620180402616559 2.749043511227695 4.717069575899807 -0.07890767024049636 -0.012967615904261539 -0.9161838151688221
P 5.718207609740141 7.75162390270173 5.938768364376843 0.20739212296785572 -1.0093991602812424 0.4317278157685855
Ni 9.210321896984626 8.461299172498032 0.2117444886397279 -0.291208286253563 0.3380373307919598 0.7081170347314449
Ni 7.024175837939784 0.5961333169947708 2.7052094870086956 0.7229134763143291 0.06155246679150044 0.015139683854915861
Ni 3.184070963494191 1.2944980391330325 1.8293142907136293 -1.9543641613478147 1.039354568992752 -0.9529680738767071
Ni 8.921675465766928 5.950278233099921 10.981356000177742 -0.6592025684189292 -1.254689086736136 0.07465198028793595
Ni 7.743134301783563 8.048077075633309 7.177377145987078 0.8271043466016466 -0.26649535688791526 0.1632215990982286
Ni 6.346059736774061 6.425668201036052 11.539418070968074 -0.04267568449165554 -0.21674862448209126 -0.2075294198766684
Ni 3.913779845891953 0.01914774120130197 5.645178586189728 0.5517397122485596 -0.5487340926530163 0.534589425721518
Ni 6.998494795162327 7.232918514428773 9.291070920674319 -0.11874202862861487 -0.6540570196622478 0.2109171054019787
Ni 2.5215406622749725 6.895576839683715 8.275092695315944 0.14922348504692368 -0.3133007472772282 0.8737498143743274
Ni 8.586225495574286 1.0509110875712169 5.570477480371522 1.6849359470838206 0.36359923842146413 0.19466336254727765
Ni 4.709172401480494 6.341575012810768 2.304059233536522 -0.9493214782630554 -1.4786280583190792 1.7125100000473474
Ni 8.778884069454183 3.854629474277328 1.362740588774473 -0.3413383701407347 -0.11974218775835507 0.07000522554454394
Ni 4.775234415581757 1.0783085061864772 3.4392536025709735 0.6860806237566959 0.9694125925859756 1.3412735567955998
Ni 1.9814451708190677 2.8993463587876014 3.251818901603877 -0.5134071352169481 -1.0997322987498608 0.3929015869300072
Ni 0.3653721222983475 7.720073961898235 9.495292884674384 0.4716092253445555 -0.38790696192889323 -0.34381434248505305
Ni 4.955130904603146 2.218508048631813 6.879086712682883 0.903086872775548 -1.154923599210024 0.33971189028090526
Ni 1.7965933386530528 4.51759348336954 8.685211473931997 -0.34012712344145296 0.056694881588883 -0.12018621727430914
Ni 8.509145455933576 5.571761993901749 8.127527744052149 -0.06997617207882142 -0.05759528191596532 -0.13063209519798147
Ni 6.661503777846498 5.228145396738915 3.4224792584959247 -0.9004345227543654 0.6893343548073031 1.0902811806392902
Ni 5.709588819242783 3.7893518254782874 11.301350282785776 0.6446719789029219 1.0768319971129197 -0.4160044914960578
Ni 7.146499913778078 0.18998804072150635 13.356618070284561 -0.6720259454358426 -0.03437076417038597 0.11668128944484421
Ni 2.3944273441795825 0.3595696646273216 3.9146998602523233 1.0309457761037664 0.8888514459024563 0.1464127550710059
Ni 2.507809655572545 6.8920887210455986 5.8897833670790165 2.000083003541168 -1.8827339986053382 -0.10518717276231562
Ni 2.043197789671652 5.013792201382267 2.5588201609155217 -0.01574363598750192 0.6237275154407709 -1.292289413587413
Ni 4.66944660587972 6.041181557713909 4.989360606392115 -0.37241349427898446 0.13716166878638314 0.2962957280787994
P 6.603156227188266 5.052078455957787 9.386868684774171 -0.005730474725874002 0.07534694947243153 1.372209584252824
Ni 5.075369491520237 7.0690138497456285 0.3460305967282612 -0.6736390555592334 2.6118350917876176 -3.1486847742982222
P 1.8809910451721408 0.19560409628541595 0.15748486538013484 0.3325320847030144 0.9394445854689756 -0.5573298047418273
Ni 7.087358769990538 5.7930083760908655 5.987092649255388 -0.756630151840484 1.0159403038338697 -0.07281132753477138
P 0.5565210236671424 2.993156448933354 5.451112768679376 -1.0840395706049526 2.291988830082388 -2.2481065268771414
P 3.1641480848177514 7.462663725363142 3.7155421277564877 0.7500458137547469 -0.033810777901857894 0.5484217036189201
P 1.879090112792638 5.619479087758102 10.725353007273107 0.5702382852733792 0.48627659754874314 0.3080965773684694
Ni -0.12743260091252998 3.053192691948135 7.482110448161997 0.2373650151808622 0.13261030197027485 0.46116617563436063
Ni 4.935291076370472 6.649775209621507 7.742462515971776 0.6329978849991034 -0.6365732610551875 -0.8582997983678443
Ni 5.87305054822585 5.080370973800288 13.47711688192545 0.6125558150946676 -2.029292792335905 0.33711224787452904
Ni 4.2700939331236984 8.568581890187835 2.0119403709867507 0.283512460271202 -1.1350286600583097 0.7394680382389007
Ni 5.712338711714103 9.094484983587064 7.629567433848901 -3.1257980995080357 -0.5984348023122532 -0.538422169204047
Ni 1.090433870976121 6.7629729644727705 3.7701597907069773 -0.20753764740678451 0.583504406254666 0.6830973727586558
Ni 1.1187817557811328 5.116165715062867 13.091903085829012 0.7525945483185296 -0.07971011153713368 -0.4151477999227173
Ni 6.221234919795742 2.4528948565899196 9.307751140913101 0.09202620990032538 1.3248300665275958 0.03501122596786228
Ni 2.814348843507991 9.37851750126228 7.968320966137958 1.1180197842051391 -1.7865814252414651 -1.4999808129632424
Ni 1.332710471091872 3.5056884208864694 10.976737472721718 -0.2827043625476099 0.160843071563723 -0.1087311813598321
Ni 1.7919148303209755 8.225620468748032 2.1083453261087954 -0.5389207061070203 1.0515529108311568 0.19534419066438616
Ni 8.398143923928535 7.872545348823109 4.955664273008657 -0.2963777462696444 -0.6260201681296896 -0.5021765566084513
Ni 8.441865368657096 3.677003030718841 9.753052855855998 -0.42807299262481757 -0.3952250928568613 0.38426165186682204
Ni 7.179055687733833 1.7974515265719544 11.62835402284755 1.5208946802977743 -0.23092003088646684 -2.0659348690389714
Ni 1.2964266549937904 8.609654948543012 5.6677332411508 -1.470837872850699 2.4435707880591595 0.3498278956689846
Ni 7.408883949111967 1.1746101096451698 7.672529428408371 1.2362589050554063 1.6024608712070403 0.19112860992114183
Ni 3.7907913665035418 7.168499053548635 11.620318431021962 -0.4384533074178772 0.010702216908852537 0.35388252535433246
Ni 0.37250800098315073 0.588613560703233 2.948477155753371 -1.3727945102220165 -0.7284320921397132 -0.6657799645261309
Ni 6.52560556836622 0.34241513407637203 5.164099662855716 -1.2124993407419635 1.122228165859532 0.095284568936623
Ni 0.2244309053161375 5.598098212402239 5.7289691016866255 0.14092370693197664 -1.0231779592328893 0.39769952253928287
Ni 8.165159745687342 8.179795079444096 11.384411799942962 -0.8535957080239557 0.8711707407932416 0.07905628000321868
Ni 1.6555644573135355 2.698696486652127 0.6380774822267699 -0.30327010251410347 0.13122576291792237 -0.27730196058511597
Ni 3.5173616221489494 4.456016193231569 11.959369099343155 -0.7710936355639817 0.8200317560255813 2.250189377548099
Ni 3.9263942855170995 9.270459646097343 13.191360606150761 -0.3486999527121285 -1.4492943423519684 -0.44929719211091657
Ni 4.283843395480297 4.371120184049894 3.34352320160884 -0.04131814202249658 -2.2322847293535366 0.3914052048901388
P 8.635834293983057 1.39354030723596 9.725756943338672 -0.6189851156597791 0.30000865815401234 -0.07097813098077455
Ni 8.78845332614129 3.308231376922392 12.538257453081544 -0.19117077601298688 1.3276454244892038 -0.9052239737232087
P 3.4393495719726572 5.095643027625905 0.836644633789168 0.04021950964167912 -0.3713207754354379 -0.5207049544299419
Ni 2.3443294709353086 9.228473032860752 10.539012726598289 -0.23912159286065274 -1.1202466166531286 0.22850885034181295
P 8.200087071203935 7.941403394531116 2.871480166556425 0.6929387843291098 0.012452623941055972 -1.0292560471061694
P 8.850713475483548 1.6884524330443502 0.4428000510201616 -0.9337292802517533 -0.05905798250442087 0.5979696897503767
P 0.6920095176248466 7.214868884650582 7.162129084511883 -1.284203037034853 -0.19385269372052422 1.3083562372422886
Ni 5.000439535590323 1.6476838929829756 11.98108679038762 0.1772996744578495 -0.1414870356346144 -0.576562170608878
