# total energy = -381165.5270983892 ev
CRYSTAL
PRIMVEC
9.31848965805874 0.00000000000000 0.00000000000000

0.00000000000000 9.31848965805874 0.00000000000000

0.00000000000000 0.00000000000000 13.63855154194333

PRIMCOORD
 96 1
Ni 4.190757658250328 2.4031452387262817 6.071077865401037 -0.6545463005938404 -0.3458169747373786 0.5288286119783407
Ni 2.7295160124714806 5.91078307394917 1.3613576894432657 1.1926702218311782 -0.4105354979616865 0.4426241509661151
Ni 5.721198406525517 9.114694064738215 8.982663183572054 1.4348100326928643 -1.96454418720461 -1.1192042914315434
Ni 0.12442326639669987 3.2861839339536267 0.06419507367321477 -0.12576911067872532 -0.9212046654221812 -0.18170783082787414
Ni 0.4819904790507661 0.650292648468577 9.839246687311771 -1.7262903416608915 -3.124389392085967 -1.1602498965189438
Ni 6.798490332380214 7.191609445902047 10.416007135699736 -1.0939509161813934 -2.820008830116505 0.5889823986501018
Ni 2.041979225454913 5.165248008729368 5.430611564034855 1.165055288327387 2.0550593597770477 -1.4323906246180942
Ni 5.854909411335642 6.064612697435516 8.08745640484892 0.23940621398060707 0.7190455087184906 -0.688344222979892
Ni 5.503844640604811 6.2279005876918285 13.045723990089435 0.5879693840045551 -0.7856311670585244 -0.13873826924488364
Ni 0.4035204114219703 5.565514403642892 13.475625045083603 0.20113868585897618 0.8947580411948785 -0.09714939005950365
Ni 3.849374798035751 7.137366518938514 8.65977100193053 -0.04456081732951035 0.8858229434887777 0.3747616827961868
Ni 6.429627246840871 2.895180117532072 5.735365306003726 0.7707619632561757 0.47327504308275264 -3.4229682597719884
Ni 7.150869010120469 4.707514489510035 9.546304130693576 -0.27166044602862244 0.029180992439330387 0.5633055627092879
Ni 4.677667367870421 2.338363100219069 3.6150613813551025 -1.3381229269817598 -0.2442694556101793 0.5250537183169408
Ni 5.024948831893264 5.0157328458484365 1.607794460870445 0.9470198267130722 -0.6476688567477168 -1.2346941316714477
Ni 8.984374990080077 8.453463373378415 1.9078563434120457 0.41074992796533777 1.4189288426862339 -0.39773500376290855
Ni 6.321756413216087 1.3268224357721523 7.390526580488385 -1.6728579328733642 -1.3545286220332928 0.20320071059432745
Ni 1.1591641739738536 4.503160016342145 11.486524519739886 -0.335682457406538 -0.4351412123255087 0.5792042362174153
Ni 1.9827136326893962 7.6219559246909 5.756573256094142 1.0031729768658721 0.14515677117671774 -0.3298817915643609
Ni 9.246438868278918 1.888242786862854 2.952595990146023 0.2547186759679613 -0.5633513283455589 -1.9422745771731325
Ni 3.561647799950709 4.667212022731599 3.5008521112210254 -0.2958056758162583 1.0694303053322098 -0.11780768973980357
Ni 4.8534699894292626 4.7244275478228355 5.6587300489434105 -0.8131391426708061 -1.098502540107818 0.4281110449516047
Ni 7.552132483402847 -0.14654629214899764 10.910772331908088 0.5356726314833679 2.6124056195791074 0.004300941368199044
Ni 0.5515977313840771 2.693248451615601 9.021465373552495 0.37996328160178433 1.5264701175030226 -0.9678200512878753
P 0.9063228047624385 8.37389279214811 12.180357810063317 -0.5420137432100471 1.1672093585559125 -1.0525566695053226
Ni 5.3135983604317305 1.9492975295986505 9.55789633154268 0.3928655914857492 1.871606521233609 0.6135500606871369
P 3.118907730221898 4.578956609353892 13.26328649017334 0.3890757854260138 -0.9445993901970376 0.38342707178066865
Ni 9.363870472057384 1.2965559821082533 12.208822067871736 -0.3385983455017524 -0.7303660759376325 0.5554930086434047
P 0.40113860552403535 8.862423918928767 6.526223640106064 2.4779675203714744 1.1357552538116893 2.176985442560599
P 8.033656106133243 7.223879374793083 3.2821033674328683 0.1705340735992418 -0.8270459825598854 0.243822854991064
P 2.6569342983125797 2.0672136948274007 9.090735296568493 0.06889553742013295 0.4715626883773362 -0.09475286480286907
Ni 8.887089960446115 7.028694295222875 5.9818961941741335 -0.44325509968189464 -1.009878413910506 -0.5435219523244575
Ni 4.694832025397792 7.044200261631967 3.099742393014219 -2.0755577368407154 0.025255175022362953 -0.8285662758591538
Ni 8.389575809856343 7.684007745795551 8.958414610381105 1.3474670872008212 1.172523314569658 -1.0744465275998785
Ni 6.06566568674094 2.312877031632011 0.9175189698108298 -1.6729175824667057 -0.1674574915564471 1.6720716895266432
Ni 8.502217710068539 3.2378396107983587 10.861715144311537 -0.36845733784471385 -0.36666219361750396 -0.3133753092689055
Ni 6.2097015778378895 9.495727097471232 13.243305785140663 -0.9553070064225289 0.0355994943711645 -0.6279343544332671
Ni 3.547856435596469 0.3412934027160633 4.933909985723252 -1.146887873389741 -0.6138105134373752 -0.08645720045298014
Ni 2.2973990206912056 3.517403612143999 7.408569971568867 0.26746749099319744 0.21542913433971933 -0.012755499893455452
Ni 2.441267178978441 2.6092236324384523 12.974353679556243 -0.14580237518051664 -0.16608709357148171 0.005058388359513869
Ni 3.4134092701214884 2.930767428659667 1.5868725884054862 2.1761634608799363 -0.13474200360129698 -0.9005949595916296
Ni 6.938659050364319 8.316528171226015 6.817952929400664 -0.2701612357752767 -1.5850658156590445 1.6004731513530501
Ni 4.52725763000435 6.967304086867651 5.870059411448563 -1.1947798119750133 1.0724346393761723 0.6498311545063583
Ni 4.428332546230965 6.041577391568164 10.938022390543969 0.19338115340074438 1.0845674180839644 0.272943169395788
Ni 5.760559705871671 3.5429921841147713 7.778719940498291 0.6817629702179484 0.3030564438414006 -0.7601998714696134
Ni 9.29290085656962 4.421250494265275 6.471588404737589 -1.6430606470062736 -2.2490475506341716 -1.359239397245401
Ni 2.1899195636224205 3.1957200385813564 4.686614981419704 0.5971417945324425 -2.734342500995936 -0.08394009045808123
Ni 3.5296201517848154 8.915110658157735 12.369320002393144 0.13412108218784644 -0.18867449195369443 -0.6866956316328754
Ni 3.329300584539483 3.3511990346965526 10.921901403832594 -0.6032273386048902 -1.066697479782079 -0.1686021466838516
Ni 2.4391984743253046 7.720396447014 10.659823547899611 -0.44608048494583175 -0.3533554492062689 -0.9901269423151916
Ni 1.2158112712099507 5.881066411161555 7.278239714723416 2.7949693706493735 3.262293852575646 2.0345982637092184
Ni 1.6282382948277199 1.3231323139584503 1.084619054092359 -1.4306756988095166 -0.44805997726970576 0.16953879956550802
Ni 4.77611720868295 1.617773631199469 11.96005474223848 -0.08785459502113901 -0.09094171858689498 0.05517098874518886
Ni 5.543653227443536 3.825482191140973 11.443180498011973 1.1652062120829545 0.675217970010579 0.5373500191857907
Ni 5.868123029345313 0.5243970607421677 4.938137784376981 -0.22389577704983374 1.1039280819987631 1.3152323955368317
Ni 6.560309742586722 8.157517467617401 1.5113564819255376 -0.1746951469554669 1.146250496916058 0.464447931709426
P 2.3438889644501932 7.046520565499674 3.63382788721524 0.3376948598508765 -1.282777617442236 -0.023618153639572228
Ni 2.797438481916111 6.50617863749633 12.64131366292704 -0.11352757430721093 0.019087869869386483 -0.6480959169828064
P 6.974134539618771 4.173145713230387 0.10246610975623016 -0.24481735769384935 1.482536649344866 1.2594314865171277
Ni 8.142635840000024 2.4122121289402516 7.081395012185986 2.946953963381202 0.658818445606633 0.2540409331746463
P 5.102040694935578 8.381832145141226 10.859668804033031 -0.3953112248127643 -0.5307119450439828 1.5547460816295804
P 7.917025892445632 6.0121682389316895 7.777915754860609 1.0136605066607576 -0.8490890784028539 -0.684725138170066
P 7.93867274338813 1.4807452441527824 9.139929465959645 -1.092510069969809 0.27475656845544294 0.33302265118618773
Ni 2.1863878561290035 0.8943802287108211 7.107198841262557 0.3295627176620453 1.0388742869222238 -0.1850816323961135
Ni 0.6149932786643232 6.285172023719637 2.034107897434625 -0.5609077519010728 0.1623955036525074 1.2705455941524182
Ni 7.3917146878905235 6.130895112740722 1.2799793212638226 0.6285935852838206 -0.843212822127735 -0.6269848460358042
Ni 3.954068026765402 0.7120341638752571 0.6420849229799186 0.17122107236393738 1.9657014407375049 -0.009126387781300411
Ni 4.57909638669532 4.480721093798219 9.329355719063013 0.45910080846489965 -0.6029062078200456 0.8138873336907402
Ni 7.136127159844518 5.368940869147832 5.768507445505272 -0.47060829488386696 -0.09880826581916531 -0.25337038947018303
Ni 1.9191801717656078 8.296931387957795 8.269790355648228 -1.6337041454920378 -0.5765698839183618 0.17872149450604058
Ni 0.8301544040224922 1.3544144829700604 5.045158771765881 0.4591445172186415 -0.3213506141648982 0.6375479662636311
Ni 4.905318064609662 0.1435382837614648 2.6843809770754024 -0.2511260735206965 -0.33470775219809457 0.28645843027340345
Ni 4.417215588342716 7.835777983118188 0.5029226018540964 -0.4354291758795727 -0.9340272711081462 1.9738605795095299
Ni 7.105441374156334 0.7145277916463344 3.0796526616552287 1.0802870455410556 0.05623825366743863 -1.1129038031348124
Ni 1.6001896416478134 3.6789209894088897 2.3959662744705343 -2.412098171372175 1.0024055025722285 0.20427106084037078
Ni 7.638449650979417 5.521745458797038 12.151812481396869 0.24537143042510648 -0.9422563438861578 -0.5053400419380975
Ni 1.5449496363154258 7.829450728796209 0.413271278759995 -0.11596395166284545 0.7885272576593969 0.6971404811152832
Ni 0.2020267145086414 5.004727709833331 8.947625663320743 -1.6075051184991669 -0.24627285919345332 1.8422290965127561
Ni 0.24202446668276534 6.771522623974018 10.89274291856175 -0.6659946516400982 -0.4598258595563822 0.30672206561844595
Ni 8.154311907253984 1.0390768007082534 0.6033023018272763 0.7142102921133764 -0.46274329031349337 1.4026709860664748
Ni 8.219280415549768 9.30643130321986 5.317971527520545 -1.3041465700363153 1.3776335834818725 -2.6246029329762477
Ni 8.495284753933705 4.218359023937665 2.008986181784223 0.370359182853117 -0.40591419713959126 -0.3010550971406557
Ni 3.642960938704152 0.28282081340091514 9.790461599606534 -0.3486521301933286 -0.41307600499535313 -0.9211956665611168
Ni 7.781432552770941 7.808195254409708 12.910470775278887 1.1037187942014346 -0.3238057605736101 0.2275886525203887
Ni 6.692697521897995 3.160812977182044 3.0877811799837445 0.8388427180844973 0.9010888685089127 0.3083786273852624
Ni 6.325782000649216 7.605844256468953 4.540137646092479 1.8143706795395915 -0.37846098602464495 -0.3454521351987922
Ni 7.209351849773989 2.429004046890481 12.676979249365836 0.49220144767361035 -0.7603759920361615 -2.5259725874958434
Ni 2.403844125433422 5.088957535777908 9.692713441047974 -0.3313964284366744 1.6127745944282226 -1.13494098544051
P 3.813219059053014 5.332775811675667 7.564622054783919 -1.5176784873533216 -0.4262408245120853 -1.6398948476837825
Ni 2.0654338633465494 1.0401297900136786 11.149924840148978 1.5582816055866648 1.215747672475932 1.7581923325758104
P 5.682927370442501 5.185580952662442 3.6665609450308736 0.5305494513241895 -0.3569781335605207 0.7307404285579158
Ni 2.5522783435406424 8.829333962968022 2.3383155759229837 0.321202261512492 -2.8960036975855803 -0.27955810360914435
P 4.929024301715868 8.945488933694778 6.788166377942334 -1.0745414013065302 0.2298365680143009 0.1842740488931536
P 8.406423638743144 2.918383156209137 4.51344669682231 -0.2117030916383838 1.021589274589531 1.7425561687004507
P 2.4849708943982947 1.315416604711619 3.1725319094873767 -0.27411559243733435 3.1015669948748132 1.1816399321589457
Ni 9.183073140164844 5.368689269933261 4.072771604350864 -0.19810426990802657 -0.6432599290467438 0.4996165091907589
