# total energy = -381163.12565144943 ev
CRYSTAL
PRIMVEC
9.36716975066232 0.00000000000000 0.00000000000000

0.00000000000000 9.36716975066232 0.00000000000000

0.00000000000000 0.00000000000000 13.70979977812815

PRIMCOORD
 96 1
Ni 0.9155799318562308 8.644136419057146 9.598257569814095 0.40080952892317423 0.8741640190936106 0.3417960265034436
Ni 8.322945544130237 3.906025376261967 11.866448346771035 -0.8616435180290966 0.28827080089179385 -1.319359787441644
Ni 3.485392629941198 6.006650604931773 3.7795723349028343 1.0150669000899808 -0.479068252725762 -0.047260989869492794
Ni 5.829620468583566 4.762390746134749 9.56539566578019 1.8507713296558124 -0.4536778376771154 -0.2946905883752086
Ni 3.4781986437665102 1.240231975912758 11.494295386188671 0.556085647922081 1.4403952400901259 2.6073911970836514
Ni 3.433807627514108 7.395408420409437 1.7057728062422346 0.2734021113100775 0.08517242020328558 -0.11146812067502093
Ni 8.015402635162339 9.158356555835342 2.5257017602005645 -0.8520443043764359 -0.27799255889423735 -0.6475927520941428
Ni 3.8757881531214826 0.8508612210755867 9.395709390318643 -1.1033356998304031 0.5226749336721191 -1.8111272329016292
Ni 1.7605595072038407 2.9897569574476117 12.93264580714114 0.6325268588999557 0.024163998840713224 -0.3226706185279023
Ni 7.2859717791609 4.701972502870771 6.714086410234273 -0.6843970654066858 -1.2339037745596686 1.60499186515901
Ni 3.8012161167455862 5.077549163904759 10.567184468680045 -1.6415647791870374 -0.43426678014035525 1.457181201299213
Ni 5.224126632214021 6.911331835076742 11.061176202926681 0.4111901008265499 -0.31562965252072095 -0.6540971288715639
Ni -0.08196647997784776 2.1063954050807534 7.148262210215671 0.32897599192063987 0.13968906319392715 -0.5947874353676531
Ni 1.2131608560626963 4.080545111184631 10.695233675721687 -0.7808221757056553 -1.4810731774254624 1.6545336806428796
Ni 1.4741864013020802 8.897883673596358 2.190359902312587 0.3008465806742754 0.6908878153373521 0.19318035024384794
Ni 0.14990094004725524 4.667735498354516 7.346725367092918 1.5043581160953319 -1.2616367216985627 0.8972612672327063
Ni 1.7841366728310395 2.5145229801213036 8.740230464072315 -0.24514414490564881 -1.0477314802025375 0.6017363558816604
Ni 8.444606341574044 6.121548305997813 10.878259737265749 -1.014737284664704 -0.4675795353598721 -0.06572922387700937
Ni 7.645671087895284 0.8372179387013255 12.323821005298 -1.688623680348053 -0.7863261362430201 2.4860857786032344
Ni 3.177802885125809 6.923303077695557 9.408788769089108 1.120689103507186 1.1657718547784375 -1.6382321152693786
Ni 3.554213224245144 3.213360660541322 5.695228751074632 -1.0449176649028262 0.23342377114492702 0.18205133021022193
Ni 9.423840873755914 8.124605097173418 4.000368697297907 -0.627816340798164 -0.46579133311119786 1.2635071992483982
Ni 4.248414155763508 4.335763011335074 13.029779607970621 -1.0794187840034895 -0.9902462415018751 1.1666637704650875
Ni 7.291489041995394 7.56960967156916 12.259878832868765 0.1073911223921699 0.8655405390906578 0.46018761377117523
P 1.4017969154192857 2.4925663348173086 5.041408750546451 -0.09529819578337781 0.48659335745821364 -0.14617364247700632
Ni 4.441415316106301 8.653372448182461 13.395474841900862 2.125036303186818 0.9999403288611877 0.36834626618814625
P 1.5663687163347646 5.277154178743847 12.673146173813027 0.21095361506686897 -1.0357051451656227 -1.177469345721024
Ni 8.918051189526178 1.2564746478227953 4.129021150055238 0.944164102431832 -0.21531446313872596 0.25071701100773597
P 6.743837477277796 8.715083360837204 0.38546839202418326 0.5793070803438668 -1.2049950619451184 0.08896582580744677
P 6.475271360592288 3.1526801365313912 5.145685018118379 -0.5384589359792533 0.8576750202996519 0.1927347780659971
P 1.4793289773566425 1.5086388507167956 11.028148499992655 0.732092828820752 0.30271088757652387 -0.3237265705962425
Ni 7.486550979627811 2.787257487233551 2.813566119486452 1.64541654883296 1.5721822748281569 -0.8058531505323542
Ni 1.3593355360835313 6.6168842290674545 2.880100187715865 -1.2420680555380157 -0.16737470203465368 0.9037075370786823
Ni 1.2802485240094583 5.08022817438127 5.0171009456983855 -0.5446108145132621 -1.4185084673193633 -0.16396979011816276
Ni 8.881060237177426 6.574694497647151 6.4331996555076625 1.2960103140824262 0.09901858205775849 -3.716159123673219
Ni 3.841298235028774 3.945611034561746 8.358357191701577 0.20329224186686923 0.06242201388064734 -0.46501434573585726
Ni 3.3015900300457273 1.542032809978204 4.069370077973169 0.855609910240507 -0.24647674767414324 -1.0663346971260215
Ni 5.248275195180615 9.146001259267095 10.61775969023522 1.0734432831463447 -1.284805189395226 1.4282295512618695
Ni 0.6622897951885357 7.956829724289523 12.009674241833808 -1.5123809863998083 1.1643407787588655 -1.6504325139903124
Ni 6.9495592537992685 3.781488857782185 0.46048349551734913 -0.40625409697751325 -1.2450412792337269 -2.14538427071555
Ni 8.909077441146815 1.8827729676480465 10.665483545395114 -0.14571315790082 0.8523669778231773 -0.7405877536656408
Ni 6.3393349968330845 1.2403912177942291 3.524775957379814 -2.4743096119039127 -2.1423992199452977 1.7454041796722068
Ni 5.1806161298944575 6.2642009302872905 7.875690365378375 0.5954078425604713 0.9015951187213699 0.1557880256383188
Ni 6.276668632889517 1.7871622685789876 10.079842488060246 -0.11297555845848285 2.132311753802308 0.10455468138463928
Ni 7.333688140585196 4.889212853972115 2.2235646447501294 0.9338704338153078 3.0068683803486476 1.5923062992715415
Ni 6.793792592212183 1.3764399875874112 1.1046262732368453 0.033130206895065524 -0.5872795570263821 -0.598222686301447
Ni 6.20900020043386 6.979384321481828 2.6676527834946198 -0.32316092790075956 0.4316774221466243 -0.07757558169263415
Ni 7.621166572487755 9.389931720172097 10.421819112103861 1.0205623759869134 -3.5037482073345334 -3.373548314577964
Ni 2.1173268918852592 0.2753957199667126 5.458885697463246 -0.9328417354404772 -0.5168853235735356 0.9819444065043992
Ni 5.559115347811912 2.254190605424793 7.680572224728968 2.395668565061242 3.3362290093022158 -0.03836471582112748
Ni 9.179891678511913 9.243916282032734 0.35006330147149184 -0.5761327963809433 0.31859104914189 -0.022449330142451658
Ni 4.27850150419202 0.8207045555927879 2.0684386975567275 1.2284365807975102 -2.429393982338145 1.1176189492222945
Ni 2.7095568162452253 3.701221582351327 3.4926259582277783 0.4922857798573005 0.7091678445934626 -0.8592030269084041
Ni 8.158954507723651 3.753274943253331 9.370977252692306 -0.02319289317669554 0.20942535134780063 -0.7002967673560779
Ni 7.132265894863439 1.3416503200707575 5.9289808456027915 0.3981021572943402 -0.6149433414902378 0.7045316313730318
Ni 1.3242929549904239 7.01785528661131 0.1028440273556393 -0.4787234677918336 1.5485965170884168 1.2330439976625345
P 3.8928551359473693 4.770109293801342 1.7699210564004326 0.6916447481080347 1.1960764192992497 0.9005466228521974
Ni 3.747542235520377 6.5976627972569615 12.828012650411328 -1.1844159522421862 -1.6151340957993343 0.7153215228996841
P 1.8637763479055118 4.716529084271116 8.83515642305105 0.12052097490590856 1.1578083769569867 -1.5653765647602331
Ni 2.009342161908958 7.167093031058085 5.287636978129385 -0.011652496637263804 1.6817079270648265 -1.3581649332342998
P 1.7230908292106755 0.3051280526712388 7.6837392647363405 -0.18980500601371184 1.4858006648081186 0.42143954646869997
P 0.21703731727540826 1.4652969574482022 2.0027823331093044 -0.11552249325005265 0.38606270963130285 -0.7283253913585199
P 7.747866907121642 1.3064484970961792 8.413127968475035 0.06457274167506298 0.9115406599698559 0.3559355512286193
Ni 3.1429101787446734 5.837095469843203 6.715347231248743 -1.1308686151433491 -0.1686376279074773 1.2912077504874602
Ni 4.923768342251312 2.9970539824867806 1.5529914615742548 0.8823910349890932 -0.4875523789373732 -0.6618104383554215
Ni 4.977657668374981 4.922447571352052 5.856620397945441 1.0687484487738368 -0.03397635694544471 0.49876136027931517
Ni 6.867690192384203 6.052259353218953 5.037816441043857 -1.2985402795931313 0.36867356762057796 -1.6120911952079529
Ni 5.552015033332207 2.005445419397669 12.855816282916155 0.06268889438878882 0.8580318894184383 -1.1983695862088006
Ni 1.350708372975605 7.653914197053782 7.363464498986365 -0.024156542641545493 -0.606342230084788 1.0208110016626097
Ni 8.916599278253944 2.2847931481757104 13.256511945676761 0.8623572562666696 0.4426015252582958 2.303091881974085
Ni 3.6915265619205955 8.507872204365503 7.492240598381073 -0.031150714571191514 -0.4115467128350202 -0.07905242334847676
Ni 8.61517313096843 3.4805872719885746 4.8669236741509305 0.5486960403262292 0.9236914363997769 1.2615487899704467
Ni 8.90757869402709 5.047162066052302 -0.009632260395092893 0.7508472266101197 0.8652667166039807 0.8651451034244518
Ni 5.959945897813293 0.13923079727175167 8.04696718622073 0.07782549291991113 -2.4945832745512844 0.5324127297851734
Ni 3.6152028648485186 1.5834825350081427 7.297685424618514 -4.0104478486243185 -0.21355994234146444 0.23462627609346046
Ni 6.8375560081082 8.321025274383087 4.630731431968467 0.13286458407292603 1.797814832063439 -0.7344016794595868
Ni 2.1257573444337217 9.309167984757831 13.55664729700541 0.12312421685671056 0.6755858948729591 -0.10220443598490786
Ni 6.142558867182481 4.894870624349083 11.98099384226394 1.1394566139226763 -0.5778829463028305 -1.0910887641422498
Ni 4.862076163935566 0.6994605971916551 5.802809756045558 0.8017247301862773 -1.1367476996319454 -1.6679769506319788
Ni 8.766246840636871 6.804873953728662 8.575959349297733 -1.0760035876743534 0.38306686022777253 2.187592271542168
Ni 9.012678335797917 9.245180849915004 6.107920947811699 0.49999214736262276 -1.040968193336775 0.7911096736745924
Ni 4.502948252540577 7.610291288700239 5.3742692452343315 0.666396257953891 -0.35094966797825367 -0.04001742093320205
Ni 2.425488034040045 2.104578174198085 1.4274095669784634 -2.76033943928033 1.2487724641413849 1.7726979823911535
Ni 0.5027565947461877 3.704087936217804 2.7547103200947887 -0.5747927374132811 -0.3761621626881393 -0.5187609433296937
Ni 5.243469837227992 4.136373441394447 3.6788602753250057 0.11992447897249023 -0.043909556898756634 -0.8642904687336405
Ni 7.046378317733606 7.669922689726361 6.758519578749418 -1.674233987285284 0.7526822229363295 1.9169875204715694
Ni 1.9754236411556452 5.309002555038037 1.2560634290818202 0.2657937028352003 -3.3392063467629844 -0.5044422127141764
Ni 8.336780853479214 7.136846440748104 1.2962054972497974 -0.13415193542578185 -0.5063995935508634 -0.25072472431721987
P 8.69378241739809 5.837488890962131 4.131762920567388 1.8630840855848947 -0.06349982032585838 -1.5115919148396098
Ni 3.050456215796539 8.308791751018319 11.532203384431307 -0.9229067357149525 -0.4526229140500398 -1.6833776014577655
P 4.677411784446251 3.1361845510449005 10.567691232549903 0.03530124640445534 -0.5205679146314454 0.36245561173532415
Ni 1.2581794726714841 6.3585564286435785 10.31559540999324 -0.10976502194098516 0.25999509387555225 0.36555276260340913
P 3.7704449649436995 8.596897783277262 3.6023042724493712 -0.28539913577095366 -0.07302987130348068 -0.009921887099402267
P 6.610149234198183 7.5736656559619195 9.45230301827647 0.4208651620224687 -0.5634315467641909 -0.6633952663440382
P 3.7974224130987784 1.4095529317638709 13.852929931519412 0.4150426418034206 0.01981729183624329 -2.4878492982615605
Ni 6.125904039814519 6.149631080153691 0.13632884816118104 -0.3140275981409237 0.6476418601645233 1.3293109851170848
