# total energy = -340887.8551066262 ev
CRYSTAL
PRIMVEC
9.13963337090167 0.00000000000000 0.00000000000000
0.00000000000000 9.13963337090167 0.00000000000000
0.00000000000000 0.00000000000000 13.37677728661506
PRIMCOORD
 96 1
Ni 6.4306277479506635 1.8142537791170505 11.47521456053214 -0.29870356618934363 1.3724304420143782 0.21332494351252293
Ni 4.661889342931883 0.1067390360404541 5.8431769002189995 -0.7680409647805869 0.501510126669046 0.6037253612872313
Ni 2.5416863373209413 1.3188033946806856 5.059271461489847 1.5147088632020367 1.0979163285870446 -1.158922435956772
Ni 3.417509982645215 4.708931035800115 4.938050676401461 0.13769542980266608 -1.2178438928833284 -0.21467502978251415
Ni 4.707797721264335 4.676156310596019 2.398857631059235 0.8159131058715173 1.8974545926449646 0.8502206209041357
Ni 7.483029109656175 6.360462782699175 2.626490253314037 -0.5280379977562454 -0.9715856889778945 -0.11826611743346084
Ni 4.834820345605248 4.651186832275442 11.463630989220464 2.012023463732496 -0.5078957184804156 -0.34632708160457776
Ni 5.784985768623361 8.07979232981128 12.62486893282096 -1.0818644173305045 0.2716681593381063 -0.5418566488068925
Ni 1.7264493214941437 6.549899963208177 0.24277882264750308 1.7596408920968791 1.0003115961576772 1.0410851785306137
Ni 2.7061540395093675 1.8453285325174755 0.5782618603584918 0.6319763857131244 -1.3462872079601071 -1.0646164288833342
Ni 0.936903815022815 9.004348500174101 4.241749537324783 -1.3831840809864564 -1.1360555586609273 1.9752705724831787
Ni 8.606216931681185 2.2716101717378354 1.1425921775969046 0.6615841812772283 0.9946862795510998 0.994380575385223
Ni 6.935482815107333 0.5647470845193128 4.7635778175814325 0.02678729539617322 0.8755729836259953 -1.087073986555902
Ni 0.6234646589960865 7.293381717580052 2.7210909422982836 0.5945876606520212 1.4076118750115179 -1.6479452287920844
Ni 7.692125641507624 3.837631508985609 3.561500336306096 1.0933616193368265 0.5835332026100725 0.4107242169337249
Ni 7.654625725859994 4.1808064621265375 13.000769257145876 0.4229552117822781 -0.4804931580977467 -0.9703749564992449
Ni 7.841704880963905 8.935207173858156 7.008842996179054 -0.1135568848832496 -0.3574301334962748 1.2755307060718355
Ni 7.17074611724861 0.6879493421186451 0.18514246679639706 -1.1394730689829087 -0.13144842045168975 0.6160887679485906
Ni 1.6191683051958528 6.5975814304111235 9.693521639198721 0.08763579414211359 -0.5536865515622852 -2.096104964864448
Ni 0.18646497174258575 4.984079697894171 1.44557467910439 -0.7302758302166714 -0.8776010697996176 -0.0035126411389487895
Ni 6.199285348517852 1.7789016773073905 6.959924022620103 1.2369646728731793 0.2579965753882847 0.7030293357958924
Ni 3.4992640029883924 4.51677938418525 0.4190704685047908 -0.010573147530155985 -0.2462147522620082 -0.8746844103734549
Ni 5.902941876678034 5.40975812131323 4.564450797791508 0.14350020940990124 0.3200331809050553 0.29088407014492484
Ni 5.41467524405718 3.161225523791886 9.207075621541799 0.097004122730891 -1.0607885704968116 0.32397519627193877
P 0.1320539925017768 5.708633271591847 12.680676448038117 -1.0556175678188335 -0.6542840480713894 -1.070464145913363
P 4.028631566797985 6.299519707500929 12.519433208496652 -0.1983392687369681 1.331405148641952 1.727283558812096
P 2.40557891742708 8.79711645352668 1.7206950083350532 0.6730052786299764 -0.9870236207995193 -1.4625023564018105
P 6.339213135153296 7.864599662513336 5.7525894242400835 -1.32679027557776 -1.1071239632282415 1.2116333931972423
P 4.578718679418981 1.1679811650883873 12.479476559403718 -0.07506695633816748 -0.8633841548692872 0.38876519616413047
P 4.220207421511606 6.060280664851069 8.142926175124254 1.185521783711855 0.14590213398317453 -0.4142232312259188
P 4.89679619937239 1.1315871450764778 3.8536752213735808 -0.10754024637552448 -0.6725681910925578 -0.5814045863028439
P 0.014931419008904231 5.705443539551626 3.8681094443280784 0.21224585151573125 -1.583043385912377 1.2464101345567953
Ni 1.4223097424041602 1.283250220937258 2.6401211024967997 0.8915554750971806 2.4177725960491325 -1.2131169197213043
Ni 1.7492435670766908 6.711150514456325 5.076206288129744 0.04130040141068372 -0.1931440976892738 -0.3093559036968673
Ni 6.316354912137277 5.419638064967894 9.31069164486551 -1.5987731379428078 2.9300386756831025 -0.4396815233980234
Ni 8.655909118221807 2.385636237450689 10.161575058695936 0.1234206650512068 1.2886150500596194 1.3316231781900292
Ni 2.514834094529633 5.337043198356236 7.107710066012514 -0.9687240511593832 -0.3449883081884962 -0.15922636189590642
Ni 0.4113849508181975 9.36218342521335 9.559352735539045 1.3690710386238423 -2.8115295890008998 0.12096217620838523
Ni 1.4981230010678441 0.8774834027411904 11.5183947583087 0.8459623598484141 1.6280101804310545 0.644190154170497
Ni 4.123564938436284 7.0357171740904105 1.4680883379429979 -0.6361495432542076 0.6448036193847798 0.28157153449474737
Ni 5.484584299574782 7.931026517723422 8.116360002856897 0.7593601491771373 0.09380104241256103 0.19902343928818625
Ni 5.294726695931539 2.899475564193424 4.994407483583137 -0.019129521740599315 0.5126802843532526 -0.35307879850611446
Ni 0.8654656988452437 7.698633060455006 7.487156568078421 -0.6801136075399835 -0.15618037598073103 -0.16024683274062082
Ni 5.504801168551764 4.514887480081166 6.9524596840606545 -0.16479357157103874 0.25161355468007635 0.1674916872284922
Ni 8.332676845057268 6.952199204510092 9.489846737852313 1.4556264552175835 -0.03940215594670634 -0.886085453121545
Ni 4.596458707757281 0.04106894247200291 10.311635956829925 0.9770004322355627 -0.6728075607968736 1.3555848312119492
Ni 8.242450384595799 7.428483777805076 5.208301408981609 2.1000680632772544 -0.83066249626655 -2.058047238760778
Ni 7.500696020927653 6.323355871285726 7.185067922712864 -0.1860779348711118 -0.34036469337355574 0.05321489346008255
Ni 2.0849331605014587 5.537685569356097 2.7369015940357526 1.2015256153392793 -1.165307256437193 -0.1396669517067401
Ni 2.42802585694221 5.2913998693910225 11.467336196581797 -1.4094746392518696 -0.9176184907328196 0.7007785920885028
Ni 1.2696413068745427 3.4740386149339293 4.036389287588069 -0.2431260860343555 -0.1337935236450986 -0.2853140322563151
Ni 4.027699324195973 2.638666986830327 2.5347923118827236 -1.5426806658246142 -1.4525059073107307 0.44906759259861373
Ni 1.1606785980392873 3.5133298987187613 8.226825267415396 -0.38405442095202247 -0.4657869622358236 0.2757140472727058
Ni 3.8585521297307768 2.655045209799021 7.327637977350681 -0.7368046324741245 0.8285616478734633 -0.9663689206636453
Ni 4.3119327818429785 6.801614605384973 6.0261441342773665 0.041853445700676305 0.2981551498850414 -0.21824603496322412
Ni 0.7183130320442015 7.691540704973027 11.542486831827384 -0.4482723503908279 -1.0142680583377692 1.293959087980352
P 0.41684679570998984 5.614047206020966 7.91196215651226 -0.7673038295042464 0.40036267119374275 1.3327220676811629
P 8.777155494283582 1.4506608850653715 8.213902739817497 -1.2454706534616615 1.597245645554688 -2.233866729128675
P 1.610229743776554 3.177823097961054 10.414878169149496 0.8097283172170442 0.4654231511385017 0.3052092285183453
P 3.8341675879447963 6.397816464213156 3.657050633195727 0.9031778898274574 -0.24505209941247474 0.5176952210693406
P 6.887426622936911 3.988179549577315 10.672902814193248 0.8753094455519634 -0.9847947314690007 1.1601905040359182
P 6.622797678832233 7.830682483140107 10.183272548276115 -2.454223639787315 0.4386443403827607 -0.11928967360196875
P 2.3432557575925217 8.52497473080578 6.128356309918047 0.6763549118284996 -0.05106802232040882 -0.6759893009589649
P 6.7007404720671815 4.068123922516585 1.5982175236606193 0.5398226490959993 0.46120782750557343 0.3570069299159271
Ni 5.579115527345546 2.7777265082972287 0.19606250072664055 -0.7593087271139116 0.4528283451926266 0.2736198837478384
Ni 1.553189292020068 1.1512647756856291 7.15658882518471 0.310732986550052 -0.44002065190499706 2.1457979612142015
Ni 7.024411447632668 0.8213039044465632 9.509337005977727 -1.671311928542483 -0.4675227139800078 -2.985883550566864
Ni 2.8567751971678983 1.541572818028321 9.480041739191144 -0.7113445405298072 0.5978987273031252 -0.10121404704718052
Ni 6.392095053734136 2.068408703399115 2.4877460491978156 1.0744673535354852 -0.8193871804630469 0.25037531139760105
Ni 4.001925558140326 6.582263404911385 10.23572307616269 1.0536833269105983 1.5497486284149888 -0.10976733593383033
Ni 8.143111709681321 7.414628093641829 0.2187013725421855 0.6362145921641882 -0.36224169595230515 -0.2542119115348719
Ni 7.70892428761056 3.9820468555974076 8.280893510405466 1.267208045138753 -1.1019974406349535 -1.0002856280157482
Ni 3.2346441985170666 8.519810837961298 12.847270942907802 0.03147955866551998 -0.09283739294771108 -0.2166393525977366
Ni -0.017644062188094275 4.873334760555069 10.612707361003284 -0.19898050186539282 -0.5563034203598419 0.07182530947241823
Ni 8.779367285555026 1.673503425479831 5.931316782385963 -0.32185737859798763 1.5879130552998524 -0.7091521608641786
Ni 3.467860222787257 2.8460269883446925 11.605224017052835 -0.42671750703818767 -0.8059166567804378 0.14573604071895546
Ni 1.195253831013937 3.373941350451149 12.65800284561583 -0.9905532312193327 0.2582925093621487 0.05938168439242676
Ni 3.042300614601789 8.448978679475035 8.373207463124775 0.35080568620122166 -0.2303759854575387 -0.4052130573075086
Ni 5.635507065133964 7.819641806049603 3.5161129170747696 0.2208405351632777 0.10883479681723192 0.3877521815185838
Ni 3.4006747780088675 8.657444576625123 3.6612374992347663 -0.7695301477316037 -0.5365725175898177 -0.08607127786847112
Ni 3.3699930288426243 4.420922909578293 9.268394335670855 -0.4797794198601737 -0.8089389885465293 0.498768816478483
Ni 7.078929360583707 6.298130483231263 11.630157850803336 0.5096425259681933 -1.214334079957857 -0.2892185095170438
Ni 0.710838639888064 -0.04194634727389727 0.37651085183290284 0.3655769309731252 0.19112963836240632 -0.16186637062191478
Ni 4.852715747710552 0.42615551228008774 1.3722035304726454 -0.40338166052572466 -0.33739301233974156 0.05553248584966565
Ni 5.842172454513498 5.713842862603094 0.3824644089990902 0.4700542221526098 0.3682753037408948 -0.16476554654658074
Ni 7.929719550153933 -0.07588454780383795 11.39464686459819 0.6598756832265539 -1.1171011290456117 0.9895916386370117
Ni 0.11076504453247975 4.548539610087156 6.038718441844515 0.1505784564129213 0.20613331086009015 -0.8065774302928883
Ni 8.250164235145787 8.95721541097234 2.2015100978831534 -0.763342530863653 0.942408810303622 1.2402561991402576
P 8.734263194957643 1.748174229974382 3.6300293071873866 -1.2579695572596208 -0.3965168150850913 0.05419859752959053
P 2.0027861359241 3.5403375152770717 1.6129588382957794 -1.1091831597501156 0.05430735519331293 1.0936428980226713
P 4.744027227875889 1.102212363479723 8.457695147803854 0.8061352005491472 -0.6841952338085249 -0.5426038113855622
P 8.811986636992117 1.5762668662365602 12.46868173845041 -0.08192768801374278 0.9222922420594052 0.4634814540310986
P 6.402020695555566 7.803117348947261 1.3978465997713432 -0.8323221433571601 0.7782428450142532 0.11909195576886587
P 2.001278096420844 3.047738696446863 6.199320079124594 -0.18351068836456783 1.6299719321431156 -0.7677188055544778
P 7.278045412813608 3.6343295046800046 5.842241001763645 -1.338834351226488 -0.16602075910992053 0.627298777731797
P 2.5533302302127474 8.328362938114621 10.587826537126231 -0.2234520046441958 0.7484635568692917 -0.4229644677536586
