# total energy = -381178.56712619675 ev
CRYSTAL
PRIMVEC
9.16987812464386 0.00000000000000 0.00000000000000

0.00000000000000 9.16987812464386 0.00000000000000

0.00000000000000 0.00000000000000 13.42104354091310

PRIMCOORD
 96 1
Ni 1.0762227252769336 5.8264854284037995 10.802463760213998 0.0844730801434158 -0.8043102315252665 -0.04192183704476651
Ni 1.6087175376727205 2.312065515981342 4.519039645748427 0.46474437990392214 -0.3237607662682876 0.44089636964173096
Ni 0.32385441343799704 0.3050534126827864 5.816183987517879 0.1028289569427842 1.2422883990789377 -0.38789616329561577
Ni 3.7760548700128935 6.198544056234808 2.2609892958152575 -0.7455466403328128 0.37003496674447883 0.42953466477200863
Ni 2.9891693036049847 4.353692991542905 10.990425167412983 -1.4453633827286785 -0.18902596175584221 -0.779718144008199
Ni 6.399997104857557 6.71150702860299 2.327679067162095 -1.3409696524019359 -0.6553675109435552 -1.264934161502912
Ni 4.641617989208056 4.932789123666527 12.217538234311627 1.1545492465897407 -0.13628492260838462 1.5988500139273303
Ni 2.1911148258573463 5.346689904570757 13.30899120987112 0.3585457351579567 -0.0604908582962055 0.14895197655309186
Ni 7.332133537949628 8.82664024578957 4.948217443312747 -1.5420394326961895 0.4307461685816065 -0.3488431631582121
Ni 4.835496718646391 3.989172003384522 3.431116156210825 -1.3974081950056387 0.17346898785784964 1.4388808603281285
Ni 8.284416192891767 1.7802584444315976 9.371485049804688 0.2038424579433844 2.611369979225741 0.2937194827111909
Ni 1.8885180234766235 0.2716071998580508 12.312263990494333 0.8505983159585288 1.464361521097736 -1.209347168266227
Ni 9.07566662120256 3.9061570983282268 11.486775988891958 -0.11799358049836452 -1.0717448123979993 -0.1951117629386059
Ni 1.1784576945106278 1.5831885974676254 2.3672039920780503 -0.32222864589447736 -0.8570304447371174 -0.8775229082635145
Ni 3.2146382625715355 7.052397241291355 11.686588546349949 -0.9215306813030323 -0.010536123644633468 -0.686269085618418
Ni 9.237643345262473 8.859174972746349 10.455019835756746 0.2508640781085615 0.38266911056872155 -0.12618254406706012
Ni 2.801865376654815 3.359357276334757 2.3631233963915323 -0.14229127670346461 0.9224573068823597 -1.2375994782437008
Ni 5.909656221385198 1.7045977814889828 4.03645922998281 -1.1836775314142647 -0.1463883295909737 0.4517022020079834
Ni 3.907495900508523 2.6945411251604066 5.438314408031709 0.7164191268392371 0.1518544949118675 -0.26641231025580564
Ni 7.94472723421449 6.580845437732876 10.883473212963233 1.368150840802418 -0.3795485626618689 -0.9255531721988641
Ni 5.122944882658286 4.673070670567064 1.3253022859820187 1.370013090822137 0.6293106659555033 -1.564166603612532
Ni 6.7135152318734335 4.473323219242499 10.929896637058892 -0.4743579917342863 -0.381982111804026 -0.7969262803563695
Ni 5.299098238024621 2.348442421798013 1.7733361035692319 -0.2679200051495837 -0.6101844866490137 -0.8075333664482545
Ni 6.557645646526377 6.500324739478227 4.5609129764066685 0.9000496286111209 -0.6896436585176058 0.5649001608899175
P 8.804458311035212 6.408084937207016 4.007321942805479 -1.179947117837555 -0.2720949624628798 -0.6263181589860827
Ni 2.401435146455069 4.87545904674043 4.221776961369609 0.8019113922757867 -0.2769852006756455 1.0225094724109551
P 5.105567963948281 8.74562437412577 4.097725935511654 0.06328898986663294 0.5511025928851928 -0.7297721511073754
Ni 3.622853719148481 1.347788660684222 3.1066629497428733 -0.11811956455326754 -1.1570894965130911 1.3050582832173074
P 4.693097684003819 4.888131818063505 5.3147062872786055 -1.1307565150455172 0.8931441597405393 0.9056942284914079
P 6.527981091367081 7.977454528608163 0.33484451215775507 -0.8346968142369238 -0.013420901391596239 1.7396564785551523
P 0.6127248255195076 8.887812501575556 1.0947238710232698 2.0673476902260974 -1.6512408688242208 1.4063646328679777
Ni 8.526152515336708 7.253180888823956 1.6687591475078143 -0.7489199276804199 -0.005649999196925754 -1.0085015881676374
Ni 0.01158063885955983 8.74605535838929 3.4074551201435805 0.8087135027992847 -0.279559389160725 0.3315206127193645
Ni 3.879179317407469 6.133181166226936 9.359312036829737 -0.5484253031633459 -0.31396871987853026 -0.589992585082171
Ni 6.015770048990571 1.246278111808359 8.618685753702232 -0.11968690904038742 -0.47699774334997846 -0.2889601136493346
Ni 2.213195891954282 3.6992021229371383 6.787329998385271 0.38619743543695423 0.9289511421368195 -0.042841777755874604
Ni 3.1995721531042323 1.6271031429569214 10.52907668704639 0.1654209207423925 0.6088840226700352 0.08401825199418435
Ni 4.083456688437965 8.610717129766087 9.886141698629723 0.5439145597771858 0.4181853011974604 0.12653401386920787
Ni 0.5079452151554563 3.442628937973575 0.7967661098960518 -0.319764757735017 1.0509042215035642 0.2151234301738424
Ni 1.7433771953278288 3.471431524605832 9.145635540903326 -0.7335431881140334 0.1253361369063648 0.16352961725695064
Ni 8.901695696787666 3.578086375010092 5.106868252641199 -0.6065944553049101 0.8955728237866899 1.4209044783553657
Ni 5.299575071677878 6.622568382392783 6.580149443996681 0.253810305221079 -0.22111641453248368 0.8085738918976269
Ni 5.374575503408291 2.5878587651223044 11.598076299464287 -2.059418150966376 0.6984777118694679 -0.09692313298131049
Ni 0.6963201838498626 5.513352436261706 6.521674049314974 -0.22296940858082245 -0.3052141136143518 0.16447912565441353
Ni 7.850525078062572 4.8867288267375795 1.3065618064212596 0.7094414099698234 1.436778726383461 -0.48638869764657516
Ni 0.5546336487237902 3.939141149304422 3.077256985141689 -0.7548684319543709 0.35236557448917377 -0.7046763844810122
Ni 6.473356128435417 6.116051834221506 9.002930232337317 -0.2993651110327425 -0.20666655765574082 -1.1743858216996936
Ni 6.887981329697478 5.962153772633104 12.742501825949352 -0.07230816264610773 0.34616484499510064 2.167639996789957
Ni 4.903482193747173 0.5331073602426621 6.188644256002976 1.2591010997609025 0.7522307372212077 -0.938643686834235
Ni 7.335911527663887 5.367478017877134 6.726841815494146 0.9194321469027908 -0.37699211478860234 1.3643669482799534
Ni 1.5015950234931514 7.877695426420221 7.4166293782944015 0.3683223549287463 0.8580028359527159 -1.6268464991402563
Ni 3.8409592661234044 2.1392775058216413 8.151189787159812 -0.660685580722359 -0.24325284142020687 -0.23289720921749568
Ni 1.8739562572964186 2.9449063027536933 12.485972656399936 0.898416206772756 -1.4100523661322102 -0.3543980315381703
Ni 1.621949671550577 0.857445943236273 8.630455292047504 1.4419265891329878 0.33733310563608354 0.043971777595259755
Ni 2.5487859151891468 7.741293491955139 0.5808723374820011 -0.8087649248625104 0.78557434567866 0.3937585356136638
Ni 0.20297799932537391 2.4707319141023047 7.2246955799686745 -0.38676333524275325 -0.0980166231558054 0.17008798720075868
P 6.430248532205477 8.32562562438663 7.355805577870409 0.6885249715321303 0.7842728532584171 0.26551345259062015
Ni 7.014259718908816 3.8700827984838146 3.039544028108106 1.0477998715466277 -0.5141257585505274 1.0245743253597839
P 4.687641606625216 3.8929708138401065 9.834524455664754 0.18714494268304546 -0.34465020812278707 0.5966314305549273
Ni 4.712033481964854 8.720700645865191 1.6798849604211914 -0.2563112172660618 0.40036421385563953 0.4280732497351338
P 2.246060734517163 1.5473252048159996 6.5456037628060715 0.12801008419410212 -0.17198366156157477 0.5269383369341635
P 1.6775833210564361 5.8270081114467915 8.561606014444093 0.32171185415905884 -1.2776066147642575 -0.5627805434437534
P 0.9651663334580017 1.619382105725352 10.668589044111172 0.505135125016143 1.349169671714225 0.8716880467492922
Ni 2.976377323868595 6.353423294763563 6.4895042835004935 -0.15456726585734024 -1.609136740565319 0.7702775674205896
Ni 0.7996142739864622 7.586331724524857 12.441387792832696 -1.7292784777549381 -2.4348022978379102 0.41881110770691743
Ni 2.613479404106872 9.028836054526044 5.2537880371117565 1.1967173953173582 0.7771233866978293 -0.005449453150345454
Ni 7.177832001731548 1.7100538588675862 6.221673239381112 0.9500308456252541 -0.9048107974451901 1.0261630100031423
Ni -0.019242988872267247 1.297015046490396 13.503851116249809 -1.279800279981467 1.4230284666769042 -1.1901777944266276
Ni 8.731053438067617 0.114429072927924 8.128978508796026 -1.5238391076380788 -1.9242907390012023 -2.4418193525856915
Ni 4.5383651635222195 6.937517010368428 0.13486506292112618 2.4609149357645617 -1.2085665813464606 -0.12173736381151293
Ni 4.850920453353636 4.339433831334959 7.796579603086798 0.9107521026302896 0.07021579889345328 -1.2942318820257646
Ni 8.927646451378333 6.952133795816316 8.541138846865872 -1.4858328035976345 -1.1747174940074996 1.6355879927783121
Ni 8.50186150865449 7.428518125052988 6.322653769311626 -0.9035013346051473 -0.22749352170342108 -0.5108293471874428
Ni 8.14965566657924 1.7463390659047848 3.759542670793312 1.3993992572937384 0.4773682393155198 -0.3839238089114291
Ni 2.4497787429928786 8.29816183993467 2.838121240082583 0.34784171847689127 1.1552341884719073 -0.3506110536919123
Ni 6.493970014060795 3.682659663120331 5.490589131245497 -1.0090875425780943 0.12135298388890069 -0.7890499629320863
Ni 7.66892481519558 1.9420884504443554 11.568724437142992 1.464807093275587 -0.8275668880603617 -0.569557971376903
Ni 1.5268672071157239 7.138584924117393 4.603887609406374 -1.2978483957324294 -0.7328369060756282 1.5998694563307803
Ni 3.889834715582153 8.276300850908468 7.48306331004651 -0.5333830641182428 -0.11145552226953064 1.6885881991244274
Ni 1.2699363969122186 6.220799350012741 2.3603183307274738 0.5861528996211066 -0.9324866660939037 -0.05953183681704585
Ni 3.8732830858873983 7.012691669779839 4.480172201081287 1.4278798812319344 -0.15130556438693296 -0.601743812080828
Ni 6.9206536048234675 9.13450972798995 2.5449253965733627 0.003283555847278216 0.43770203107414946 -0.7451159805532974
Ni 1.8456671838292065 7.644954754241515 9.714271593252542 1.5160322099991503 1.175120385872873 0.21781074719801843
Ni 8.490307462440978 4.609752663341424 9.245394643091268 -0.02580307710603298 -0.600116046669418 -1.2690792940195368
Ni 5.49800206057804 6.796016623764684 11.003645380449509 0.1645493167707166 0.6985795275546549 0.5094268104129613
Ni 4.622764720148547 9.060444623810154 12.315941111551172 -0.8887498873275854 -0.3535606232385395 -0.14972973525938085
Ni 6.322117331451712 1.1600812591043743 13.38421630361124 0.0052951869606683 -1.8753251077357767 1.0870256498164699
Ni 7.698873636571241 8.607480162850713 12.12469138612031 -0.741172165414201 0.47048205371864776 0.4976758405246203
P 6.055283053065196 0.7228706484582793 10.94825656668484 -0.4995494033982493 -1.3016096625470746 -1.3888945011076725
Ni 3.215619439511889 1.219364520033232 0.5667167968948584 0.3445946722945033 0.8693084907735223 0.5505528910293099
P 7.532311973537712 2.246464209146841 1.5777774524909636 0.914799790337102 -0.10317039944260296 0.656936655202888
Ni 7.005383277055895 3.329995327147719 13.177505246973547 -0.015470584831773356 2.144271754377662 0.7570965499539413
P 7.07471672421492 3.226164799151207 7.908860173611685 0.5180430913270627 0.27443415211901767 -0.24251082104785973
P 9.17088663380662 5.4141802062623885 12.980067687903892 -0.1670090911651188 0.4838656741144054 0.3929923468716006
P 3.7481325916635706 3.422620264292714 0.2842533785350791 -0.687866254902209 -0.4177304730482289 -0.6022945423779756
Ni 7.030362024584156 8.377362075764916 9.720941762471359 -0.8957507441254509 0.29450109807222186 -1.0269076014786507
