# total energy = -381172.0883445465 ev
CRYSTAL
PRIMVEC
9.17058144203696 0.00000000000000 0.00000000000000
0.00000000000000 9.17058144203696 0.00000000000000
0.00000000000000 0.00000000000000 13.42207291699631
PRIMCOORD
 96 1
Ni 6.390253578909352 3.284627076907789 11.61032081839049 1.5171663236035935 0.7070366571830726 -1.2041216582012295
Ni 8.812525050442531 4.892633471003664 11.92645092845158 -1.936647460794342 1.9145691408380638 -0.28878604996531554
Ni 6.764761774924541 8.405195344227568 1.3016310312824788 -1.1370436336058094 0.22450821382285208 1.1836027123122712
Ni 8.348612858077077 3.651046820283637 2.5864065342757194 -0.5957634261276772 0.35386735584568085 0.2505223784984266
Ni 4.585244758965045 4.475628801597653 10.77113285236142 -0.15169868606029357 3.0196207949183096 1.2338114719561786
Ni 4.428693766894539 0.6624626123244535 13.10163431758861 -1.6710818148095476 0.19281962447031956 0.45470885004479106
Ni 0.8027789244545677 0.0747888410539858 5.889135421461054 1.0055124236323263 1.4056300686947987 0.5974372142856744
Ni 0.24133943489085966 1.795086251060218 9.31005934474859 -0.6213417888174138 1.520090439228924 -0.31274436055312593
Ni 3.5859173524326193 5.73346572224615 1.1828967650043198 0.5016029434931684 -1.4815562877094677 -0.9532802058004871
Ni 3.6482773047540675 6.765312009797966 12.317717444595036 -0.28395391868399483 -1.871745103694002 -1.7224478279863498
Ni 1.6413506274254015 8.290260449750406 13.178797422121423 -0.30313820492192955 0.640999158037025 -1.6133572064045696
Ni 0.07188726915479371 2.1541328471321775 6.984055132553523 -1.617982620991723 -0.037072993592897445 0.8763144897777102
Ni 2.9915628127406553 3.126076898130508 1.2037763443345364 0.31654187992234517 -0.5672172390588683 -2.2535482667180027
Ni 8.7073751661311 0.9968696907644621 3.9681013249320807 1.1374853491289183 0.8036504864540803 0.5403165580132824
Ni 1.4529685479272867 4.91774252239427 1.8556010824394487 -0.9832001332883713 1.6065818353539494 0.6143450457846065
Ni 8.492407571665357 6.5651549040085655 2.5423015409382534 -0.3298303695011352 1.02188752255624 0.003236247549110556
Ni 4.791912977423301 1.1003230175494991 8.035083524851041 -0.17359959989844295 -0.8385796942310978 -1.0558800774516008
Ni 8.088544345152968 5.295001892776582 0.7468649736752883 -0.5276847281818847 -1.6067044769747425 -0.5782411009731977
Ni 3.677779064550846 2.0351904086602395 3.238021266070608 0.6680389357636367 -0.5798665523917627 -0.4977748279963298
Ni 1.4316469465820858 3.0936955758294737 3.1147264697498818 0.36578030523318295 -1.3148724410942516 2.375648156075257
Ni 6.28803828058952 2.216648699334429 4.105046531404347 -0.19416688252683334 -0.3218470941853425 0.13299725299604837
Ni 8.56657006202176 2.202131669257245 11.713000148120244 -0.07357648783557007 1.5139236482965797 0.16779790561500132
Ni 0.8457137516278845 3.7559307577395784 13.394141010417341 0.0710894597476582 -1.1291359487229586 -0.13439644733642014
Ni 0.5371915557500109 5.863211105399656 6.447305598818497 -1.5909585269943955 0.3606406700137724 0.107775245204466
P 1.129907312577292 2.1475208580698593 5.160934414692325 0.860934150666898 -0.30309552460945216 -1.1839811786976124
Ni 3.0109219097039754 3.4686806420682976 9.582822693260725 -2.0870791072167543 1.5582345543988132 -0.6165351114573898
P 0.351135135650237 8.84486969041867 1.936644259888027 -0.6187534592649473 0.6269892169111783 0.05935365936796874
Ni 5.661880165213617 8.02287381300975 11.702436555608616 -0.14915792191631083 -0.44621109698642514 0.48514016995145476
P 1.143901619524723 7.786768028823281 7.3663152208771425 -0.056508990830322035 -1.509483353137039 0.6716289671077401
P 7.493813811630832 3.0184509568886684 0.4804669255905527 -0.010721243072246053 0.3476524852842206 0.32692810825267565
P 7.143305026678176 2.347329481772757 9.798341439658017 0.6269455081574364 -0.4835118903194124 -0.8792895132456341
Ni 8.767121502803782 3.7474021172014984 5.270069833603594 -0.9714753886522752 -0.30982667268569863 0.05122203139976984
Ni 9.045081819695413 7.804953291389961 4.540539092557423 -1.9665056818063553 -0.9451403503021724 -1.3785985184983032
Ni 5.05129369675563 7.585886447117205 7.045662180156502 -0.24409539192616025 1.0442118970850531 -0.025074426470124558
Ni 1.8256426276977273 7.2595604848515585 1.7069927307668267 -0.8751382100814218 0.35659375363790846 0.02002195164788165
Ni 7.700307789045837 0.0704108055777712 6.442756073473398 -1.6665394468545043 -0.17007718856748127 -1.0755564728346056
Ni 5.369182724295433 2.0249376988520957 1.484722602472617 0.028897142650324427 -0.7625411180082804 0.33175741132051895
Ni 5.179535104588442 1.0971224847024132 10.53526642034489 0.1129066528937604 -0.35805645422636395 -0.37710704309991183
Ni 7.810895828022947 4.360226207478079 7.62269074074245 0.6712322458899537 0.5519070910643591 -0.28211480859272703
Ni 1.9019418634792635 7.144359643518906 5.200180834097453 1.6564213845838958 -0.576768115972097 2.217489830432549
Ni 2.776824482805505 0.7111574815644027 1.343657053856523 -0.11616938280543218 -0.8886233890520503 1.0091608190181909
Ni 6.435152744580794 8.648784322692611 8.929583851531113 -0.1168440402749536 0.05100862983738313 -0.928597872562459
Ni 8.81563387747738 8.950789903552895 8.334409461877746 0.5300804821075709 -0.35053803436213177 1.3950741475558233
Ni 2.537188024847895 1.3753212367058603 9.680307805785352 -0.06772542837143174 -2.2753918449556556 0.43253797037470665
Ni 2.89203449471938 9.035113397905205 7.18111716717991 0.6265485298293338 -1.9900623860803726 1.090589198798012
Ni 5.727183874107887 6.35322277192788 0.44569208159012186 2.2084061229637255 -1.4219833132418414 -0.8600928857125253
Ni 7.73415640434267 1.2653567972519661 1.9367515556883448 -0.9705721601117154 0.26155652482540115 -0.33475094673120415
Ni 5.145475565923463 5.195959615560165 7.438096111289741 1.3124964846629072 0.028286248539202898 0.6063203757079171
Ni 6.907712795040236 2.265362826794948 7.237275055419742 -0.973340466885472 -0.6577295834178285 0.30166779102399016
Ni 7.8644245106259305 7.395431816262524 13.091030374519598 0.9873223829868609 -0.8944523370290014 -1.9180115908607096
Ni 1.6980156488069054 7.8069249663530655 9.723687406148018 0.9937681386122047 1.0192446856167543 -1.4970374140642022
Ni 8.803547051424488 4.120002832322149 9.880752867825178 -1.11458684726419 -1.0313615234849465 -1.8212476091650827
Ni 7.367479884692558 0.2886036934599053 10.927204223033923 -0.018802734528799877 0.7498558092311279 -0.09883629084362332
Ni 1.4468425996698269 3.2681658836111716 11.1331929014235 -0.5070318278182235 -0.13066269132560077 0.01591281457551453
Ni 8.645501254614512 0.47458950008425627 13.152060592563602 0.21258600846396936 -1.131056305674123 0.9375026312512563
Ni 4.831676617609448 6.878458640936498 9.331656063530504 -0.44199628757412907 -0.6030355343090582 1.1350607988478258
P 4.994234340381505 8.645180284271682 2.8348091508251057 -0.2834119301375958 0.2806371956059361 -1.698876468424313
Ni 6.329149996215557 1.3804384210287086 12.851419594189414 3.074416145491634 0.037656634010509345 0.24545113462310628
P 3.805396872860445 8.67093127634795 9.28798025339431 -0.010181568518692142 0.9174081744942264 -0.32358156037794594
Ni 6.502694075293656 5.29899109560891 9.413530095637954 0.832915553966785 -1.8698944236385087 -0.10036969676901424
P 3.0420193506336854 4.1919460420224075 12.393310545622345 -2.013380749091339 2.780485832321218 0.9870349336534292
P 0.5930862483087204 7.017869816699829 11.420223840203535 -1.1683514425801556 1.2123340188086928 1.1162187264406584
P 6.346344836010074 5.768781630538782 11.488354839289084 -0.5689049111739364 0.13637413988808125 1.9432004314215112
Ni 4.230251559793979 8.092350136360823 4.778083740937898 0.9928019180441934 0.02532742302119509 0.44131134569196256
Ni 3.1240226879363897 6.426459033580686 3.343277529124233 0.7975847398759748 -1.2028579609974575 1.020573688840823
Ni 3.0384244827939786 0.842012505045982 5.106574877430471 0.3342362118783147 2.220159663955228 0.9163167412022606
Ni 3.8993219657540132 5.805693219964344 5.648907461014511 -0.0832806024972114 0.21685661081486524 -0.5742828876563981
Ni 3.3199154734567498 8.930853059972478 11.403084023896362 -1.259886057556043 -0.35167394773878785 -0.5415792267757898
Ni 6.863941610859314 6.939094523987882 5.601004012934171 0.5578543097867296 -0.8551867066601595 0.42401836293946976
Ni 5.0063945310841875 4.073242038662286 13.123606113142575 -0.15763356348748983 0.5183950753498426 2.1723260894117167
Ni 1.57015940538549 5.541507116070775 10.30377618968833 1.2782334497149794 -1.2699439560126773 -0.15379002137168354
Ni 1.8549059523826892 1.565665820585856 12.670731632338018 -1.0950652322914947 -1.5685907008221567 0.006776142381568974
Ni -0.12019513986710118 6.327407585783046 8.77337767331462 0.201252328618705 0.1462042386046256 -0.8019774696270318
Ni 1.2535084063108912 4.322626824460736 7.893735522333255 0.010674448994710648 -1.1014433679036966 1.528903923755496
Ni 0.6691039472466876 5.4052964731545305 4.156788784784947 0.11600868885785183 0.7790177755070649 -1.4482126792520156
Ni 5.746313706540613 4.229499572133632 2.086340242493785 0.10245254743997195 0.9325622565268455 0.5466157607584328
Ni 0.40649610038172473 0.17681981069122052 10.882012515821444 1.759460143544641 -1.126917343805085 1.3455115061363474
Ni 2.750715838061511 6.358257421019714 8.002602243214668 0.2998605626119223 -0.2599840381319587 -0.4863336760389237
Ni 3.6855557174285796 2.390477066430465 11.78605574932294 1.4517196639640093 -0.8441332770594754 -1.2514435832156448
Ni 7.587729733943177 7.144827343161317 10.371772381229889 1.023766484746508 0.5109949262310296 1.1397821155828949
Ni 2.2966345087679096 2.0555124166520526 7.258576481486251 1.3841443880171966 1.2954073903911043 0.19007214363216943
Ni 0.6766485844194604 1.9479506694787787 1.177106460019649 -0.1511978351644751 -1.0052470857860816 1.654452690893299
Ni 2.2050387435051713 8.603114828198375 3.624643799882361 -1.1305320577395368 1.5185894292033653 -2.389707462381801
Ni 6.739863646902081 8.868107943239634 4.159795818368211 -0.6530126375581334 0.22803679580140082 -0.3869973056304303
Ni 4.169826600110741 3.4917354832647853 4.992071917328946 0.7399118106445386 0.04322281524437717 -0.029864134549284053
Ni 4.22728946205871 7.895090934238125 0.6541100469458689 -0.8061714531037213 2.005644813899662 3.004293934753252
Ni 6.458913720531511 4.173375615044329 5.668771857003259 -0.6178263194649877 0.24669297745000743 -0.6690100414276543
Ni 5.062564341079608 3.0718971042606387 9.124271622678672 3.3089850859845975 -0.03469446605839186 -1.7157989552112642
P 3.507701465175321 4.00591163131757 7.634917876688065 -1.4987505401005672 -0.3237679653571392 -1.5033695269298173
Ni 2.0365109723564583 4.093628240722666 5.652544513527848 0.1254127557805711 -0.09918107577755178 -0.04442172064848479
P 3.468047871963859 4.259597419709954 2.8957852624398908 0.7456497415695804 0.34233647238794596 1.5483800302022366
Ni 1.5181805510093185 5.858910102805721 13.055757567958718 0.4869574256658517 0.7634314910330335 -0.16825299087454895
P 5.5762911306524305 0.7285999270519606 5.888947424545966 0.05357819033677224 0.21519002174571972 -0.12212919993329291
P 7.079752898797642 6.682905166921416 7.809378096830417 -0.25170868549704395 0.48736134597248976 -0.011169386353258181
P 7.3998153540874725 5.320596984972046 4.099530426798267 0.9701137324180584 -0.5866264968234155 -0.6649281580487968
Ni 5.669693500416246 6.521869760632502 3.525347497566046 -0.14574683935223287 -0.2533428786663572 -0.879615272016169
