# total energy = -340890.4188062043 ev
CRYSTAL
PRIMVEC
9.07587760929120 0.00000000000000 0.00000000000000

0.00000000000000 9.07587760929120 0.00000000000000

0.00000000000000 0.00000000000000 13.28346428496329

PRIMCOORD
 96 1
Ni 6.586146519750631 1.951976213134136 11.38079377051062 0.017200165928370377 0.43393305095002044 1.1360041365977016
Ni 4.505764790984957 0.3874818859320489 6.183864600291558 -0.6230500297577722 -1.5897187410500235 -0.7457209611271479
Ni 2.728154337414936 1.458992696165386 4.801281717251837 0.06410994310603152 -0.3311953681694619 0.09809144225779881
Ni 3.385647210924346 4.4418161577406945 4.67714730959713 0.26867359548615666 -0.12329648076851667 0.5392356662442778
Ni 5.388974739258033 4.477584191180325 2.83150317029587 -1.1839528965628385 0.200346528974984 0.6997912884745691
Ni 7.287566640620562 5.878981368389128 2.403855080661606 -0.08941911129478149 1.9003082600436754 0.9237472293383769
Ni 5.1646190461274415 4.713538855824709 11.55096828982038 0.21940997336433826 -0.15567875375396414 -0.25904455703682483
Ni 5.420622324288226 7.626959081745905 12.363039694651054 0.8314844779472133 0.8152099091569056 0.2991794773844976
Ni 1.8645755122907866 6.151811323534708 0.6163138018721884 0.9532375254880098 2.2383625601165 -0.8226015736352865
Ni 2.9712698694492876 1.6304904784224925 0.3180087660207729 -1.4401044483225844 -0.2757076195148026 1.1530330670555304
Ni 0.7388081984529191 -0.00732695594920417 4.664846772748429 -0.5707789882681977 0.5176561403012893 0.10518717276231562
Ni 8.602125821394353 2.414573692052675 1.175116490449044 0.7124524288820052 -0.9371768724807213 0.5649772939847559
Ni 7.191153593366262 0.6697852420683128 4.757632191744464 -0.6424505457715709 0.7875821201373081 -0.28699270551031864
Ni 0.6179982847461786 7.489223563989033 2.7516027746630023 0.921420123867097 -0.41300247144494034 -1.4314449728753735
Ni 7.769159931259259 3.845186119107246 3.8376195599906207 0.3182076976605423 -0.2908007664024992 0.511855474459112
Ni 7.592262001857627 3.9673202033490895 12.615226566300453 0.8020273490283607 -0.4660813535477909 -0.23715521316290128
Ni 7.951113124458375 8.784432973818065 7.05268292952753 -0.5603251399247253 0.9604520409585782 0.11242637082323219
Ni 6.938680831573915 0.7360500392643111 0.2309937899734609 -0.48603517096189836 -0.8108511179675777 0.48353014515185755
Ni 1.7745518828343811 6.474132038981304 9.313900610965444 0.4636812287467305 -0.17599895336855495 -0.8358854352283862
Ni 0.07045331468708932 4.883784166979386 1.4263912364042857 -0.8020072944237027 -1.259420173663218 -0.7553191463385444
Ni 6.386749489893062 1.6705877054552982 6.889442380668896 1.6279453886313897 0.3464831475664678 -0.0042999129269345295
Ni 3.4933415739780522 4.379564713598999 0.32452706127993114 -0.11562713714871699 -1.4797341468990644 1.7643020450179743
Ni 6.471391123960048 5.893847655822296 4.847547818257978 -0.7926675050800155 -1.2133190084297814 0.8161151945799945
Ni 5.278330715999334 2.8680952934173876 9.639623872906968 -1.6392939808749898 0.598330415523905 -0.493096448684054
P 0.33427364618498545 5.610535062102047 12.56437714712963 -1.7632134399394859 -0.4718570796893034 -0.6938373848839792
P 3.8745375071163206 6.208943972736046 12.689294803017233 1.732477701418526 2.1188689980338413 1.0087332445624693
P 2.1421612272745714 8.304201064812442 1.4265909057104698 1.3906053131511922 -0.0697440014633573 -0.35423605203900926
P 6.323045905342753 8.048932932733516 5.842598898039104 -0.27777530067710865 -1.3526833412944381 -0.30752167870160585
P 4.838196034026515 0.9998894301050704 12.696707072215442 0.4906886105735098 -0.350402537225532 -1.3572804737468174
P 3.9252625867646573 6.191418453179607 8.208397008942004 -1.1623610293246758 0.6206959277032988 0.09314026890011057
P 4.67787065703817 1.1485341526816415 3.7688770482224276 0.4441246467710416 -0.3259755145314192 0.06456888502032106
P 0.0811437908577416 5.621879909044329 3.716726148210385 -0.8494089236361176 -0.04999355830930745 0.5583893563545932
Ni 1.7218664136344182 1.1315713375335397 2.4377017508230914 -0.9506216851317177 -0.06403460978340585 0.18155125064535185
Ni 1.8808667124999054 6.695211340314965 4.694694611259698 -0.6019754684756601 -0.9647090164627192 0.7842222025261397
Ni 5.854367588463151 5.467063589731157 9.216373045947535 0.15109370548644302 1.2355173989036916 0.3357261661602799
Ni 8.673879709334905 2.3461052717866075 10.04662978663281 0.2681550039785253 0.3467590269356738 1.208161632598558
Ni 2.253594851880454 5.513123668316826 6.904519228461312 0.164236156405672 -1.0020514616669194 0.513732893987483
Ni 0.2520280437922093 0.20803817287656742 9.181317468895879 0.33053767998080497 -0.9918827486640336 0.1713195456150146
Ni 1.6651875583107714 1.3359691759232672 11.505977349610552 -1.312859781539597 -0.0954231513970163 -0.030210976365741517
Ni 4.135895553033864 6.790744027446543 1.5574460006937856 0.04738106038712485 0.6389579592372802 -0.18890769101042307
Ni 5.383166177623584 7.809375144700265 7.873800261516102 1.0530647194899927 0.030711313040927755 0.6775869844633879
Ni 4.77675234298711 2.6412800374697083 5.528710580427768 0.10545482460140547 0.9107022232289607 -1.6841198789404288
Ni 0.6728510735059954 7.518584027875662 7.190710690541636 1.3649487889253524 -0.8778581801157461 -0.1686581967327676
Ni 5.154181786940541 4.800984936055826 7.0370742353104605 -0.7832788647762639 -0.2989251952818465 -0.07900768615347037
Ni 8.38913312696115 6.972234350890412 9.453894207057706 -0.5233858436962148 0.8038610598029898 -0.22842426104780658
Ni 4.9040959809448506 0.3862457514092178 10.538303654470543 -1.5455389612090158 -0.200408492561171 0.3639967309701989
Ni 8.026796867379733 7.5533900182945874 4.3843930804576345 0.28466097205334845 -0.9487946592253079 1.0042795796664896
Ni 7.385005262038443 6.316892460361259 7.243513238562043 -0.22524817731267013 -0.4774052632010423 -0.5711230018711777
Ni 1.926935866963129 5.227006628432444 2.763438626580948 2.299657659481556 -0.05348100263727564 -0.31475650588714826
Ni 2.688628890668021 5.22491010071751 11.477749555242639 -2.960380778310069 -0.8102415094080369 -1.5148551589719137
Ni 1.4285068234620828 3.226220345813829 3.860985406752947 -1.5032725963406368 -0.41695091456972716 -0.6211060186575239
Ni 3.6920488371415305 2.747594867135233 2.6039046661152954 -0.3756325154369144 0.18723390285242592 0.2438207981085349
Ni 1.1681380481979067 3.379067199697822 8.391217856035265 -0.4769730607596302 -0.4986160929507026 -1.5278271457515493
Ni 3.3959301801928317 2.8990712635085973 7.438620101099918 0.38270150646855383 0.2286680016274965 0.09632972237168572
Ni 4.199717123992372 6.780479209933165 5.760029286817656 0.3604750909701856 0.9752880775301462 0.832979831545817
Ni 1.0134397152929333 7.344263647699316 11.458847225061284 -1.4250231285094297 -0.4805960022241982 1.4127263134199477
P 0.16511017963472324 5.411128956366924 8.020675187969678 0.358002461059977 1.1810182394145465 -0.9629547527757738
P 8.539012168885042 1.7151502642445866 7.846329395336181 0.021065048200415333 -0.3228454535428698 -0.10867770241407734
P 1.7613827845037788 3.4278772691823014 10.583015965239468 0.5951147368000848 -2.0253183810691895 -0.40149318525376015
P 3.9297188426435863 6.257391007118372 3.702419842422288 0.2495499872828283 -0.7672261821887755 -0.9484421609818956
P 6.986283809343735 4.05951296754086 10.416440938967558 0.42835144309718487 -0.3051336380854035 0.9358093027092336
P 6.271812576551403 7.780541081711758 9.999579529806018 0.4320705438199849 -0.6338676891985664 0.5070441691133977
P 2.3783700164904613 8.358166232747495 5.896104826569933 0.7708334399240595 0.9568221575154747 0.9409479094873795
P 6.975211238728067 3.7983273632968393 1.555613581015668 0.10794185268931732 0.4323952741492553 -0.3348437635553265
Ni 5.1911024568295066 2.702315314019192 0.6690401125211436 1.02215517439533 0.9786215127787532 -0.16580170112057896
Ni 1.577768705712314 1.0252565078680156 7.058712942574293 -0.5885879914251605 0.7672863460027496 -0.006362708993234204
Ni 6.739501622777639 0.8777099664754574 9.24922318475361 0.9911476702702222 -0.7996799318421067 -1.211697156555642
Ni 2.7696946289788005 1.5509948669285256 9.460868111370068 0.4552804062775449 0.39494407128133274 -0.5734359662750705
Ni 6.5232779159352745 1.955706398808759 2.6877231180881496 -0.2390406031110722 -0.2561952605134878 0.08003561319735249
Ni 4.002952098625412 7.029702807561242 10.344949343888311 0.28360759108816963 0.33321008460664553 -0.3294048519279424
Ni 8.243147636507851 7.366617534114391 0.28121062047878315 -0.49067369817517437 -1.1755798420077948 0.46775719858831705
Ni 7.249447954894491 3.438414363022294 8.328891082109871 0.505275250138433 1.127937043318851 -1.2101082148019675
Ni 3.1083700757773913 8.621502819971772 12.314249592097191 -0.18061691175654054 -0.7707287960253952 0.21592869968395714
Ni 0.08293536908686697 4.734812712810878 10.017883759656575 -0.9067270406312964 0.5969985840863589 2.126819877449802
Ni 8.92454637149404 2.447845859165003 5.728534176530368 -0.5121655495003632 -0.7131414845292299 0.20099984628826675
Ni 3.772697085084833 2.8025402298460986 11.759305966656223 -0.014455256193381555 -0.2758516012918346 -1.4309492641858776
Ni 1.0664065366970652 3.413764279586101 12.732771886851083 -0.12043972804601193 0.6425292215283064 -0.8088096620575168
Ni 3.0826944181776166 8.526759734187376 8.18022276225166 0.08467285485904773 -0.6465892505302928 -0.20859205681322787
Ni 5.637027548681666 7.76958649750429 3.4598243581717707 0.1784168187814282 0.5706686879425784 -0.05169485727113032
Ni 3.199401127642272 8.356414588379605 3.536044485456561 -0.03206988395135122 0.7698355947871645 -0.3162708856491456
Ni 3.230422477121251 4.382850181273484 9.272083505136187 1.2576396847240277 0.06295706044851093 0.1017236396937474
Ni 7.342194347617044 6.1814803672581675 11.545415667932948 0.30653077554324626 -0.6261160702776055 -0.576548286651807
Ni 0.6405318735368192 9.118080384451838 0.08608651377355553 0.5032718465551591 0.23059272945403514 0.33886959688526797
Ni 4.780909094906762 0.36127256673210867 1.578181658141013 -0.3909490911893267 -0.5651045635912397 0.5314989597216524
Ni 6.015328276880264 5.40222552048662 0.42803925995683356 -0.8171567484706314 1.1474324330393013 -0.12653992740647882
Ni 7.765139317502914 8.634535780139066 11.394475655923014 0.36815729010579173 0.3988827442141066 -0.3510026327033761
Ni 9.169631368957571 4.9085885403339935 5.843541881716947 -0.43220501251532023 0.080036641638617 -0.3261338944861545
Ni 7.9452047281708325 -0.1831748063178596 2.3790688590621056 -0.7475423306066029 0.8202436149260711 -0.6053549264708542
P 8.771091433813941 1.6222677333587254 3.434134179167909 -0.2882862275107616 0.3763871342147518 0.5212376870049603
P 1.753305253480873 3.203957218174293 1.4733489192800289 0.7630658801634987 0.25738799527000833 0.9891278116267158
P 4.689850815409221 1.333518688983734 8.174829875809177 -0.48520419042017077 -1.194821463846226 1.0483593435945235
P 8.578301642815557 1.5324346973309504 12.282648294042524 0.18445582588665654 0.7738305748791705 -0.32277551953688277
P 6.267410775937797 7.73168563283951 1.212622554440232 0.6572189623299972 -0.4784380753409309 0.6508372271733694
P 1.9193121298179145 3.223670024221204 5.98806615588408 -0.22138406637157357 0.5843019624552969 -0.03779495936058652
P 6.575999688645453 3.7810378165567995 5.942596916927164 1.950879545233324 -0.09210411432611235 -1.0635231958191553
P 2.083639968807498 8.510205333529196 10.162514221591088 1.6053471916158997 1.5925101877522314 -0.4230914802498262
