# total energy = -340862.18128513487 ev
CRYSTAL
PRIMVEC
9.27391033145256 0.00000000000000 0.00000000000000

0.00000000000000 9.27391033145256 0.00000000000000

0.00000000000000 0.00000000000000 13.57330519130302

PRIMCOORD
 96 1
Ni 0.7731380951657553 5.354524064633823 3.1821392833116793 -2.2910964001751055 -2.2477419444488707 3.0628914326814862
Ni 4.6406648052699975 8.6545523706036 8.491351021329697 -3.093853942501272 -0.5804046842834197 -0.07559300404496659
Ni 4.198957722915472 0.6770112308450816 1.8804318780423968 0.7189352083928715 -0.23160934364400756 1.1937817097278023
Ni 3.610222063776873 8.500939317377195 10.571351888601765 -1.2697356966566133 0.8555921696286942 0.015421733871708924
Ni 2.1077836482945056 2.62878266527145 12.373968238570502 0.6357443373959889 -0.024571261581460908 1.2542077762243433
Ni 3.4624515741542266 8.078707447035194 0.4228504401711616 -0.2707803574165143 -1.3656679264795641 0.28607739278490085
Ni 7.180594134211929 3.9052622518561284 0.7083449921911362 0.10531572792037991 -2.36378071521371 -1.3715845490743153
Ni 4.360156834916277 2.874392910480824 5.550898191702392 0.20433559552971908 1.4666721715087836 -0.210635826716134
Ni 3.5521952058900332 6.822417163570166 12.009402470997584 0.4776939980860548 -1.914746804066509 2.0402302651840154
Ni 3.6207572260845997 6.112360207504024 9.806400801609655 -0.5452397063465125 0.6400383367856526 -0.7229199040722324
Ni 8.353103910381176 8.40039157992968 10.02335651821127 0.5297043297150748 0.4751918004894912 -1.0359925944990547
Ni 0.7728162904720245 6.204635616801459 8.8946140351715 -1.5439333072847925 0.799634937536784 0.3172507330639117
Ni 6.334878415612834 5.11813208644371 12.376153171880096 -0.7969249948047887 1.5848580705236126 -0.3890194782667817
Ni 1.4375859594806626 7.448304108100276 6.784223490640462 -2.507976922249371 -2.555838007596708 -0.6011683991933324
Ni 6.71192779408578 6.909118952667826 5.086840985085875 -0.5384627926339952 -0.6860258592593604 -0.07195257907890189
Ni 1.9926944192109708 4.922137262313862 13.260780364080215 1.9191151083375335 0.45114555817356494 -0.2628765291884054
Ni 8.451138418088028 4.0736486444806035 10.53569463018893 0.36485187988164264 -0.632459238886814 -1.7242026058939275
Ni 8.25540326345168 6.358183752654487 10.79236586843037 -0.39374233766374767 -1.2798383323082538 -0.011373789054580412
Ni 4.549956686844047 5.161431974484889 0.8092970721356747 -0.46911422683684373 0.6878099477429767 -0.27702582410559384
Ni 2.0706509107239595 0.7612721267038388 0.9206646809427207 0.610839089513877 -0.527301376700537 -0.9300423183184693
Ni 6.802941951557642 5.540846200130785 2.020970572271059 -0.5887844237066828 1.6464588740545452 2.081416766724654
Ni 7.007264747300464 2.6376856193343183 8.780069184633268 0.4749974250904981 1.7568085648544065 2.5035050025209467
Ni 8.707107621305967 2.689230013794132 12.356702999425876 0.3370744526580582 1.1876457720333935 1.6286946080925886
Ni 8.098822558870987 8.105388487492352 3.6015268453088045 -0.3194778226222175 -1.161815698344167 -0.233555668737101
P 0.11684107077361347 9.129868104545453 7.534569096014226 -0.7324404419681579 0.42968147476251806 -0.5122059158199953
P 8.14497881134067 7.124245854122359 1.335699996750571 0.8303107693540862 0.1745568216053897 -0.3070066867384003
P 5.105834881144374 2.7765995244465076 9.44009803060343 -3.0500112342847086 -1.5390330417696978 0.1458118882622134
P 7.724379149243526 1.0872083475543919 9.97040712631341 0.31403891099483333 0.9007127161164165 0.865551080613619
P 2.9833891803775834 0.3795255125716815 12.595593369099879 0.24659707530209146 0.6010804674652164 -1.6235297760621972
P 8.427582685463356 5.009302746935631 12.540498921707497 1.5264963427552678 -0.65840424088735 0.3703589257428008
P 9.25715252591302 6.474812450878059 4.790155605287084 -0.3487554885404123 0.9406386057770768 1.3091275681906742
P 1.14191514548862 2.3194328333182304 10.449192230166636 -0.1985308159224839 1.1481091473913516 0.23328056069884343
Ni 3.3851535302854705 2.558616258563471 3.4508907173471726 0.9072137504597279 0.010594230576078528 0.36524191623120966
Ni 6.879414617393486 1.7324684910817219 6.878245177281686 0.5802661018230265 2.328398993280306 -3.801380394836569
Ni 5.608007859842546 0.3974000476349856 10.332339103309394 1.6328826780320072 0.8086278850640138 0.5331902313811463
Ni 4.521708355515405 1.4113964362790588 7.233716948235805 0.16874792823309645 -0.26599502021272897 1.0129645090349972
Ni 0.715356995906693 8.4250138122598 2.272238830265595 -0.3515384506021881 -1.3464185913316489 -0.926558730645243
Ni 1.4109976581283261 0.22620458752546593 9.747656143051497 0.11776963741301653 -0.137047511806022 -0.6986525468844356
Ni 4.679077342487082 2.6487679423604926 0.34272478099639686 -0.8521512622679454 1.2643672332558482 0.11965939823656167
Ni 5.987384989846513 2.834737669259132 11.673531109847499 0.128215772447005 -0.373412367857144 -0.3110016668304063
Ni 1.3693948957053819 5.673787706892466 11.148801198683584 -0.4699362085175068 1.0219476863702144 0.15366095199298696
Ni 7.702678198715285 0.010160496324248222 1.465943722952994 0.4028540701570288 0.7789696958779487 -1.3408135864400454
Ni 6.311396874272019 4.040948836120528 4.118154140884462 -0.945828120397816 -0.376959461778454 -0.1835430842644
Ni 0.1840324069989176 4.809060471804955 0.9936132607953464 -1.0295782063322783 0.24000245280370922 -0.25383627336300796
Ni 5.421518793956905 6.103420157799228 7.844054327060485 -1.8634455826893714 1.0798170478831726 0.5083916842802276
Ni 0.6493202615364172 0.7046066788757798 12.37896316675619 1.3493671324370116 0.24472711197288818 0.9372051546154956
Ni 5.944595166881853 7.202053963067633 9.864847767641336 0.9449686006109983 -0.03661585145082081 0.875262651474428
Ni 5.113040709589009 0.34403982150276635 13.264513113049281 0.9419290424537262 -0.14036294933250018 -0.8793375928747501
Ni 6.259481523392919 1.834425862922526 2.251187053471105 0.002609155488072926 0.9563395614521013 0.20713295576919807
Ni 0.3658910093808182 2.5397345768218047 3.5324529052556235 2.114314803004256 1.6302133587299603 -0.825951721054442
Ni 5.804058327435287 7.362084562347688 0.8080608598684036 0.6331614071601612 0.5409544487075975 -0.6455479537499721
Ni 2.2914812671250173 2.557957810919238 7.567755784674616 0.47425257650467356 0.40330915541657636 -0.30935358970402205
Ni 8.068988388849897 7.731900290644553 12.63427670450304 -0.8037808413843577 -0.5944781316573503 1.1891544953684359
Ni 4.021158311151611 9.240746978270089 4.536361134077209 0.9521116394136828 2.2400139796769936 -0.03916895688997771
Ni 7.49774332488064 9.115456447656184 5.74177938159238 -0.6405854675383741 0.2636797418159911 -0.12268404399549838
Ni 2.3515669331388946 0.12953705422368267 7.322174288587736 0.4578029155890826 2.124160071229451 -0.16421867290417522
P 8.128295046383274 3.8819847365459217 2.8091722802329775 -0.33035975964204395 0.12834587026696606 -0.23272905907074753
P 3.639286499227944 5.525182565326427 5.886674958965558 -0.12248941148618905 -1.9809563100140462 0.14067919502133838
P 4.683723571638641 4.139864365323185 2.662214185168568 4.110721386135101 -2.908174014399527 -2.786992008870852
P 0.32578969306493494 1.7771038222323303 0.9916416274268403 -1.0949166225287723 1.0827679029813804 0.13170810187097964
P 2.452485627005698 1.5681162495169838 5.3647810096270865 -0.1645742564713811 -0.00047308298167660464 0.42900553174141604
P 0.8187768634305328 8.161950067523012 11.394545915594948 -0.3406696262084843 -2.815935174267763 -0.9420144030786809
P 3.0725485557530146 8.145572341611526 2.550057366579491 -0.13354824040351196 0.14076481275660918 -1.5208679408248968
P 6.692591690730488 1.8440058124505911 0.011097161282945802 0.31600246247910746 0.6344353887765783 1.1113421150746472
Ni 3.6145900756139673 7.573743021281894 6.180875858146179 2.1510751504527406 0.46666627951698336 1.2958591332165423
Ni 3.30891271221168 5.021024969785073 3.557128926266539 -3.843338741546226 1.4239746326402571 3.747972154418758
Ni 0.5041056616426527 5.03271937090307 6.585157147358924 0.3973195134920448 1.8286511007180057 1.466970933696125
Ni 2.2193116957528924 7.742379809489388 4.342317540712806 -1.9556245161174772 -1.8941890345198154 0.6054891380558733
Ni 6.807050293901236 0.06504999029497471 8.21255594224203 1.1558093442490869 -0.9052838804268668 1.1399271258011916
Ni 8.082157341734556 1.1905939016094476 3.6922516567736237 -2.144267383502288 -1.2207890915545814 1.1203808282381478
Ni 0.08911949756035792 2.140251608892527 8.449653665019834 -0.00034684181645746714 -0.9394193886579951 1.4228986259672591
Ni 5.405474928822779 4.719975287713381 10.019230555437758 1.20169556525824 0.7730654145783719 0.686938600881617
Ni 4.473270721067114 7.002822544179512 3.9332861545511024 1.602240527666118 -0.24055395443180505 -0.6673113135689926
Ni 2.2810481178325936 3.124176415407167 1.5413842025521742 -0.9627315810213743 0.6402298839711683 -0.8385904928643753
Ni 0.5064770005529395 9.055917942360754 5.118344458993752 0.07582234644695329 -0.615599744127314 -0.4865306225410782
Ni 0.2632547872927205 1.8180388631005593 6.088360254567257 -0.3505778864611317 0.646673325603667 0.20857842996647305
Ni 6.642957721829998 4.921358253833361 6.5187559483066995 1.1104699968823393 -1.586032550447688 -0.5058223808911547
Ni 7.943976075550457 7.272804626135988 7.2058367911533034 0.8817559725082557 -0.7123089613256055 0.7222961544453044
Ni 1.7152932088687722 3.679071575196386 5.228600125933989 1.2817167802778895 0.01350137692054449 -0.6751079267952761
Ni 8.417826531636129 4.0915565656216435 5.103644383488489 0.2560944732695654 -0.5059254821279222 -1.143360834073089
Ni 1.089971972878074 7.545680168162895 13.429265060155801 0.302249374559073 -0.8306961777179629 0.5718249130342087
Ni 2.4948210283567316 5.100752778200154 7.981470495629806 -0.8712730706990608 0.7194787396011674 -1.1529505346440532
Ni 2.1652633454628973 6.111822320696059 1.9391227479197586 2.431423096953032 2.2628644019126063 -3.5589400220153284
Ni 4.318887933270691 4.021575637123307 7.811111542245778 1.472741003410683 -1.70490493400658 -0.5387795525434657
Ni 2.7721573213255555 3.8593285732380185 10.358006505350854 0.4226513073886141 0.4426953705236827 -0.3476167469502787
Ni 2.0171960907048225 0.7636916899486329 3.217348611848226 -0.19108875782214188 0.22034971156978825 1.5396660473680066
Ni 7.64587549701209 0.6553789072544085 12.110835866896144 -1.936145581457259 -0.5603516222872866 -0.8888159646788306
Ni 3.797017168708424 1.750339316580833 10.790954379254986 -1.1443077713673906 -0.5215796437254114 0.4218807477711767
P 8.289633267041312 3.6746479198963984 7.4299464023008515 0.5498466089909047 0.5890844714456048 -1.7749595247318206
P 5.880846306227525 1.3730395425248687 4.990578721672161 0.15286416712330447 0.013677240376776447 -0.5198567474970337
P 5.724794214544315 8.026133648511863 6.906694752467791 1.3345102699298372 -0.594757353460666 -2.8939373019748547
P 6.034848863694179 8.564511973732364 2.7056077397056164 -0.728853753058164 -0.020319685393958554 0.4329172080909964
P 4.203474117320281 4.594842413577673 12.307757154683161 -1.228629670644923 -0.8685921814327879 -0.8927914043868108
P 7.398364100153875 5.7439726614214095 8.760347286601919 0.5307042317344989 -0.43193993177939155 1.0326720147662538
P 5.681679804712779 8.02004996323557 11.821344259458362 0.19796363056510424 -0.7532278110271544 0.9860386311784307
P 2.534708117340477 7.620084751961219 8.644567151187465 0.4192543658919231 -0.05744384393976558 0.8061920219290116
