# total energy = -340896.1837278117 ev
CRYSTAL
PRIMVEC
9.03846190017860 0.00000000000000 0.00000000000000

0.00000000000000 9.03846190017860 0.00000000000000

0.00000000000000 0.00000000000000 13.22870261264941

PRIMCOORD
 96 1
Ni 6.457077309458997 1.9352251158010438 11.445804031054038 -0.5211597825791734 0.10858488558995494 0.5156334534443054
Ni 4.69647528103022 0.3901406964223724 6.158860483921829 -0.3975843371176572 -0.13628723660122982 -0.5350571093865559
Ni 2.7743468967820966 1.6330602900276345 4.7053700315624685 0.19773145994964011 -0.03431908499684412 0.12813349714584385
Ni 3.6348627175048747 4.515950077920163 5.20479386913957 0.13951345684801134 0.14197117435988452 -0.3824066009359543
Ni 5.027825300857722 4.3369342979773515 3.083173972954165 0.9164416968158992 0.12207057878121558 -1.180706878821715
Ni 7.306511975672541 6.084837287184698 2.5922571358861113 0.10310972140799662 -1.046296547528224 0.28390198240013687
Ni 5.064747418451702 4.615779891586141 11.596770751626128 0.46534961758808885 -0.4937729059257883 -0.2692778047290588
Ni 5.425653209278546 7.915993550604567 12.45360701443642 0.1766522706818377 -0.17340239628597232 0.12785196134968305
Ni 1.8595912651213786 6.4549894247186765 0.46090552757991343 0.8372640607434677 -0.5992184745558131 -1.1358460137532826
Ni 2.7023465078583135 1.388651236941015 0.32242092313935083 0.5675273141001194 0.11748270230021701 0.7514110695333898
Ni 0.5897840545225854 0.3024630950220267 4.754991188377881 -0.3264635099114313 -1.1903675418399307 -0.15531262866379705
Ni 8.543280895832833 2.227601287142561 1.2528944403559883 0.21984808934302136 0.7728520130159852 0.7188647601662523
Ni 6.865706180064597 0.7521256796214865 4.830924212152371 -0.8847109413715216 -0.6090182342550543 -0.9579755543936275
Ni 0.9830683280561419 7.309476591234555 2.437269203534936 -0.2482988884845466 0.07329135249498345 1.7187454394340982
Ni 7.412985058966812 3.7841329187446777 3.7966240733382843 0.6617749571317958 0.180525894704631 -0.1305127960112978
Ni 7.6519981501920835 3.798305227285036 12.643994083521212 0.041636958814496035 0.3684172286353978 0.07485484032736141
Ni 8.084705483776965 8.986590345436746 6.715617094160408 0.12021269963687037 0.45834104748073967 1.1065992010730232
Ni 7.061226191764229 0.5341595511940964 0.17674441442228142 -0.4695299742180236 -0.4164120113471216 0.4024398654377456
Ni 1.9364181927955126 6.4723613488351095 9.270317612414571 -0.2840019983131109 0.04605154294242391 -0.9888408765139163
Ni 0.22561628273131798 4.8167862497679135 1.463583702963326 0.01627096924588165 -1.0059826784005255 0.7159326741211218
Ni 6.481273272445309 1.8929883825044287 7.041122844407428 -0.25639220701564225 0.7595360126333693 -0.1362504698260234
Ni 3.341908084590282 4.245935061762859 0.4410769494703234 -0.3062721225652209 0.5657257421150063 -0.2976620122987067
Ni 5.928779200923333 5.674726108798089 4.86516009881638 0.6782937807224254 0.030614382451747274 0.9746820685150311
Ni 5.0712912649971225 2.936261906470854 9.702949022917988 0.2939287705085196 -0.6426469780530932 -0.8991687686680643
P 0.22124709016217958 5.404756284951182 12.449333629565322 0.5290458701954694 -0.22682606332275126 0.2481993867922048
P 3.8950348484578106 6.113480173514031 12.65956464214524 0.014706452972239189 0.5984751686318854 -0.3031333198259231
P 2.5035816882722095 8.50977531690483 1.3535476579173915 0.279559389160725 -0.5261762619571583 0.4060484087246104
P 6.354870380266161 7.790765658495728 6.037116918944565 -1.1063845139590558 1.0471506679984033 -1.2533788525651448
P 4.761714900318679 1.113610835867615 12.584438753034432 0.20113611475581492 -0.5511216190485864 0.3066359336625429
P 4.050351780828672 6.053663631473158 8.239180031482034 -0.34898714493524413 0.9148306435750374 -0.23895987047180783
P 4.752613169004814 0.9251046707415275 3.869779577715803 0.8768623918613802 0.1326198150519716 -0.3757644130290883
P 0.19039429985445525 5.507948406510663 3.692567874804021 -0.10803441240312361 0.3943660872906756 -0.5579167875935489
Ni 1.2894089233101926 0.9236223629605206 2.507301919264053 0.7498262415447732 1.0030598483267756 0.14078589580253173
Ni 1.9095739604199622 6.407718268043885 4.736523802657435 0.3145184217344132 -0.008082777008134468 -0.46788781062891033
Ni 6.219944218346222 5.615560336026927 9.28535851716075 -0.9274419045811446 1.4918517560982048 0.21142978337233906
Ni 8.433653389272884 2.356200525606982 10.166284992951026 1.2122753976566154 1.1311354956514907 -0.6505261236908539
Ni 2.225893017809571 5.2320764669259665 7.1289875419728155 0.45653124796551053 0.82709946150564 -0.7543560110943266
Ni 0.5124582037416734 9.243364014647861 8.936372650124099 0.9772387734986138 -0.09732859594984529 0.08760288402164913
Ni 1.3715143128386436 1.0654719868332103 11.353242948592241 0.7517707668656538 0.49252412112035177 -0.44548090368861987
Ni 4.120237169625896 6.815931369393837 1.5049898015948526 -0.35215885779500644 1.2582909451547812 0.8903431999566344
Ni 5.36850301355107 7.927933359011336 8.084020368351354 0.5122750784950338 -0.32911894525640734 0.7833084324626187
Ni 5.277548969646974 2.77180708893781 4.965552104823692 -0.20678739950432126 -0.1672266064925636 0.12001832423787717
Ni 0.7134763119241495 7.346272170359426 6.6459676092234545 -0.1867111975797365 -0.29752754360337147 0.8679260086036988
Ni 5.200577426579571 4.449689112416743 7.346692458846113 -0.5118683299749185 -0.44385468093910657 -0.34206033590842383
Ni 8.048623943156361 7.5068133338121275 8.963239478654849 -0.11986071561409037 -0.7688210374797211 0.3398157628486212
Ni 4.4613577669611315 0.32722667342691997 10.499886493682485 0.04166241273579276 -0.23313657892181142 -0.4372225203345696
Ni 7.988346439549442 7.2278502401963065 4.660763413508659 0.801768181829703 0.3250766568662337 0.17920486190036233
Ni 7.19008754562895 6.237695757869986 7.085398654749135 0.30825264333035945 -1.105265055642632 -0.27469923285494624
Ni 2.7051845849512164 5.008437799697601 2.630527792022325 -1.367031125375678 0.02322965995190193 0.45068301671484967
Ni 2.5144639966156985 5.0298318394393275 11.243404845865845 -1.386352194301793 0.47884662363325914 1.6631376202618067
Ni 1.0488231396831214 3.2634903875901897 3.6910195862498356 -0.7220210464070468 0.6196883123743909 -0.24322173107195533
Ni 3.851279653531871 2.416541298448455 2.524869978007608 -1.0891259839889242 0.03668604256712392 -0.17917966508938174
Ni 1.1613519925705296 3.396645010942583 8.081705618212842 -1.3783390941893294 -0.0433282304739899 0.7850632103701963
Ni 3.51770617203286 2.602010540315894 7.005220265335993 0.5812377217076764 0.7775095663926546 0.013338883200751222
Ni 3.9681921605277446 6.972179263358868 6.0045215131479495 0.6587307709888333 -0.08893137302508555 0.3657378820310217
Ni 0.8215519145450818 7.17988312194141 11.311387638395374 -0.38215437571583216 0.3694042751390154 0.40301964920061556
P 0.09574171726750604 5.659035338628408 8.037773269430149 0.9672706065423085 0.5721385876198856 -0.20465158410824108
P 8.485787238546344 1.8301168402807488 7.9784158812629045 -0.08133761983822765 -0.35215165870615484 -0.5182053279365397
P 1.660962022466464 3.2301023086692187 10.359397158352731 0.00725668156241331 -0.9065691748971936 0.024872080651331355
P 4.091268898661708 6.2305553728273315 3.734317434994561 -0.5835913095415175 -0.07541096994114754 0.6371949537995865
P 6.838021370715671 3.953938505828673 10.443836278790059 0.8800618726352845 0.038878679343068524 0.34595324320492676
P 6.368988458034042 7.8516668159861185 10.361460639245436 -0.40912704764993413 -0.15453024197181772 -0.14602297583175497
P 2.35177167918812 8.490035315723619 5.753401401967443 0.06515046855540392 0.705117842893805 0.29848785063411176
P 6.850096756053628 4.016611201886608 1.6164150582623773 0.07541816902999915 -0.06503811134725572 -0.16334449782933805
Ni 5.201969349739785 3.0041949874589466 0.5008067222752349 1.163707516050241 -0.6651544151269899 -0.6336375754656313
Ni 1.429505085539496 1.4182883540990725 6.781708136576738 -0.3537555128581649 -1.1826380344061567 0.38434418427829936
Ni 6.682496553716986 0.8513209932494968 9.259853784865355 0.07675977065955814 -0.7650751972840436 -0.2570804913319185
Ni 2.6381191963227373 1.5900552874542777 9.152873643848434 0.288183126273994 0.3183817613445613 0.5623563114221413
Ni 6.278703260323815 1.8983210751312214 2.412478509743805 1.784726117200281 0.6628540491285874 1.269770663659607
Ni 4.118565054141224 6.694707515986133 10.462329876050536 0.7499442551798762 1.0104126891474212 -0.4010573832679222
Ni 8.502300508765241 6.948164069614141 0.5849213619239167 -1.603370013284871 0.3796048698211011 -0.8809702433821668
Ni 7.5650210296028835 4.0121190862331915 8.070368675226764 1.1926113435687848 -1.0062333609587508 1.031490849973959
Ni 2.892027673054711 8.246466839610376 12.317893602469374 0.5089375294813686 0.07356491787134427 -0.07889738582785122
Ni 0.052242310818411256 4.977643759393393 10.100683835179394 -0.049614577703333905 -0.8449004942428029 0.33965584023198925
Ni 8.523459548492907 2.4022062975906695 5.575528083631456 0.43090943363234824 0.6205187786954861 0.9591559478549739
Ni 3.547415596887552 2.6968330459899343 11.677201314131283 -0.4010411853180061 -0.041209898579406455 -0.7830364097481547
Ni 1.25958199844847 3.1962351912580447 12.79791005426978 -1.0580464889753005 0.8844301769063092 -0.7421178171569219
Ni 2.994496717647847 8.570459551305317 7.903449069084693 -0.3486726990186189 -0.3376570646344056 0.1714668698261563
Ni 5.673063031775497 7.75262334852104 3.659694084375363 -0.15431478352690198 1.1922125654684692 -0.47700365688724955
Ni 3.1956476912228897 8.430697812172948 3.6693905464940464 -0.2114801769943003 -0.7611671204788891 -0.5821548342053071
Ni 3.2792353885323475 4.240448715280718 9.216794551519522 0.15453564128845645 -0.0863777533652964 -1.0131833099140228
Ni 7.372619287320614 6.095493633976203 11.464338301393871 -0.5804959584456454 0.42772666502899237 0.2703162732959022
Ni 0.5860981696866429 8.980841883554305 0.33164648138370245 -0.044596812773768355 0.20076150502521553 -0.994976557098009
Ni 4.877985676506921 0.36376646407494606 1.5145678598602974 -1.1506342278060506 -1.51843104924863 -0.4479789875201252
Ni 5.926863046962519 5.70811418771906 0.44667627672845583 0.7842697679346236 -0.66734602346167 -0.1942095628393107
Ni 8.228118761589375 8.949125920118005 11.058864757900158 -0.7042431535983356 -0.4012432740264832 0.4383008410004129
Ni -0.005824384963907303 4.902208754879472 5.851783254008316 -0.005011080061346209 -0.4100181920056358 -0.17918352174412366
Ni 8.078297214162735 8.773345909599588 2.3547489485970448 -0.5831117988019376 0.13171298696698608 0.768610978351444
P 8.394905502338881 1.6617212532811263 3.5220491530619684 -0.4049245795328123 -0.36872524679411983 -0.9202497577080797
P 1.9022437676736421 3.1147805709993035 1.6712351384658077 -0.2455778900089577 -0.7125470454783406 -0.02602496330885195
P 4.711714128095936 1.260404498497687 8.287623476688513 -0.08542335987182706 -0.7303015412482842 0.051991819686258836
P 8.559803204513813 1.749710681623208 12.297335620469983 -0.19891519584509615 -0.9849646813879617 1.0554995541837306
P 6.384417112803424 7.655161611919842 1.4223502389575142 -0.08430415866571933 0.6900936015708309 -0.8427729063768389
P 1.8490976106472998 3.4418915521116085 5.736216574016051 -0.5904970355224153 -0.37138968100016034 0.8200546388437168
P 6.863419449158531 3.963293314080759 6.0343656110876225 -0.04626880115955257 0.2531611016728543 -1.022793065089645
P 2.3369666783022107 8.408562618540719 10.14279041462207 0.03333229560354259 0.8146692061620873 -0.10851520869428408
