# total energy = -381165.53967603506 ev
CRYSTAL
PRIMVEC
9.32058203382272 0.00000000000000 0.00000000000000

0.00000000000000 9.32058203382272 0.00000000000000

0.00000000000000 0.00000000000000 13.64161394536729

PRIMCOORD
 96 1
Ni 8.950200515843681 4.0536794726326635 10.958239706620871 -2.8294182963558625 0.6269298244281525 2.4121447083393943
Ni 7.613079172082897 6.750785547297914 11.470455075351847 -0.48316684827516787 0.053645039018965675 0.6388024074960225
Ni 5.437655381078031 -0.08459639654797547 1.6363800596345235 0.9852922399307096 1.7929922138638152 -0.6821182966748381
Ni 1.5341491223299875 8.626561954168182 4.607073171734931 -0.2632681081998692 0.5311688300757432 -0.2434834693737742
Ni 1.5330120113509704 1.3190394150780538 6.1296955305587675 -0.5609108372248661 0.9176040925551164 -0.7470540781162747
Ni 4.485175806842476 5.189904996379229 6.045881130823411 0.6640516689811143 0.009847839328357233 1.1904084223801947
Ni 5.99334846770918 9.068515981152233 4.393390445555847 1.0855804327295109 0.44335125894012684 -0.35928955530251666
Ni 8.684694422824982 8.742444747628179 10.1182026991047 -1.4760914079401546 -0.6290748957956134 -1.223361480267448
Ni 6.875010261464635 2.5252531875249424 5.9545506139283875 1.2180642364242507 -0.5762996609761106 0.5066939848628306
Ni 1.4657267313712612 1.8202816628615144 3.413335930079127 -1.1561888390756927 -0.8284379778114055 2.8595115161968176
Ni 3.750713961378965 6.905460602189626 8.10637842006047 -0.2713120615502682 -1.0322742651072028 -0.24984000771942133
Ni 6.238461127759934 7.440452676653587 2.694723733958391 2.4156231538062976 -1.6703264247007619 -0.4410881739375629
Ni 3.4794291076472272 5.686263259301993 13.480710700479941 -1.7258920777812081 0.5407850130092686 -1.4436132328067912
Ni 7.14850409308184 5.769402848915375 1.138845539289202 -0.3316283419418224 0.8264677414589122 -2.236189206614265
Ni 0.8913402858916145 4.278995216950366 3.062146660675128 0.2613379810566918 -0.004491974333082587 -0.11836176247106066
Ni 4.373058528427748 2.191995785436772 8.024583790400138 1.4483330068799638 -1.4223792631286793 0.11316813408526316
Ni 8.5933620418136 3.8060129731700187 1.1643960501644446 2.769111271935689 0.17494043019705358 1.3646297150230369
Ni 1.539200877662998 5.970699453946789 1.5986605971674384 0.2760758014874987 0.3651498707380357 -1.5896202677989462
Ni 8.467636713977846 5.425091236818071 7.237830684890891 -0.04861724678707111 -0.45624971216934973 -1.5080882725617253
Ni 1.4636296004673361 4.942406267388898 7.179253624482458 0.6254344708295487 0.19598002447617216 -0.740752304267963
Ni 7.287185029612953 1.868329262015885 1.0215590662108438 0.6101814013252201 -1.0952272117906556 1.5112970093070102
Ni 6.477440844989432 1.7524464685558871 12.717899373428082 -1.3669568204943165 0.49908403372605664 -2.2870296863049
Ni 5.938590049662249 8.68899121103258 11.02047323126757 1.551288204987967 -0.8989188574407874 0.5126990534063299
Ni 6.504181594159923 4.749721879936269 10.540834227969075 0.016150384507617348 0.10691264009385457 1.386934292057508
P 3.3314555510662793 3.82179271814933 7.64381938290172 -1.666225000937879 2.6039117231754836 -0.08314150581618585
Ni 5.912986411470773 4.45452041331799 4.076741388168582 0.0711046292563098 0.3515811309146655 0.9438244597042262
P 5.363761808605508 0.9253417682805852 6.1574699322503506 -0.7102862744686219 -0.03434453891814085 0.8185351168753968
Ni 2.0772221412104055 2.750158826243655 1.5817316244527764 1.0477988431053633 0.10372781460796975 -1.1451449225567052
P 6.631444817991889 8.095074418459223 9.002128273199403 -0.6565193651598114 -1.9285973367963558 0.6134456738987887
P 9.333350992281678 2.4755838071382033 9.483103847927334 0.3583691003707764 -1.334343919555302 -1.5781690885392112
P 2.887404393178302 6.357885742302116 10.413038798916604 0.6844451450358019 0.7928760215463958 -0.6547427328753627
Ni 0.12906302817662163 5.890216230145046 4.9575941554242124 0.7030406486498021 0.1570964600370972 -0.7699191556399063
Ni 9.19614270767421 5.830732277127938 13.074204710179476 0.7071017060930532 -0.23425680856918366 0.28279460826857106
Ni 7.075272281916781 0.629829926288526 8.412974297923407 2.6135893554745633 1.7884285057525329 -2.94694547874077
Ni 1.2830060458577246 2.379647058719981 11.538267900261166 1.3523758373563484 -1.0014130567519721 -1.2549032596294711
Ni 3.4535365314201 0.8441175582261211 2.5188965507406014 -0.1068625035822095 1.0585419405544803 -0.867838591096215
Ni 7.937221045175341 2.7559935104474635 3.1583611624308485 -0.18213489106296374 -0.4558311365746924 0.1531539304495814
Ni 5.221380601101694 4.028485940040178 13.10974036033194 0.7501124053266243 -1.4836993021943996 0.0026608346616147725
Ni 6.150493476776626 3.763874622873819 1.801033729396201 0.5134922387315867 -0.7184366714898981 0.11551298016835591
Ni 8.48854277894453 5.884325622450466 9.3484475386154 -0.5164536353527557 0.5253095430814889 2.0212768640099643
Ni 4.098781767939744 7.7522634200309515 11.776231674074985 -1.040840152399343 -1.7196340126866385 0.18288385341384633
Ni 3.2363017315188554 7.010363750294852 5.365205566725589 0.23063155311177055 0.9656014463700016 0.452081439724273
Ni 7.750539112398835 0.20731770087112789 2.6743834283066774 0.3746169296882064 -0.1321215352593144 0.43860166007028334
Ni 3.6132819828084135 0.42768235213920786 4.877750323533621 0.29621473832921885 0.6010663263978294 0.6539649741690737
Ni 8.051901483583755 1.4744507959315891 10.779057113956801 -1.4422757449422905 1.1365574379980103 -1.2596785695309274
Ni 3.23313273370848 2.8813553355932027 12.95568605618779 -0.22618920106970078 -0.8438995637821144 0.3345694268480174
Ni 0.8794211258918843 7.370054322354274 10.856336853795527 -0.3082858105611401 -2.110298739866327 -0.44782215022728683
Ni 2.1918000532190725 1.431324463965096 8.950617145849929 0.8107822124028553 1.4123509323583998 0.05477349619645405
Ni 2.473598523215821 8.461839312101219 9.463828884774813 0.2021493865116777 -0.3003346740348634 0.6759183385117133
Ni 4.476516986354715 5.004304251090968 9.423217245776673 -1.0926077718899376 -0.3302707994726634 -0.45488368505975846
Ni 8.850824472743023 2.1295572079905782 12.743626975357433 -0.41340819152379127 -0.05542758484068518 3.118053936786243
Ni 5.587343924709299 1.1260194866807967 9.805551239249404 -0.9963536399511937 2.6369470563638973 1.7413325807059947
Ni 4.500256508187146 5.29602914069963 1.6249483660626831 1.0272382453451923 1.085078296282112 1.752814613203665
Ni 3.8922190341940293 2.9664056444746056 5.653520987513557 2.3754550662278446 -2.999784476918672 0.5827474734839835
Ni 1.9284656557586588 4.967907379180626 11.77844158401863 -0.8423371043910008 0.16328279135346718 -0.04716611616284135
Ni 4.152095495808415 8.04664467545125 3.2289291513188347 -2.3522778567804328 0.34330115029406033 -0.307807842483457
P 4.970563744992265 2.080344536111805 0.9644966003441342 -0.7185598273313238 -0.2711806781787265 0.4306613221772841
Ni 3.179707158858266 3.3295727935436443 10.509853546139936 0.8824190600135512 -0.6107349598358449 -0.7959387196321196
P 6.632852225842967 4.593397082066802 6.410234789954981 -0.17452391148492524 -0.7833148602205219 1.1278038601750966
Ni 7.758154027725531 7.987002272543623 7.0427015088333755 0.43891636309722476 -0.5229430997318413 0.8564388338997057
P 5.021593930321106 2.487187931473255 11.288449278462004 -0.5940109622129448 1.0477353368572795 0.2566917405339321
P 0.552070176487346 0.13874431648731897 11.922660810252465 1.1395311759143536 -0.06380783848458044 0.6566036973435014
P 5.33426216722363 5.95665333718139 12.446007749821474 1.8833639188798532 1.7688729522181084 -1.1780257324451262
Ni 2.346065002511795 4.1322706183299776 5.010427873330429 -2.472486699762561 1.6016692285436802 -1.0443070279020208
Ni 7.113337537968468 6.29303313417096 5.247506191873702 -0.1597729784279958 0.814240603265101 -0.03817316863561168
Ni 6.189947499515802 7.631878785563861 13.589516376182827 -0.2714017930505971 0.036515835537846784 -0.39121134371177785
Ni 5.43217487898244 7.784205053843177 6.201477991254672 -0.8647681797010074 0.078005213030885 1.5946588586641182
Ni 6.171017397889706 6.08166098021891 8.175718888326026 0.40334797907431175 0.14588953557768422 -0.4238422423729217
Ni 0.8260906209759817 7.270892652634903 8.36812086215026 -0.194860051939116 -0.3989102550179323 -1.4632145519774866
Ni 0.3914728239229491 0.4209696691302888 8.208009111897393 -1.0338596073164517 -0.3009067444882495 -0.8525004180772479
Ni 5.637031946259629 2.0692530437754906 4.0607127836553385 0.13961167298877245 -1.00119734119674 -0.6466306452911895
Ni 9.153230749089007 3.5651132160907046 4.966092661905097 0.056116640487909805 -0.6281894078668665 1.3510144382324474
Ni 7.911235263130261 5.3564637930598495 3.141336187723695 0.4416450748822975 -1.4042262463687365 0.6840944465646024
Ni 4.138068020206606 3.3462752761206827 3.005629448843439 -2.2129798583773375 -0.02228889330518742 -0.5502674985784072
Ni 1.0977874444230686 4.238963318139886 9.492448663235223 2.9188199241491475 1.3194420627428052 -2.466273371862998
Ni 6.5255816499617545 3.4567614527212465 8.589974010331035 0.3311652862624748 0.01750766986646017 -0.8312124552327491
Ni 2.240267078554228 0.6159842020317233 13.66166699985964 -0.4425292772594636 -0.37281021549677085 -0.8834996946722397
Ni 7.581025691289128 4.068881341540671 12.983992663099881 -1.4676867288162272 0.6278135125846864 -2.2337708269807592
Ni 8.482801300558673 8.284785540319177 4.7858596396727044 0.07680939295057095 0.7585939604350742 -0.7605901649294966
Ni 9.268824604513354 2.8461235364072626 7.295712429897401 -0.3737047022865822 -0.004982283705939806 0.8861844405932544
Ni 3.0921496134739486 5.828663107969398 3.4276598001820244 -0.17604651877703872 -1.060621191681012 -0.3540167369393516
Ni 4.447194436026946 9.167183660036455 8.377601757952359 0.2815751340391731 -0.6426809166148222 -0.9194768840977972
Ni 3.4046966828131353 0.7159092274001213 10.96735243944206 0.13410257024508515 0.8113288289349447 0.07576423951550823
Ni -0.116075729503159 8.051454095657585 0.7496571899642619 -0.4563345585736722 -0.7187973972634266 0.013322428140518991
Ni 7.8233887797102915 9.201222424752608 12.504707841909605 0.22445807731120698 -1.343963187812621 1.1598333778068155
Ni 1.7315870064981798 8.406074271220405 2.32650855778906 -0.4890155937464611 -0.2388994495475176 -0.09688070977914928
Ni 0.39502023735421066 0.9676907637253569 1.3763703137004657 -0.9697365515842977 0.7165510244314112 0.3133596255396216
Ni 4.560141246221448 0.37573688567807534 13.005041332968032 0.1966785932050935 0.4720612252803096 0.7789565832518263
P 8.706579148880163 1.3623148763532704 4.679618988079864 0.38774883908447416 -0.7638634363641297 0.14763942838925542
Ni 3.527392821565441 8.029149943421617 0.9146902074050053 0.2694575248400327 -0.8199566798132717 -0.6856209105114579
P 5.120494623750208 6.569556154871613 4.32518242797841 0.47967323329961264 -0.9628207983010707 0.12555750888855152
Ni 1.9687585308594044 7.453529452912283 12.728402737053116 -0.28582928132983676 0.572093336204247 1.9918768135812919
P 1.4535726927102914 3.9981008433877534 0.08321974661682115 -1.1826501185910148 1.591337507600369 -0.5976092210871643
P -0.09424785899692809 6.924194971598023 2.7753178726834977 0.603005195291755 1.506118036209232 -0.17405108561356478
P 1.3208569285281222 7.1213625588941545 6.113844017099633 -1.7041413163676777 -0.3815918183441428 2.200154938698527
Ni 2.5398119362890794 8.658755243688878 6.919339880540892 -0.022079862618174878 0.9187685451768629 0.9893155021574898
