# total energy = -340887.23133572 ev
CRYSTAL
PRIMVEC
9.17763906119071 0.00000000000000 0.00000000000000
0.00000000000000 9.17763906119071 0.00000000000000
0.00000000000000 0.00000000000000 13.43240245602382
PRIMCOORD
 96 1
Ni 8.946610157143075 7.837639343113277 11.860771140190721 1.579824621864763 -0.1251870129230102 0.33717498279166447
Ni 5.243166725537479 6.093107860377836 11.344308690973508 0.015733865795489032 -0.9027492869304711 0.6237275154407709
Ni 2.2144265923761517 3.035522408278993 8.553229940443488 0.4001078748704593 -0.530934345467434 0.2648189976267568
Ni 2.286847340621754 2.7472435940421893 13.029054280882143 0.05320563748870192 0.21171697559545474 -0.6829780735719722
Ni 3.0448101788054855 7.1755369428240225 8.46499244938627 0.5856121966262883 -1.0464742107566687 -0.2527800641843518
Ni 8.55152198185161 5.251187981901269 6.666165137390175 0.6219508831563224 -0.17599638226539369 -0.9198836326179126
Ni 5.161155344682999 5.738245276210497 7.118850338640295 -1.3889443805090014 0.1434225620944304 -0.9144393216738896
Ni 3.0748577684336826 6.970536023604402 12.753649858438385 0.23181708877943946 -1.474446416137564 0.9063028086096844
Ni 1.8093347907271018 6.481046654997227 10.559278242499477 -0.978576518473431 1.6767133020637124 0.21952670144786068
Ni 5.140891118079744 0.5909591793729874 1.5642431916746005 0.7439540990347122 0.972762225784499 -0.17251330881279967
Ni 2.7773554271424072 1.5658703870445085 6.263488890289122 -0.6733387507099952 -0.1425805258091093 0.8706133256278747
Ni 3.303757259245186 4.821243134218878 0.813180102385945 0.5735233837825543 -1.2866283586468938 -1.2635136270063012
Ni 0.35609789435791744 0.897004066915309 7.332533304221637 0.2605571370266093 1.3607887440103918 -0.8976569600092282
Ni 8.287105028651249 4.899895499250536 1.4982229287700806 -0.5013373485366076 0.06321622764716855 1.2497811079115573
Ni 5.349590625760013 8.351972580114932 3.906438118970383 0.915409656006959 -0.6038832270213341 -0.29441548033695103
Ni 1.0996646882255858 8.532836309132303 0.5406262545721563 1.0827475912664062 1.1308385332363622 0.27267757443922713
Ni 6.414169200623168 1.8055444258778517 4.006657017559554 -0.8553666838814495 -0.104766026064497 -0.13615739589158488
Ni 4.308763780266977 3.4875670103366736 7.251938950807166 -0.025110679024698688 -0.46767338062525904 0.007293705447935827
Ni 3.737997241914136 0.8697079334173908 3.607849145238063 0.8856288252001006 -1.0873863755899984 0.9357635370729627
Ni 7.3286107813728005 6.1761379591457946 13.028611000925196 -1.2789417886359136 -0.18784505407386357 -0.6615515282670801
Ni 5.926285918816523 4.016648712986622 0.45831384716306234 0.4531399628957744 0.12023918199943164 0.4336337745420467
Ni 0.7090900757255534 5.585511010299546 12.882654421312479 0.4704789683948543 -0.06346613887444554 0.11746316191619124
Ni 4.116327048646929 7.73427159663118 1.5651572845050734 -1.4251761091475261 -0.7452877302444713 0.3728048161801321
Ni 6.483625571516935 1.799147611592313 13.010920184258334 -0.7601178532787684 -0.35982357342911575 -1.582633552068468
P 5.1288317006174795 6.838534043878575 9.281481090581305 -0.8854871574159137 -1.3782892147880006 0.5691069998824134
P 2.512002354778308 4.901015171191476 11.829419408080495 2.0018789190993265 -0.27814579664265004 1.8820457142890619
P 0.5162944984260732 1.7854729296906595 0.668455161908264 -0.6820241942991352 -0.6977927699873013 -0.6768297945823891
P 6.935192936353886 4.004607650802079 7.430039292763743 -1.8723781092923109 1.5652816910535816 0.6341289132797531
P 4.39200496472872 2.426053766852815 0.5050216046141263 -0.7159936092660443 -0.6598345455759733 -0.8125722144237424
P 1.9798002549159022 8.625631415647485 11.844343166631017 -0.7641223464524711 -0.052109061990413486 -1.4809181399048366
P 2.521216704193919 4.855962142026901 2.8885709726138353 0.0340653171148252 -0.8008284436242531 1.3141746436962787
P 7.445469656979347 0.2043722509576987 11.645906094724191 -1.0401891490789053 1.5772979987881675 0.17048290864633217
Ni 8.50991974489846 3.6043341095546184 12.927465160811147 -0.3118082218921017 -0.9350058329713317 -0.46712727831380196
Ni 1.7656675850304124 6.341537366683781 1.5825516634367538 -0.9852850408418581 1.5762687861927047 0.7392433238226043
Ni 4.545225645499261 2.9705355475101287 2.7172813564553917 0.5206365630858517 -0.6918054420556149 -0.3668442277213231
Ni 1.3786832648524783 3.631077749193154 6.409002189944892 -0.25050258100408473 0.7927736916405766 -0.4818764115985185
Ni 1.0603843939040578 3.4265448895554025 1.8492253980328315 -0.4886803218942294 1.5790136959276937 0.3345768830471851
Ni 7.553692374418472 2.250063364070192 1.5631014934003953 0.8676138766799186 0.8183510258890487 0.8717682651679245
Ni 1.876166356906861 9.124601285197215 4.716854834295531 -0.9465146049418797 -1.0331607814772141 0.9625875992443421
Ni 2.654127270166903 1.7147775775507692 1.7728353209802055 -0.42311641995049065 -1.4762297332902319 -1.1777197711689331
Ni 1.2489022737308126 8.7148931312015 9.245078903806327 1.1776189839250106 -0.3046104185920819 1.3904135088553602
Ni 2.6127728294629766 1.487346508956893 10.666724531691033 1.1081786297450011 -0.4722201194556771 0.017404825740008734
Ni 6.893765074539079 7.386475794386173 6.020013473439897 -0.16256828178494584 -0.2501714229169111 -0.3029561708181105
Ni 6.514866254196955 2.075917666698464 8.578254608323515 -1.397904932136399 -0.7423332756018376 -0.5359685654572318
Ni 1.1418175835103472 3.67187235392661 10.923968242358287 -1.2720838851738157 -0.7898781152603365 -0.5384224263143631
Ni 3.480793912857868 4.535992940805929 4.94542117681641 0.14010249658226195 1.4782133393791639 1.145018167170854
Ni 5.59757960540067 4.332937681024665 9.36210205914847 1.39524769701921 -0.16737598758623434 0.2786980696016942
Ni 8.4301844184813 0.1892557619911125 4.9573089724319885 -0.6644594459424943 -0.5495236784338471 0.19505339889684473
Ni 0.41231368566811755 1.32320443794275 11.722417316609771 -0.5672563198269198 -0.8901187426506542 1.140339530748262
Ni 6.525301229580967 7.392946029782593 1.584231171348165 0.6612393963432999 0.06922412440414528 0.9377402011833591
Ni 7.317001068214685 6.073541134327954 3.8136466835107465 -0.664300808877443 0.17006664704452004 -0.08137952881975663
Ni 7.888667015175822 -0.04863506161169961 0.5326132580833418 0.5452757017907706 -0.04685758378348704 -0.5839566633007364
Ni 5.414962947361004 1.161760592753497 6.547799293482789 -0.1879692383565537 -0.30874732357859086 -0.5642915807716411
Ni 3.991529515426336 8.36003972467302 6.054588392317815 0.02276120495591564 -0.45106765374777796 0.12412334754518624
Ni 2.257708337240714 2.8010888012348074 3.9925124405482606 -1.5605310637424736 -0.2265884933906485 0.1355750410255536
Ni 7.737364460927058 2.5754473722186644 10.5805685291273 -0.5173663769750122 0.33473834832571386 1.3967564203542526
P 6.565682840565717 4.203569683651707 2.8760783705973716 1.9843460524218859 -1.9297499623435603 -0.794185998607071
P 4.366151556059621 2.4309087378098453 9.340542867702043 -0.9396998960128913 0.6275844272930159 -0.35749081153088114
P 8.910422727117425 6.999996244345549 5.044350617145728 -0.7078506684439358 -0.31940480329243703 -0.141000325806183
P 5.129180450894166 5.992309852776587 0.5799414239213532 -0.0985033329842368 2.339330552591145 -0.4736501670339842
P 8.870775327241489 6.92136223459161 0.9113505519815269 -0.6857037000332513 0.4347678881464899 0.15356710672760004
P 2.168933036546288 8.835175266102889 7.243006354904563 0.3767658577104092 -1.0236836952247144 -0.8871339489907174
P 2.147549138002092 8.574355947335714 2.6284794406082717 0.5692142148842391 -0.029051665950317707 -0.20914330133100756
P 5.132989171021137 6.26052634846506 4.904170443431602 -0.031865481250029 1.6264016982933538 0.4435340643748942
Ni 7.006796874740934 6.1701357833312445 8.300781546080675 2.060256073486639 0.11518773561845323 1.3038516645037157
Ni 6.017585070197496 8.466133229896588 8.37668796156537 0.12010702729694155 1.7239948607584956 -1.0151705155473807
Ni 9.10604409942195 7.9270387232501935 3.0202755968405928 -0.1586769171503396 -0.5112443232376743 -0.9581686442410402
Ni 0.5305079077288187 5.0355777121592915 3.8159576129757373 1.4587153785555522 2.096862668966079 0.5093010834683744
Ni 3.182795979068144 6.888579708583083 4.0020636093100395 -0.41980843862318024 0.3072082612262451 -0.6979249246897915
Ni 1.5624012395553644 6.612754950279529 5.949009752634304 1.519412439325293 -0.274095023612044 0.44261823742884415
Ni 4.716893380378743 5.206281794958455 2.851443752368903 0.24595455662208604 3.02466015711443 -0.2175132705622576
Ni 8.250155854600203 0.3554086536795187 9.330065675179274 -1.5874988505805692 0.03576430208380292 0.4025799905600357
Ni 6.002276768578732 4.226330228024929 5.054317532947872 0.03648781051338878 -0.4958524141626363 0.4909272089468771
Ni 4.510974697273106 3.4115302723801637 11.810426284459373 -0.0319302730496934 0.34850146354807726 -0.08059817056904182
Ni 4.092869003720335 8.127570132344912 10.923484580790355 -0.931761357892105 0.7127550477240886 -2.088976067129151
Ni 3.787905242035741 0.3332382314850057 8.569079722755003 0.281802676668947 1.074833221515336 0.26864299935853736
Ni 8.46294858921211 3.2708187133760354 3.749695060405309 -1.2393239171339752 -1.0960103698135835 0.22852581962267743
Ni -0.07246755420378942 7.707215917271399 7.39519546906722 -0.6155025564278175 -0.3581094189514865 -0.18858784577715906
Ni 7.475140963414276 2.4957946445512476 6.0907482894268865 0.8382968728833562 -1.0283900995614483 -0.07908919012368315
Ni 3.580628268378799 0.22197863334704912 12.927585387880216 0.49393951341063963 1.704501013699942 1.1317271064889027
Ni 0.4580963371220763 1.1634033901094674 3.1317508694917633 0.11595109614703901 0.6738092625885105 -1.2467636612414723
Ni 5.34296437050297 1.2807303252978826 10.802499438752276 0.6410608645128959 -1.375163010454193 0.2675327970134941
Ni 5.646569841636258 8.240556044352466 12.639460757976261 1.111269352855183 0.05056202921826776 0.7981308421874319
Ni 8.636360075475023 3.020012198605306 8.408482055868657 1.119275253878795 0.6611661199032033 -0.9596943368569472
Ni 7.051427732517941 7.61832130727179 10.485762601937857 -0.48472390834964263 -0.7460786015768829 -0.42495604426239075
Ni 3.4002417765821544 4.813607338687216 9.86082046139343 -0.5711821372438872 0.05438654517068053 -0.8724025563178136
Ni 0.6590067827017189 4.9911487624372075 8.913607367801903 0.729205479970628 0.3099164041860275 -0.8831973329404724
Ni 8.381240070440015 5.333694955254197 10.965743018922009 0.43680677295338965 0.10329098418086728 -0.8058307819348509
P 7.438880112277745 0.15275904553587388 6.887088342268306 -0.9465811965137568 0.7648574248462827 1.3221844013746324
P 2.549080015773396 5.230565827382466 7.494165291007523 0.4118375046025617 -0.776460813413166 0.058604439906770035
P 7.106787250122488 0.3623056492829365 2.5324106703116684 0.1810473144257398 -1.1599753027013182 1.3619434264401253
P 0.3615016881187856 2.0559930127330346 5.373847125267441 0.930010179528953 -0.03989940729809903 -1.5957050405404454
P 9.009063989586533 6.8948480359245785 9.461314170754681 -0.7285714459310549 0.7640385284894131 0.24778415363165712
P 0.7581674995303131 1.7624554114293527 9.573017966613468 -0.14836087993631222 0.02968261466609727 0.15384761408249634
P 4.228110689963803 2.499217903846091 5.032650963126783 1.7525927270008461 -0.14115562043712465 0.18987391157843428
P 6.628714864257366 4.349264700556907 11.631842280934865 -0.18766764795573485 -1.412843298613786 0.200570472060332
