# total energy = -340860.74055691913 ev
CRYSTAL
PRIMVEC
9.37803534797355 0.00000000000000 0.00000000000000

0.00000000000000 9.37803534797355 0.00000000000000

0.00000000000000 0.00000000000000 13.72570267810225

PRIMCOORD
 96 1
Ni 7.914011279329837 2.6584291202111494 2.927307702192163 0.5806322269131935 0.4473197566695715 -0.8610732473479235
Ni 1.9799939274123912 2.9939658378361687 13.081664981408023 -1.6470473995681634 -1.6046943885232492 3.3358433438280226
Ni 8.82818214028422 7.3502131875190395 8.508713747989107 1.72004898873687 -2.1360593937701986 0.4764210449109021
Ni 6.647601420248181 7.674749469978901 1.9599483773991575 -0.8218914349421393 -1.3121748396574304 -0.314290107773691
Ni 5.391179168541537 8.096657890818836 9.521670955015724 -1.9196367851689582 0.5667284723479079 -1.6700418035808076
Ni 6.451919339978646 7.116850162242174 11.529754910944904 -0.44645278068358596 0.20039100905967422 -0.38688623397386274
Ni 2.492381630838372 1.5965542065276777 1.9758010079219037 -3.273210242377834 1.3288204186339114 1.0852472177598085
Ni 3.2193106431077405 4.813229621774029 12.554515312940717 0.6883218543823887 0.5812318081704054 -1.1158317754148848
Ni 9.293623400030086 0.9020750712902577 0.8223758400446602 0.45724267221023834 1.978811752867218 -0.6688380346261642
Ni 5.416743692207538 1.8103921627390218 7.720062259945658 -0.21649717059291745 1.1350096338949163 -1.8119674694147372
Ni 4.026834488974175 0.15847285042742568 1.4273903960931942 2.6487270797179607 -1.4545311652708754 1.0565004846444193
Ni 6.031652075280147 3.4157804783251633 4.1013767387216316 0.2736723342523287 0.11297530134816673 0.0968439430039429
Ni 2.5747864252085626 2.9996301710328903 11.04743318803 -0.3479563896778846 0.5520801263071137 -4.331549837113521
Ni 6.298072674263047 6.792482684414002 4.246910714129989 1.387819779986255 0.9281178476022467 -0.6197225080464359
Ni 7.074273882915821 4.917897871457163 12.475290610270871 -0.28064773712889735 -0.7094712347664942 -0.2989552771888335
Ni 7.015567383227942 0.03723455053686175 0.6182647818327197 0.12855541517461086 1.3960126002096924 -0.32451307105327987
Ni 0.5366439911963802 3.5301174821901182 1.8049163280476876 0.8185009212033516 0.14272425047582515 -1.635634272635215
Ni 9.082364403469567 0.11243607615141964 8.927663398756913 2.1902731608084407 3.243444581079627 -1.3942776197964568
Ni 5.068996772890248 8.59497854160395 13.018869658419199 0.21668846066811717 0.8735284423921408 -0.491608808394934
Ni 4.399179994342793 1.7210757565046195 3.8023074483627917 -0.8548167249152503 -2.004638998342967 2.8266559031193768
Ni 2.225370215644556 7.88365457973085 0.5584601142353439 0.8875885200296327 -0.5392948016169874 -0.4190571622794525
Ni 0.9221553200333384 4.659739321391998 11.641316954225571 -0.21083765831429496 -1.8816358804451532 -0.17780926710441636
Ni 8.564181074355549 3.2951883250525698 10.373309077963912 -0.020873758125215663 0.1238847491718189 0.7177859252797768
Ni 1.3211775840300934 6.0863072638074565 7.169634432768248 0.8281245603360448 -1.954352591383589 4.652090296672298
P 2.4718155998774267 5.023757131597224 9.249380643867545 0.9475222202707875 -1.2824225480956624 -1.4253470875077516
P 9.038850320633824 3.2598612668538096 13.506887599850142 0.34437124342978753 0.23710944752663038 -0.11206564504970377
P 1.1758274181095765 1.901649822237864 9.721544079168726 0.05195685268326536 -0.3032006827287488 -0.22826279576927785
P 6.526831084308802 3.698612638722406 8.777435716784053 0.6915786707567895 -0.7558685910841111 -1.0233602504470247
P 0.22366332357923424 4.030341874099298 5.949954384756038 0.6661854274946656 -0.262187987761813 0.8282580005901155
P 4.257928029758315 7.471630607879897 1.9235747304839168 -0.12120797367060414 -1.264296785029229 -0.2272209847683248
P 7.852716441956039 1.6271922471794829 4.710537324085182 -0.28853665295867076 -1.4102763092175583 1.416662158139244
P 4.640589373730234 6.9962204968292045 5.427486231407612 -1.331534732241281 -0.13488881359180643 1.5171879208701484
Ni 8.06235303844531 8.213695768790837 5.24136505791632 -0.05267856134063831 -0.5778150691793726 0.5575421778629495
Ni 3.22314625946115 7.030047069412939 8.568489343677692 0.13246477753134606 -0.06174452819764851 -1.2372557217510367
Ni 0.11706413647026441 0.9155756906114509 11.34551497129345 1.8453948958352475 2.2513458597500455 -1.2866635827602033
Ni 4.282470347599078 1.0814562509595564 9.778986419725944 0.88916666315003 0.2510777367812644 1.1738710868468043
Ni 8.109655847458995 5.390410169663838 0.7903067112375244 1.0734615379787897 0.3493023621828178 0.4990729779824631
Ni 2.797646051180249 1.9307967553097374 8.07017807092767 -0.9260115998925212 1.0430932100995778 0.2713837953284681
Ni 9.131955453046166 2.437998405328786 8.178542204241314 -0.9841185313375825 0.8628164552912754 1.4797837691900773
Ni 3.777660096528977 8.506759365475537 3.99266936932355 -0.34249716633552624 -0.09203366609949311 -0.5795243385609955
Ni 0.5998772684240897 2.198155157802028 3.891428791467241 0.7916058965847206 -1.0160182082596567 0.6500427562965321
Ni 6.883881014439252 5.396618428896006 9.933853415659762 0.337809788162186 0.30913967392100306 -0.05312336218754077
Ni 0.17834584459493114 6.547997309515758 12.499736334350166 -0.930989512723087 2.2021747973420336 1.0551082322825829
Ni 4.181271970900691 1.9093398110148703 12.099480858738563 0.2996828993834774 -2.2087110557986542 1.9572211711806355
Ni 7.665802824499311 3.031102856808053 6.367683015354615 -0.9181543086316317 0.723423068960896 0.6142393734446776
Ni 2.5296686983717596 7.43261798188923 6.015206752939466 1.6460336135916684 0.7317711838152753 -1.1729773713879412
Ni 6.92275296990351 1.654894962846894 9.46457185054294 0.5421052744825888 0.09315723818097504 0.6561992628162312
Ni 2.4695461153847003 2.6732464156595275 5.517279041824785 -0.2870217589760412 1.4136835351268942 -0.5118624164376475
Ni 3.2328525257833474 5.000555872774889 1.1797464989753217 -1.8094794128855611 -0.7946040599810961 1.2857043041707275
Ni 4.5494723847578005 6.146973772829963 10.331047900616715 -0.25105279708059985 -1.656367648527825 0.7697821158414098
Ni 0.6341014696958063 1.2688106360656979 6.6688933111253945 0.4096736641820235 -1.2644934744210672 -1.889633553938649
Ni 4.393600063461916 3.715896357400483 9.089901530274542 -0.9036157486958244 0.47037046784144804 -0.3922989203490018
Ni 4.344890549184146 5.767679143456758 3.254542045348543 -1.06107293450645 0.07109614461587756 0.8152657020955055
Ni 6.344475191907716 9.373580527240765 3.7412011094943813 -0.8227535258321185 0.4737409269755777 0.5903808216595251
Ni 7.5355512950799906 0.601422768607566 6.824199199101606 0.3497602756558428 0.6537487443932096 0.18509988722855863
Ni 5.306683072345406 9.257911842392476 6.014218308040568 -0.2532186943836671 -0.5637722179330613 0.1572047034801873
P 0.7965787411083316 8.864615806624062 12.781936415182079 -0.08046318765307432 -0.29000423864313285 0.6667076185467228
P 7.102773731566214 7.9843465425341655 7.546569548511825 -1.655504014975949 -0.6622621811808594 -0.19919518897936017
P 7.3794820350471335 5.033088276515664 3.5864710328729354 0.5521076371109395 -0.5854605015397724 -0.4519300017480733
P 0.694505393735683 8.558385448667513 5.978833106024225 -0.07201531399603726 0.013851818281427756 0.38553383371102634
P 5.18021089106893 3.573575296815299 13.282540617512563 -0.23634557277741233 1.3895766147763615 0.5843649544827485
P 1.3792557553666804 0.19155011800715693 3.3813405822462865 1.1631009928144938 -0.44889352891459466 -0.43150592956576656
P 9.013267040897635 5.957143586459029 10.411631480571668 -0.3013919116547842 -0.24202411121942832 -0.3271332822849463
P 5.934570655987987 1.3270576120339752 2.0820382028762485 0.8628195406150688 -0.5651361881601235 -0.04923122622198618
Ni 2.108519898374433 6.491269575232694 10.636911577401092 -1.21294851246424 1.326236202846503 1.2594777663740309
Ni 8.56384346509217 6.7803193728972 3.1805606020997033 0.419655972205716 -0.05466268165020264 0.3427144245526549
Ni 7.457807384151473 2.20756132700122 12.423544488229693 0.17199780262896186 0.006260121977098896 -0.18124220404536528
Ni 9.296549346979386 8.06030862679484 1.2827407693941923 -0.4492277723255618 -1.2180896903455471 -0.1566640004853689
Ni 8.937689456075812 4.770756500833709 8.495935237370144 0.5849815050208248 0.20318091309998557 0.408259043222684
Ni 2.701483679327292 9.283570146409414 11.296555063478673 -0.5553932498407468 -0.18187700941588678 1.0796630388038118
Ni 8.615366389898112 0.0377006388810291 3.2649329082325957 0.6217655066183937 0.12761464852789633 -0.8395369159380445
Ni 9.512797458209866 6.175464243445262 5.532775307013963 -1.8606248254111246 1.5534078224341312 -3.0880969854128364
Ni 5.398250207002347 3.501476963013316 11.105547933703452 1.5001065399078293 0.6838568766324997 -0.2445759311070046
Ni 4.6913432996584765 6.172575808636338 -0.03986508938070361 1.8059775703798897 1.5122066656054731 0.11337279389690152
Ni 7.409679308049525 8.760350812449968 9.868642310830747 -1.1684851399445426 -0.8842825955848512 1.3574416819150301
Ni 7.655777704983921 5.717750484616779 6.9355014708101725 -0.3564325454696958 1.3171532667086285 -0.1023677010356495
Ni 3.150869742992383 4.385760026123407 7.150446035162599 0.5232858277832406 0.23744394804791363 0.24792016498888914
Ni 4.439702483983579 2.8027195681660544 1.9612659913298518 1.0532241278859926 2.7524523232227693 -3.5949886881087694
Ni 1.9380178423320482 8.813608673748284 8.989867905534819 0.25672696464724176 1.1693392604147217 -0.16905646061245078
Ni 6.887266485108153 3.04344435099164 0.9830966054840963 0.884656176874186 -2.4918033978133023 -2.9721011520707914
Ni 0.3727806461969749 4.598650800790266 3.8228003306500047 -0.7156292839480901 0.49791906688367793 -0.06188568176120309
Ni 5.8126186876267765 5.0928920063095315 5.8612184788939485 -1.057098523239734 -1.5241949483156008 -2.0361440109297835
Ni 8.009048286971524 8.979402956173525 12.078343705440398 -2.031277941086734 -1.588631935743748 2.1879689381552967
Ni 2.7556324539595303 0.4994760247086853 6.0906155331296 0.7330245966064021 -1.511390854572397 -0.7539284366386048
Ni 1.685129747989661 6.675069685038244 3.234118560521025 0.22503786107407694 0.4637524483042981 -0.8138788490503079
Ni 6.024374720047272 4.688614291446148 1.87564453092245 -1.3453965778250376 3.226312549385031 1.1742819491319776
Ni 5.199829740485391 6.062796529827023 7.710687976065786 0.5321072827296127 1.0149902812157745 1.4578936539852054
Ni 2.447582757194762 5.1728303774500235 5.030895691910708 0.3868481816470757 -0.4240880398351406 -0.5977380333555448
P 2.8881816019768594 0.9029800516768199 -0.09479786774679301 -0.9783602886975667 0.5466185889719103 -1.582781904720874
P 2.9508550105094624 3.6216658607768712 3.255585820654496 -1.336935334431562 0.5720851086741309 0.35329605672324316
P 7.212346693603463 7.229855485123794 13.465146903450657 0.07503044667327723 -0.1219664491031835 1.2334664299119338
P 4.644987672189277 3.171820273392179 5.714201836137243 -0.6018420282215893 -0.6842006331251635 1.324976105187157
P 3.637439715804829 7.341003957056819 11.959822222316541 0.7720482861677672 -0.7420391414001867 -0.017818516238659637
P 4.013677105737419 0.10956639741268308 7.8927315798982445 -0.3088699651993842 -1.501769529432549 -0.04420574798293677
P 6.074369025132909 0.8772598526282614 11.413017130095907 -0.3140504809590592 -1.0036357754349037 -0.7711111190654784
P 0.8615131939020765 6.016197073445382 0.9455966565540769 0.9926314539046001 -0.3904215008206308 1.2440346923460832
