# total energy = -340863.5249306161 ev
CRYSTAL
PRIMVEC
9.31219912245612 0.00000000000000 0.00000000000000

0.00000000000000 9.31219912245612 0.00000000000000

0.00000000000000 0.00000000000000 13.62934470723020

PRIMCOORD
 96 1
Ni 3.338274381829108 0.34575915888854236 11.46698144129412 -2.695552524711932 1.0643132958206185 -0.8789645258060474
Ni 1.817573644553645 5.1057018342342895 7.36826915615575 -0.31767187976173034 0.49349522678436947 1.6771565602487182
Ni 6.307208322991111 8.201067502564294 0.016869048667955692 -0.055351223076795 -0.48335890968131595 -0.07919897622867005
Ni 5.239452949894156 6.814471744514462 4.497643169662663 -1.2685067093455185 1.591965113882039 1.129620858779177
Ni 6.69691454308787 5.121970246060355 4.965497364598771 1.2417350976786292 -1.2766910449285238 0.418826277215569
Ni 4.143444364730637 6.998229369336306 0.6282270253803817 0.24395423836260563 1.0895183343313366 1.004903586403734
Ni 0.7104919234414291 5.59962087444868 1.6934736920400495 -1.2214125840711934 -0.7741398785894732 3.288181518975685
Ni 3.060538043699503 2.1053392211129425 1.2556317835803157 -0.4887785380349905 -0.47734947026244245 0.13949545912588232
Ni 4.002113119004132 8.768478418068504 9.564719864473851 0.761830722204817 -1.5571042974491118 -1.3542905378805579
Ni 2.394762369111873 1.068938022382537 9.365663227752153 -0.9393391702393629 1.050159115807424 -0.014540873928652377
Ni 3.08625833761112 4.4591092897907325 1.7440109965506736 -0.8599553316933963 1.4216920072536678 1.6517990553205357
Ni 3.4115241399423506 9.099592281433948 1.7814506930284633 0.47300636280239833 -0.7821128694926208 2.394643209120521
Ni 8.45897816881199 7.658864710021254 1.2841624991800302 0.6853301187439165 -2.861012783332692 0.09877432725743633
Ni 7.872523806150193 4.651760064752183 1.4483226009978922 -0.5331020425427141 0.6794898579130556 0.21037074598020544
Ni 2.4802204202439895 0.9647717632603995 6.691067413273567 -1.9253130096181295 -0.569365909970755 0.28387035783125303
Ni 4.59055098007403 5.73822364583916 10.117294584373433 -0.6176867085633297 1.6863467113884185 -0.010467989410859392
Ni 4.2443792907654 2.8468044499777703 12.480486736099655 0.37395821305828497 -1.7132923867393268 -2.018372545878975
Ni 0.2783537369298725 0.23280777113634707 5.608570829002792 1.7479161474607832 -1.5075827936802164 -3.2258818896055153
Ni 7.07734581288196 6.818839165891924 3.1766052932702458 2.1616868645303158 0.10618861744363649 0.72879358924419
Ni 0.14223359781920422 -0.03274262325222137 7.712996523384116 -2.935938586107305 1.9125505677461383 1.6575213025162936
Ni 6.028009969602954 4.0336814739499625 9.016860842198037 -1.930111716558353 0.711914039880032 -0.8071559285041776
Ni 0.8844531148110566 2.701692451417045 8.42951809574219 0.7190365098574262 0.0319770671272288 -0.8885670818928181
Ni 5.970749257342805 0.9316110222686301 8.894210799084165 1.1779282876353134 0.44107094754638226 -0.3062901202873499
Ni 5.8337947451928605 9.767565635008957 11.432853162815958 -0.1693472523799922 -0.5998103425035411 -0.7816863234781635
P 1.894278228532641 7.408105812681638 1.7281597712442458 0.13887222371958663 1.0951554780124557 -0.2341043421517194
P 1.6295417203453308 4.682518258376393 3.8211910588079543 -0.6602058128724629 2.337133802050143 -0.23773705380830024
P 6.004533915674212 4.88894177580536 11.35787785420966 1.059709221389704 -1.2270762101148738 -0.4043275693787618
P 7.471661571532755 8.718760587078599 9.194478934153867 0.5746199592808426 0.4479527622678802 -1.1321505671795662
P 2.2216672122584584 5.7088250332834125 9.644996608027247 0.8562781399521253 2.414195677331152 -1.8116481384021057
P 4.748038891237413 4.583110532993878 4.722786069720569 1.386845588998444 -3.522737089732211 -1.286470750023107
P 9.544352222604376 2.33495942649768 0.908473932387094 -0.8761249994747234 -0.3560283680527417 0.19255917172008127
P 6.549921480309134 5.679929279479015 7.708089925678819 -0.9038306929201079 -0.04350975035717668 -0.31727413010267935
Ni 7.464267685448098 7.92212989075091 11.15752682181319 -0.1696591271934562 0.2650884492380596 0.36933177002986717
Ni 0.11003573821427814 7.862615626308788 9.497608708006712 0.6363490608595234 -1.5507413313455616 0.9699905765766327
Ni 4.711395387782593 9.51883679707294 7.06699250992362 0.2423275013924601 -0.9960613055217558 -0.8152027100680541
Ni 2.705687384830544 4.805206481506571 11.413567598481794 -0.10239264073631399 0.5732297638015353 4.393532963684536
Ni 9.02967629059817 5.614222402636014 4.441653572579535 0.7797860211316571 1.5070595741868948 -2.264742335661609
Ni 6.700965349695963 2.6728339464090434 10.666325081295907 0.1089651517475091 -0.7878502861970302 1.3240438231808744
Ni 7.5140786384289955 6.9425424187238995 6.11975282390703 0.7424474325821988 0.3693831920930929 0.042142180585688714
Ni 7.503257863075882 5.979577222088718 9.806967411836919 -0.8032342248522683 -0.5987903858794591 0.1066285331945325
Ni 8.724590023714613 2.007533193975466 12.356459418739032 -0.11206358816717475 1.5592871640330437 0.5892148263758821
Ni 1.2298435106152759 0.36907876787242017 1.503643582185706 -1.75178025840188 1.4239818317291089 0.8042097013916601
Ni 1.6634288128668273 3.5672520454760095 5.793684310013459 0.19498475044243838 -1.4393452015590567 -0.3721134465400624
Ni 4.004264236996017 2.3027205932167174 5.731657614254409 1.2585992204238194 0.71231796018667 -1.103731392606925
Ni 3.9967027313275763 6.351404019915273 7.776263604063161 -0.4754216571121103 -0.2323382513902321 2.123467673148117
Ni 4.562772690161521 4.252117728216723 7.052177732376918 0.3957112884646604 -0.547839862973521 0.1089731221673091
Ni 6.551802544527145 1.3173129967527908 13.392752595959887 0.7923324903380999 -0.8184633830971968 -0.22533713748205061
Ni 4.051318779043591 -0.2530850846745604 4.488238779792517 -0.3517418248622458 0.061590004897655204 0.5359708794500769
Ni 4.595365387008247 5.168959602714236 13.031180391781223 0.22381324463835645 -0.2721157883984862 -0.377135325234686
Ni 7.744592814927242 0.9192714272424595 3.936945418488968 -1.9425939081857642 0.24035649370901832 0.2209462075032066
Ni 3.090718880979572 6.602321224639571 3.3860059207511832 -0.5268817726646151 0.6360590404229304 -1.4678535934113948
Ni 1.9864410630160843 6.00793286834537 13.688904739027803 1.6949763620389584 0.25455541091721967 -2.846039964072944
Ni 2.025561611431255 8.524759543247784 8.041858697007406 3.3365357419093566 -3.449122549569853 0.28323015314409283
Ni 5.016016044711197 3.44269207032692 1.0611018068406741 0.5499512528895689 -0.6768267092585956 0.5043571091995379
Ni 5.223119352674396 5.302403415803833 2.61173660812008 -0.555969691169507 -0.8101486925839144 0.0484588668323359
Ni 8.046606056108109 3.1750967170161974 8.858597224849703 0.4164384937096828 -0.33762338318299273 -0.5010987501632401
P 0.24132843331199125 6.974427388439096 12.536025622746386 -0.7074290075254848 -0.29326028368658524 0.022718010422806034
P 5.349672138430686 1.0427893673123634 1.4358926776404606 -0.7342016476336387 0.47228208304186403 1.1801708038125867
P 3.064234986741832 2.6351381644560297 7.888582693496531 -0.06601358788664759 0.5914730262824394 -1.958026697801067
P 2.65863284278297 3.780464156048195 13.44957377242256 -1.244456353264534 0.2937763040910554 -0.4890189361805707
P 6.443045371249168 6.3002148614677145 1.2075491747522054 0.2135278035519484 1.0332078326650658 -1.673145639317112
P 5.829874309372155 1.077402811363587 5.0320497891199665 -0.9256938115417865 -0.5313886593960332 0.9680625063159843
P 9.092934059078116 3.736398829911421 10.871528700642896 -0.8592017413568234 -0.9731147240279113 0.7550412100868094
P 0.897183822199388 0.5755860950932788 11.633681911026207 1.53822931492148 -0.14248050989613525 0.008409307109617776
Ni 7.390338136800623 6.0192285658525355 12.584219046743776 0.15456649452639187 -0.07833817089027154 1.193583477674067
Ni 0.35465417146796896 2.024229966960089 3.590636839853581 -0.4759011678516901 0.5180955418315528 -0.6333457552568253
Ni 2.1232279555822458 7.105356907771947 11.414576109644225 0.5620367232991933 1.032706210438299 -1.081131395819222
Ni 4.1531011151963675 0.24197376870955645 13.369528902626731 1.9310514547638036 0.3522406188755353 1.7473494763240356
Ni 7.332192765626064 9.392935865253584 6.492038713149167 -1.2946810537480413 0.3505915133078865 0.26623670390988985
Ni 5.367039389750441 2.6935256528071654 3.516494041846738 0.06663219530725299 0.45757717273152165 0.18324946428338118
Ni 5.740980056772482 8.691550341311132 2.8017296814586574 0.10244894789554615 0.6592298221124389 -0.3411097990696964
Ni 0.2522711984733022 5.061226771337156 9.297039770151326 0.07239480882264306 0.14143535646107255 -1.1114783835421953
Ni 3.259027567496067 5.586155434551434 5.398692485708072 -2.6625094782140337 -0.33255111086640793 2.0664855993361186
Ni 1.708145992940536 2.7420235857150947 11.268224657383412 -0.6645280943969007 -1.3423973859873979 0.1723328173708774
Ni 8.556886630139557 9.002791971799171 12.960403022528782 0.6138110276580074 0.05413740527435192 -0.27715617903587103
Ni 0.0388355951227394 4.6539670559386614 13.10777695425067 0.4505842863534562 -1.093957343939297 -0.6668544285372322
Ni 6.5781188191811015 3.4367788238990142 12.902969103365391 1.1163213134567935 2.3079975468058187 0.46674726926656385
Ni 8.686233075625566 4.197576178093501 5.996012322278657 -0.5564983099794675 -2.08966280878353 2.11889496617577
Ni 8.698851105404799 0.911241517959336 10.175369182834839 -0.49432312200230355 0.5048109089075048 -0.5462905162085301
Ni 7.1010453595890795 2.5335141356879367 1.7968931127944423 0.688006637134815 -0.22161520854577318 0.5449154902378744
Ni 8.028288960480248 0.4190955204534066 1.6012847833991288 -0.08482429283524746 1.358311743224809 0.16417984924643983
Ni 1.860744999576909 8.75039412741812 13.222862698036371 -0.07231381907306256 -1.0862448057863872 -0.6366041142931229
Ni 5.803483537125405 7.445894716625643 8.840034287165627 0.4301458159934463 0.5929994902292948 -0.7344284189324641
Ni 1.5077288439304655 6.933248844023033 5.860822471857986 -1.4919471440254886 1.5129947087244073 0.06963447246868652
Ni 6.61238771186566 2.456539497935068 6.798589788951008 -0.26917547482323967 0.015390880633773493 0.02973172273647783
Ni 3.272818934361782 3.817759513439949 9.629527182883882 1.3572305943454883 -2.496026177645398 -2.3479635456757952
Ni 2.4809095229773206 2.8472328111363274 3.6535779935641592 2.891107288725227 0.20660896494492803 -1.9775930499687682
Ni 1.3125637752122676 8.522384932477522 3.61782753000294 0.4994918106874365 -0.6152349045887276 -0.0041412758618831905
P 7.641804761271766 3.5996771227389526 3.703365666047308 0.7801842850113402 0.02862074906048619 -0.5675108590398872
P 8.714365229103839 1.9206317519829939 6.1994028564610595 -0.8620875475450509 2.640711665612652 1.6343006414254562
P 2.1718469470784623 1.0400422685781394 4.518059234967452 -0.10069494131891692 -1.198548534988826 0.8898312933172224
P -0.12841429435619223 6.499486609988599 7.549934329840033 1.1873223272557034 0.30384525829128317 -0.2757996650079766
P 4.4306139605475945 1.7583387460844944 10.122704972049988 0.09935076858619664 0.3952196935402225 1.004541832188941
P 4.704727853227662 7.827862499271078 12.083913700387246 -0.3350044575029069 -0.2543232403017555 -0.3603655619755149
P 8.498769195562295 8.278982672426169 4.077204830099171 -0.39427172780465647 -1.6602926946138439 -0.020044063135068707
P 3.661053827000888 7.554353899532449 6.2167663829011754 -0.24464535089235928 2.6755835377891724 -1.323038778955128
