# total energy = -381163.01765096345 ev
CRYSTAL
PRIMVEC
9.27629314694620 0.00000000000000 0.00000000000000
0.00000000000000 9.27629314694620 0.00000000000000
0.00000000000000 0.00000000000000 13.57679268263687
PRIMCOORD
 96 1
Ni 3.231062663556421 6.089023552877804 6.364474720037065 -0.4253203695803449 -0.08021867574243603 -0.7893682655034534
Ni 4.621245013422403 2.0301259638773814 3.9623870383144295 0.09809427047127621 -2.2959087339620847 1.0311373232892822
Ni 2.405973520792451 8.106236917124765 11.811605709778219 0.5278731900436071 -0.7204932969086107 0.12081665176945644
Ni 5.48396807622992 7.865786130472359 0.8383746493664767 -0.7040549488469294 0.8309769421831753 -1.6435401577458533
Ni 5.7525724116454935 0.8006284861795894 7.75457451089679 -0.7771892069387583 -0.9768654493195952 -1.0044613566599927
Ni 6.165747770940458 3.019962067443277 10.742962860407548 1.5436790251821415 0.2607612826176154 -0.9343031504773522
Ni 4.1079784544059965 2.3464661022370255 9.173200757491765 1.4529663918869171 -2.4085544198849744 -1.7596087533073632
Ni 5.8433687659433104 8.19872155671909 2.9282427220080836 0.6881583322213309 0.5527082468094159 2.713811985142752
Ni 6.4731826681756734 1.2329306336771162 1.5091823449082915 0.4342765503323682 -0.24643715268545943 -1.024441142216029
Ni 2.3345275133545886 0.296244905184801 9.893693205102904 0.36174830125565444 -0.09613508986237639 -0.8406895414852489
Ni 6.318036670461022 2.6183635216100694 5.689055779325507 -0.44539811416682645 -0.43689007669581537 -0.06601564476917664
Ni -0.16346961527814075 0.022932851153970795 9.04331132228699 0.9732342803249109 0.3089810368559518 -0.4101881419245968
Ni 8.441009049353408 6.996541833799765 9.288711938797725 -2.3463447791254493 1.19031843376955 -1.1495407376315556
Ni 4.587989503598365 4.133404773074807 11.940639870783334 -1.8108130440953203 0.2887564822789608 -0.16197127163089525
Ni 1.791743790527838 4.133237799803725 13.286805283503975 0.9643470051376101 -0.840318017078443 -0.2901757312239906
Ni 4.281435854182754 8.396761132516405 6.40047972305827 -0.9398035114702912 -0.3018673086293059 -1.212230660461609
Ni 9.699941131855288 7.38221298483022 3.0728629102395173 -1.5696723639221097 -1.8026423353590695 0.706393624282435
Ni 1.383540524194012 0.12710747498267513 3.1610034618978315 0.867300202094242 1.7826998307988717 -1.6697471551585243
Ni 7.661132557881588 3.8012392791336267 1.3497711077467522 -1.7365079056238413 -1.3099647193799893 2.0559340490725173
Ni 5.9362244572511536 4.847456690568561 0.1735483074465694 0.6835876821315131 0.9249990994676069 -0.47033164418371254
Ni 6.621798155732411 0.8694789868813942 11.847489193363245 -1.0255719133863628 -0.2515767879048699 1.0381579775814893
Ni 2.5492273110888557 2.23966814279375 2.4975463008008054 -0.4377920196847945 0.7256961812657889 1.2080425905221905
Ni 3.6985785462960754 1.3043488122364646 6.442038442601554 1.4228631447436335 0.36967141275747306 2.0499984003143727
Ni 4.852354573186996 2.3000104277045907 13.606932932229354 1.8636594984723907 -0.9622662113491814 -0.8534982632141429
P 4.035224489677984 0.14955146550408616 13.53402498104023 -0.5798799221282014 -0.24059612052365012 -1.4410770966484987
Ni 6.413795841427142 5.780985696608122 8.564253875998363 -0.17024405316264876 -0.6959770569348014 1.151218896664927
P 2.4475220364136123 2.8268667557285876 11.320939910632184 0.7395626548352361 -0.39624504948094336 1.4555182117744931
Ni 2.2403360358780824 1.699843557382304 4.971006707247883 -2.442925698275993 -0.08679092964331504 -2.7688659886941025
P 8.956613234164976 7.597432254963411 13.258701826722135 1.3953690530884226 2.379522294318683 0.20521337014898208
P 7.647524236288321 7.908401419769885 6.441278714218125 4.094283552294052 -0.027370678703468994 -2.1698637439141533
P 6.153085631216662 4.492824015373874 3.509736414847584 -0.19041332902167207 0.4134285032387654 0.057642333103816855
Ni 4.741679123337459 4.517090797437941 9.385473877019624 -0.9240634750272151 0.6313914597439321 0.39429435351247577
Ni 1.621783553150986 8.206791931488102 5.204704352714264 0.4083875983807483 0.03284841398858859 0.8200772645515361
Ni 1.2102222688098236 6.109672580735073 12.77808318034888 3.041168439182098 1.8132265386328192 -1.432103689505295
Ni 8.73328648409142 9.38872150714219 4.364925272612122 -0.9971208571345215 -0.11390861179571349 0.8600923714918929
Ni 4.709091506597754 6.18100727265888 2.2079933132692986 -1.0592217402303241 -1.3499787978790816 -0.1369942899705834
Ni -0.2250001933015222 6.509990998156645 11.275051017592148 -0.23740023929417178 -0.828678890177618 0.1657507932779855
Ni 6.983044827720553 6.2770354561173 2.0452212752125716 1.5106238944993855 -0.7005975864259483 -0.19343488945681525
Ni 8.588539210648106 5.571406412520402 6.069708455930633 0.158973622455152 -0.5166966046014972 0.6455515532943978
Ni 4.6329331423982145 6.657818000822157 4.611629208266588 0.5555634568700238 0.9719662122457647 -0.6974148178225924
Ni 4.348930160871651 8.523373253461534 9.076913765463166 1.3685295642980755 -0.13400975342096275 0.45543467246722213
Ni 8.827431580103736 2.6537711313725096 5.491310262011155 -0.9061606266048651 -1.3570189925553147 0.2709179114356431
Ni 2.2161063589853667 3.472246277343024 9.253344217094485 0.17375618008096524 1.9602208772389078 -0.3293236050680457
Ni 7.3322694241907165 6.791554314666828 4.420793601487222 -0.11234255286017426 0.6055014793510475 0.2532256363622026
Ni 1.1248061643580143 4.038387705535723 4.787095853072044 1.4890875630895066 -0.09244761370846015 -1.5323008652521868
Ni 7.990218322600571 8.726245777827419 1.9703050066240337 0.498201116900471 -0.8477904141960882 -0.2886641796754706
Ni 6.463303416303261 0.11269675405892558 5.4149134970856805 -0.6176314298453621 0.23074133921675746 -0.4857649480196473
Ni 1.4154231426780333 9.142157643509577 0.28862999639413095 0.4872762424578512 -1.1554699586317971 1.1990835815566898
Ni 8.019104698497936 1.44985674169249 7.435574859380505 -0.8847662200894891 -0.9151481748154563 -1.4844451792214886
Ni 6.97195038148637 1.1049456213919713 9.609151270962455 -0.048940177344128616 -0.7745759376856274 -0.6738180043392589
Ni 4.47865911621033 1.9064637040547197 11.354081322054315 -2.767315613487847 -2.809671452746238 0.7712751554471685
Ni 7.0428398113539545 7.012042519131973 13.050555729877876 -0.6208519936651888 -0.5573658001860852 -0.6807625539778921
Ni 9.423507605284488 5.984785850257802 1.0127837967884072 -2.661677983451674 -0.26102327802975045 4.03841939413658
Ni 0.9557735562649571 0.7920859481051246 6.658303150937582 -0.6474515985305881 -0.07700402545988029 0.6905587141327075
Ni 3.909864668265978 4.3167228721383015 0.6189791921976414 -3.017382392506094 0.07920411843499263 1.656346565481902
Ni 5.786041276204803 4.994318958778925 5.867482489175553 0.2235929010974343 -0.030051053749109533 -0.08382696191898466
P 1.2582641894175475 6.116165985721635 4.9962734736798815 0.20024059952473902 0.2723250761958149 -0.15937420032768038
Ni 8.367039890263625 4.458000812060224 3.793559436293091 -1.1313671520463224 0.6297387546318574 -0.6470826452269437
P 2.1950677268289045 1.6496495368361768 8.188746759030446 -0.15822594565585008 -1.0163246837564819 -0.7433365200553714
Ni 6.029098701144672 7.498175921597387 7.391612652362911 -2.3491441962474573 0.5494619719579763 1.1381553786127494
P 7.973326193342671 4.461702052902564 8.434392269672102 1.652736993753773 -0.6643550591541462 0.18770647161347026
P 2.188240375300176 6.1643934321861185 1.2964250028942907 2.505102171804737 -0.46995677734279706 0.893959456552983
P 6.496271361049322 8.094279775656652 10.036725292000481 -0.45194979924241524 -0.10934258969158586 0.03530664572109403
Ni 9.33705255603483 2.5752380362064566 8.853833764779099 0.00741660417904529 0.701928646532546 -0.5981077579901376
Ni 1.8090440766706077 4.1698884328064505 6.940849754488587 0.37066514412931006 -0.3794302919164498 0.8719466997273176
Ni 0.782106512270062 5.43351431948433 8.857662090833319 -0.2340745173550485 -1.4400499409355652 0.09583967010914461
Ni 1.2746182936908468 0.8982021000248112 11.762647291438105 0.5420034587974021 0.9319927571766209 1.0418115151736766
Ni 2.5143391737253395 5.409034182684991 10.879381878140952 0.7588652118185898 0.149650031061381 0.1690423195450637
Ni 8.402911314667962 8.738221471881207 11.262845271475978 -0.07324661529997709 -0.6645774595775974 -0.546416500263433
Ni 2.37409090230843 8.352485386800886 7.767744063838821 0.10168044516063779 1.0298034349692073 -0.01245313816168823
Ni 3.639275206183085 3.431031708264029 5.291703920353511 0.08375497103046867 2.2189491885868944 1.0444607798710657
Ni 7.589807142250619 4.659908601970962 10.816046133531309 0.40435765128574874 0.9276311377738152 -1.4825016823418726
Ni 4.945043291223755 3.071501150450907 2.1383311369441733 1.3355034870810418 1.6510264388205693 0.543350973964232
Ni 8.587639410242824 0.6162148569319336 13.29829118929592 -1.0570103344013022 -1.0398181388927317 -0.512129296945789
Ni 9.001093058322928 1.692821403703979 1.6206342204683648 -0.6197772725437714 -1.2719167634683322 -0.8152057953918477
Ni 5.12822224589468 8.260093510134942 12.04933483211197 -0.6571531420890683 0.499030811890618 -0.9405501598283286
Ni 8.73423266596089 1.8641823612993604 10.965635631836031 -1.6638886394952181 -0.3031505462171037 -0.17349726999262377
Ni 4.207216235186346 0.38606817636391866 2.0312780794478544 -1.0638412412802065 0.8042945477959825 0.15080625615301124
Ni 3.739292195561822 6.269994749853298 13.066793880490701 -0.07331654930596405 0.9224611635371016 -0.007761903333605988
Ni 0.558767703015816 3.7125764721885366 1.871683171688124 2.3277901560517136 1.4086655130870127 0.7315510973846692
Ni 6.2777219017873085 3.03056487015705 7.8926512021603354 -0.09909288693911968 1.7796191349910189 1.572798825366233
Ni 2.6226491689012 1.941481709517967 0.2692657350949181 -0.8206804453531737 -0.23186491129823936 -0.8799284323812137
Ni 7.015836522902693 2.1940009531525404 3.5646140356475904 1.1766463355990961 0.27580634987619596 -0.2935431050343267
Ni 3.0990239113010936 6.280226500853553 8.632816811622192 0.7885905067971645 -0.6561393561125732 0.5105264712350434
Ni 0.613691705280012 3.7917681841460835 10.88770456807516 -0.5918219249814259 2.095894648625855 0.6565633310238693
Ni 0.4448297809751732 7.324032076150621 7.377343858719581 -1.024556841858287 0.44267454458807637 -1.449817047624658
Ni 5.561091174884606 6.087483688266705 11.362416998798492 0.5682441376614858 0.10667764126491305 -1.180105240681974
Ni 8.140215977790161 4.8176334090945625 13.079610006675608 0.5755602117069248 1.5178859753784375 -2.0043026980494707
P 4.128720245191644 4.079119907387146 7.257732555979251 0.2738528256942509 0.6760754329148679 0.8053317308112452
Ni 3.0810928372453437 5.034893463652103 3.5852918200126567 -0.6397110353532208 0.006896727119833284 -0.3651102757493518
P 4.302975406152465 9.18501411642089 4.155774553253515 -0.404340167784252 -1.3995550661453122 1.5855638383413855
Ni -0.03449482254718704 2.8743706513517107 12.985292371616506 0.601423452626932 -1.5054066119645042 0.9414981255638946
P 7.15768031668773 2.4854620741208127 13.081836316956716 -0.728829584688448 0.6439286729789943 0.8713805428112026
P 0.30321603925251767 2.0373707485838177 3.500218938395851 0.855847737282926 1.121126705265237 2.514746379762721
P 1.6354104273299295 7.272121941429472 9.889308301478408 -0.3861043615025157 0.7718963339709352 -0.2805083833375556
Ni 2.6668970857382037 7.517368571479097 3.100722400519721 2.1759441457802784 -0.638619602061255 -0.6067548921421745
