# total energy = -340887.64254530927 ev
CRYSTAL
PRIMVEC
9.13466674293447 0.00000000000000 0.00000000000000

0.00000000000000 9.13466674293447 0.00000000000000

0.00000000000000 0.00000000000000 13.36950812455419

PRIMCOORD
 96 1
Ni 6.895056368350624 2.1990613428631516 11.00124607447132 0.0037044454347807164 -0.23789466243208707 0.8568242422635823
Ni 4.872686879515511 0.9256614293507358 5.902236870922851 0.025328194352143476 -1.796066481913765 1.2578744264426531
Ni 3.161626824856873 1.8027538369433638 4.634339680507498 -1.5808800597124708 1.6141257091394783 -0.023062795356734476
Ni 3.9845141214634916 4.7331731181253325 4.840871749577329 -0.6477184790387297 -0.281648924699902 0.27625217916436295
Ni 4.050018814904791 2.8545376066014527 2.434600545390359 -0.2852075885854378 0.2723965528636986 -0.07575061266875342
Ni 5.439228030250815 4.998398159830553 2.878107786560536 -0.13740335248354402 -0.37962543864639137 -0.5195081059083634
Ni 5.31870524050538 3.352605297284325 0.22431726473713146 1.0561310171201423 -0.1096143552957338 0.4392572913764113
Ni 5.67542310183242 8.184697718892552 12.345376624127274 1.1826771151742084 0.07219786232048857 0.250353199910414
Ni 1.9080125989743357 6.84177385868069 0.4571480386483378 1.0098318769432866 -0.8056711164285351 0.16083253004076173
Ni 1.1389832960268866 0.18531680613336207 0.2504789495810699 -0.3996180797182344 0.04887924219920614 0.907671921043069
Ni 8.425204353060169 -0.036260972121682354 6.895858392068955 -0.7471394387412293 0.09629655514090514 -0.19156261213476686
Ni 9.124463073312786 2.2246018703853765 1.2153098288657471 0.6912673101639579 0.37642518654153884 0.07914806838607659
Ni 7.006334875602321 0.8092163547290213 4.583481511325545 0.2589910780910701 0.2999202122052641 0.5031170661448496
Ni 1.1383804080381645 7.892032139033981 2.7013355474673344 -0.014123326775259548 -0.7278024289755144 -0.5056578302888324
Ni 7.810898031218388 4.123863458856746 3.5402724531070535 -0.1569427080680523 0.6600374056153987 0.10255899111084918
Ni 7.870182016776055 3.5158235182310755 12.930587206246672 -0.37832754577057426 1.5348665690968342 -0.154174915514928
Ni 8.26257075076915 7.253966549636653 9.231899539836354 0.5751542345177578 -0.053963598700649006 -0.35447824995680244
Ni 7.042444212260174 1.20968561470429 13.472051870517737 -1.082193004314517 -1.0398237953196865 -0.17800955604068053
Ni 1.8972428271758008 6.5884056140870015 9.149128499784714 0.539534171321303 0.7655634497743719 -0.07453319532188453
Ni 0.30247986554164563 4.958443128577974 1.534031131436905 -0.4719810068616775 0.3651848377410291 -1.1801204101906255
Ni 6.625008222735627 2.381654191447469 6.857287262790487 0.2814972296133862 -1.0491671842077994 0.6094753763971311
Ni 3.2902429291175763 4.56251927865101 0.18464997547916956 0.19168113999050215 1.1093371688294766 0.13753782117887925
Ni 6.451577444646584 5.953610235295166 4.903013058814879 -0.33411768402257946 0.7811461347039773 -1.1423023109015875
Ni 5.363976647658509 3.0819999370130837 9.279133986819428 0.9560243442045279 0.12716110593024552 0.4780457249985186
P 0.6120043858848434 5.595476500661279 12.694508144929562 -1.0720662002931602 -1.0073209375959749 -0.8980709076181952
P 4.222938051670069 6.411832510723408 12.475783123021154 -0.020424586402939017 0.47058952583078956 1.3035534165370066
P 2.8679929703497495 8.500839391645298 1.4116065041270471 -0.577835895114979 0.8094370112288704 0.7485736000845946
P 6.430604250372253 8.385322399139556 5.968054883424956 0.8467393472237545 -1.0311162402433596 -0.163878258845621
P 4.880515288702402 1.4692106245161396 12.626095887142654 1.1096716693507598 -0.9964212599643354 -0.8987846458557683
P 4.0819262049745815 6.569250218445333 8.119075188253456 -0.4176880498460677 0.06896495720548768 0.8018185754516642
P 5.132458525322747 1.0849882823702803 3.4745074216706238 -0.18984074434765372 0.16838848801114872 -0.6559475518167414
P 0.2957393951344032 6.000416266419586 3.5128383092202515 0.27524379250450665 0.16317454791037703 0.8135003826649668
Ni 0.9045037148131904 0.29136571681621964 4.537918708311202 0.11593001310111647 0.5971279105753717 0.8977520908261957
Ni 1.9764769243602711 6.91302425734784 4.924123273086647 0.4447890198279178 -0.15945673273915764 -1.5800071701892144
Ni 5.960104983173672 5.9209172639067384 9.263852603238622 0.5123853788206532 0.10126649755167076 0.2763524521876531
Ni 0.062387945232936844 2.4568324967078095 9.94770296804614 -0.1417755134093107 -1.2664269439983544 0.5352908226639168
Ni 2.596163564768073 5.4898249479709875 7.039781456976651 -0.4113299688385238 0.3689497041001001 -1.4937217194274082
Ni 0.753078348312503 -0.043626253717236683 9.025019439973033 0.11314165172270191 0.5038711707020548 0.05442614015936433
Ni 1.671232908737 1.2348607555666835 11.635977510597684 0.005951332487428461 -0.059403538769297694 -1.2598346354928174
Ni 4.668983816659426 6.927411357078707 1.3181917506745149 -0.7727890209885336 0.7158732816380962 0.25654878719816465
Ni 5.53311413249453 8.257619761528431 8.004163824136384 1.2978273126865068 -0.24160656406603556 0.6300534576587988
Ni 5.495214401203502 2.8504361413448436 4.499762292891643 0.6376371835433277 1.859409722057101 0.34932318811842417
Ni 1.2234424224469478 7.800109990086861 6.922250270508587 -0.6742031555928195 -0.6467463449334474 0.8419694366389371
Ni 5.420054365276155 5.22956003017298 6.925739713109978 0.1154924113430656 0.2989776457863367 0.46581421592933325
Ni 0.6710426489137745 7.186918097557565 11.202083592447677 0.868926424843755 0.18709403484045198 -0.3264974484731603
Ni 5.055590306760686 0.6313516095229236 10.481840716320935 -0.09264378887966626 -0.3764668384127516 -0.17668492369198602
Ni 8.422171643783567 7.822681750997955 4.922826150444245 -0.26274745980970876 -1.5546082705001356 -1.3225299576395093
Ni 7.511454528819941 6.609397077694324 6.869908631487719 0.38220991154411593 0.44826437997102797 0.9377713115316108
Ni 2.841292340182559 5.674354345852413 2.6672970397040774 -0.5307258290010537 -0.2405565255349664 -0.20556741105429113
Ni 2.641992186577444 5.4328611677032494 11.207444728214053 -1.1514893767174943 -0.38645737396656027 0.51956544150886
Ni 1.0967628674833518 3.820747820526994 3.4600152732750553 0.9993461469206144 -1.0256878701389367 1.0108060679310977
Ni 1.7376876074938619 1.1635646835670537 2.545808715710038 0.48774264057130845 1.0372334088846913 -0.9056731454454853
Ni 1.2426617607540869 3.585913814253261 8.041397638239868 -0.6723393629112034 1.0984459758382694 -0.27960772590015714
Ni 4.333677613598514 3.2330781861869315 6.7553845772300685 -1.329010937378163 -1.2132470175412655 0.13955485160890804
Ni 4.196082132172451 7.4507181312894435 5.9194164382014804 0.7086076012146184 0.3907863403592173 1.1019447330201473
Ni 8.787503495616136 7.512578092798924 13.318449712991104 -2.0052864021189785 0.10489638099477418 0.7201590534976435
P 0.22048983947539605 5.865442434277814 7.926286224926539 0.7077995034910262 -0.8123181894314075 -0.714351188566615
P 9.03873422824981 1.7783277387336252 7.862700724916005 0.03212310578678984 0.20403374801858412 0.20340074242027548
P 2.1053853379488396 3.578971467716462 10.140557700971828 -1.0031071566249432 -0.2731468007661618 -0.41633127870785713
P 4.3197929205249155 6.6615286193857886 3.9798353452843487 0.1526024288214856 -0.16138685988233495 -1.9445618305454127
P 7.130529801279062 4.145302521122362 10.11728165727391 -0.38894980137111085 0.02709634199615979 1.649466036311985
P 6.6123658443054545 7.97714896144174 10.278838282385076 -2.4789854201130272 -0.19135923787470915 -0.27525767646157756
P 2.62909403748539 9.03873422824981 5.857996767617097 0.1952989392487475 0.17983246818203222 -0.7160853976489022
P 6.945096071414554 4.439411378287267 1.4144939722063659 0.6250176950071042 -0.6149502834687732 0.23532227371922054
Ni 3.018550543533337 2.072171690570152 0.2142956221246018 0.007071047914168468 -1.6438756867084012 0.29904578002011084
Ni 2.1509581890963285 1.6280898788773903 7.087616965015147 -0.8038592600307769 0.25466571124283877 -1.552496109253139
Ni 7.195276317401212 0.879936029272767 8.788712925460178 -0.20766620256484877 -0.1700422215644878 1.1529729032415563
Ni 2.9499491981499646 1.639462538664647 9.287810093057127 -0.08432678437353863 1.0041204283808063 1.1057401955068376
Ni 6.937368143559117 2.0490518496693113 2.3435809014930222 -2.6709694360559295 1.3876526582807716 -0.8258036255123519
Ni 4.198356664129903 7.134494246538234 10.37779960533385 -0.1818780378571513 1.503542562172572 -0.3913620103570292
Ni 7.757569848215974 5.772561145348636 11.544770606037185 -0.6565401910954176 0.666172314868543 -0.2191366650982936
Ni 7.545572508181713 4.415167973407445 8.066907107896007 0.9636304386865598 -0.0783199160578264 -1.0665229018774276
Ni 3.3057992661599043 8.48198543999799 12.54767112140971 -0.0777622437821435 0.6613836352306481 -0.36418210750812763
Ni 0.11240207123067848 4.7459251125534525 10.136453495315271 1.561998906537252 1.13543309458558 -0.8580072068280901
Ni 8.759259106811157 2.202632997463005 5.623349108539879 0.7828536043133871 1.252801639905436 0.776230699680231
Ni 3.6463761717888854 2.831837960359418 11.35952230990254 0.6475097054620333 -0.16562429500245024 0.12669085116204631
Ni 1.321338643282314 3.475521369651656 12.476424376609158 -0.9069962351322831 0.6641156894498305 -0.04634619136470728
Ni 3.2371613821105485 8.860717847579881 8.06569037031877 -0.03376861181001281 -1.5929660443427276 -0.05647942314396725
Ni 6.049204520173593 8.077475003564984 3.3196620360339133 -2.4764305149016574 1.0623546294323511 1.1330324555638873
Ni 3.489771449385086 8.846394690514485 3.6573761371831144 -0.04392729751056951 -1.8736153241335216 -0.3366131967509235
Ni 3.655309875621767 4.396670273753473 8.757522606710308 -0.7385907778402699 0.8284032679187282 1.3979666386122698
Ni 5.033712780503272 4.745349628564218 11.586696898319556 1.6102610839777494 -0.6888391603384395 -1.4378675885722656
Ni 8.164802415264724 9.16106568196141 2.4579706761531845 1.0124243202608114 -0.34266068849658404 -0.4583582738719203
Ni 4.755936707032837 0.5004463578383757 1.3307939365721049 0.3579371550396803 -0.19769417895380145 -0.2026890610652316
Ni 6.384647743231941 5.953683312627132 13.344025865712661 0.11342987238708208 0.22624473689798455 0.8201775375748261
Ni 8.226534491443264 9.005630196869072 11.128777893818972 0.636972039155503 0.4651526710859344 0.3470865854784215
Ni 0.7220725498258479 4.985956744063289 5.664326308973336 -2.4217701472443 0.5953641338067295 0.019599776508798503
Ni 7.499990522367727 6.7942553235695975 2.421913407094358 2.238558735287706 -3.2322435701574848 -0.6918517219125181
P 8.631300698538151 1.9794365563049066 3.492717379329978 2.3018047877315455 -0.6507086720153052 -0.0937611903135611
P 2.013463189001719 3.3925146552044256 1.4984680478355008 -0.4534387250831158 0.23991966328191583 1.0727380295492042
P 4.968619147054283 1.3046404729280126 8.245096133762706 -0.17982475487254837 -0.2893933445320112 -0.9140575128544387
P 8.766575974674284 1.624828802938394 12.254958954752011 0.7212836540203901 0.9393535684170661 0.31113253598131574
P 6.673330608498349 8.236975415247949 1.0368230128712863 0.2887562251686447 -0.043245183841880364 -0.4421857778771159
P 2.249868357912727 3.5856489089248833 5.724235105719316 0.9601666485076755 -1.2063178945216 0.39431775055124346
P 7.092840167317439 4.02017585946305 5.676813398073079 0.04109265627525181 0.7872036537519669 0.04414944082370461
P 2.2999994076416153 8.64930512620135 10.520586317729471 0.7145823307408145 -0.6856283667106257 -0.9625233216653102
