# total energy = -340859.14290201315 ev
CRYSTAL
PRIMVEC
9.36701456876557 0.00000000000000 0.00000000000000

0.00000000000000 9.36701456876557 0.00000000000000

0.00000000000000 0.00000000000000 13.70957265373174

PRIMCOORD
 96 1
Ni 1.9919237237017091 7.9719756204101975 3.5512730999228785 0.49693202038006035 1.4272581884875355 -0.8746941805654678
Ni 6.717470109235079 5.819248359656168 2.754815532023359 -0.6935028843626959 0.5034389682606426 0.9813535669979359
Ni 0.24874762561311375 5.4238479457193955 13.15101664349533 1.8890177747315209 -1.4530216706048846 0.7552206730874671
Ni 1.9890105822079551 3.620735132273621 3.422087920144403 -0.035673027921577276 2.029718309909098 0.3207998838677507
Ni 3.8985233127841137 2.335402776545628 4.269613514120438 0.29947258314488423 0.2809878940771354 -1.6633682482153742
Ni 5.5427528271396875 2.753152886958596 9.906427090256356 0.07222305913146917 -3.3282387920078875 -1.9918073937959377
Ni 3.1623509131792895 3.4413849066115487 5.953052414259627 0.24315102573501995 0.7722436900080248 1.2844999994499813
Ni 9.19998184770805 1.7853997891220168 1.2168079615236322 -0.006576624776253189 1.7941792921933808 0.2707466759651015
Ni 1.162502695253414 1.122617947728 11.488306009631149 -0.31188946875199836 -0.3501222869809519 1.4770491438677336
Ni 4.374330178754272 7.4063109848272415 4.178650436802615 -0.24489577634026855 0.7045838247672059 0.2501968768382078
Ni 3.5947416671766215 1.1672705056081432 10.90828174089731 -0.7172544782563389 0.0040924249018187584 -0.5334262586513524
Ni 5.17950000679315 1.6115573679561739 12.895827322045383 -0.8599165080356609 -2.8843553147133743 2.695709619115086
Ni 2.7247520991481085 4.776755853528072 8.162720819149929 0.24492585824725557 -1.2297249605916305 -1.902764434893652
Ni 8.5028136962704 8.654821606754764 8.867748832412044 0.15423945020427632 1.4397285530404045 -0.9090631449636409
Ni 8.814014017321792 5.671127760168292 11.075469834998321 -0.3227683204480312 0.29080565149850557 -0.5677669409147512
Ni 2.0759364762981014 5.817477993925237 1.631452906646634 -0.7968843713748405 0.6700834769974912 -0.2760351780575504
Ni 9.430710147624913 9.169033231967335 2.283822374778732 -0.9066936162901997 -1.139448129282244 0.4533621062089095
Ni 4.217713697160819 5.77882969230714 5.848599899433266 -0.8101852022488047 0.3052153991659324 1.671859573515837
Ni 3.096781812033705 2.7321052054908637 12.530466923447738 0.24895760511446802 -0.9639659676491076 0.06332729930373611
Ni 1.5594674006032316 1.5360404974653592 9.201604214610683 -0.037476656789219326 0.15131816279242327 -0.13429103210680743
Ni 6.095537817854762 3.386297494634808 2.5177626239502824 -0.19269466885668105 0.2163526745952532 1.4105753285152158
Ni 6.412882900384941 8.769567533759536 7.822764700440416 1.443501132708959 3.1710027210691325 0.9325046638160328
Ni 7.297541213041166 1.282269342003049 3.2859514789430513 3.0304651938319807 3.089361453947557 1.1430425315017216
Ni 8.627198281143574 2.934385882524991 12.518622333676511 0.11244899653105152 0.2076633743513714 -0.46852313022006403
P 3.67153245163255 0.6753373875619512 0.5167847440818135 1.4028715321130547 0.8385362425876721 -0.5352759102655814
P 1.7669467706567594 4.983860543003625 5.818850261542069 -0.626174948539999 1.5725766820530982 0.14996267720579334
P 6.18852417029365 7.490773354117203 5.385188403683959 2.2630063268071092 -0.34740591649105335 -1.051061830127351
P 0.31571522201598895 7.204142711966505 9.767439329856616 1.3663189298000016 -1.4757623067355101 1.2880316667523237
P 1.0195058526693441 8.715978844094694 7.456101350132863 1.5601541400190293 1.8606533646562147 -0.48077340834232685
P 4.052854242851921 0.18047988760466604 3.731334281981658 -3.9255880745654452 -1.5059198041554966 0.15082811052988218
P 1.136546698214212 3.1022146804143396 7.414821854155938 0.9972080175316891 -0.6555469739442129 0.42386872473548287
P 7.917347192141476 4.73089495078396 7.8377078985914945 -1.954304768864789 1.6667852443167228 -1.4776407547051456
Ni 5.5427715611685855 3.498767237128385 11.996397227602504 0.5773728394356316 3.052955404514697 0.283966259979169
Ni 6.691963728889447 5.1812703725240805 5.595973393136669 0.6140668524225553 0.8891170408590171 -0.9203027224332021
Ni 5.571537662542599 0.863958147424564 4.868159180525016 1.2204499630476078 0.12534924953248733 3.644986874403768
Ni 5.25165411909664 6.911292372221427 12.188769476752087 0.05006323520497829 0.34878762732992835 -1.5928205199037988
Ni 7.987271955006017 6.900304864272316 13.53012781930465 -2.396108223701822 3.0449417901816007 -3.300350807348368
Ni 5.207235736577732 0.3303923969567056 9.62298216971989 2.2933754260172696 0.5065965400530179 0.6395071468725309
Ni 8.941068201313037 6.342161941292203 1.5748873797897833 1.887766161712607 -0.24378403133332852 3.8342002695800677
Ni 8.870824959957217 3.482974450766748 9.136840676707743 0.876733836703316 -1.111709782826711 -0.24710692505897444
Ni 8.58389457334414 4.5852566101251675 3.5897968202487998 -0.0950490558870492 -0.520471241152581 0.10192572840222446
Ni 2.1557247053778283 8.479911345941693 10.337949522014233 -0.3489385510854958 0.15589112687508636 0.7477822145315509
Ni 2.6122074205389376 4.920717498600427 12.283283589247668 0.3030045075575427 1.4418530555825748 0.16378724179371146
Ni 2.211608313582765 7.404381379850671 5.790004540545237 -0.2962535619869543 -0.7901262267154006 1.0314939352977526
Ni 6.713938744787667 6.633532292754282 7.39749381412605 0.36608935183316954 -1.305439577816126 1.0642631593089737
Ni 3.3559858358766497 8.486112309507174 12.6659448635333 -0.2781054303230178 0.08941756863288472 0.0667185843734722
Ni 4.724890694521915 8.12015242198477 6.707901703975049 -3.0084292970778637 -0.6635852708676572 -0.7797376843922249
Ni 3.8649894010553725 8.107019867726754 1.859168774716579 -0.12094572114815298 1.3328912462691755 -0.7765618577674045
Ni 1.3296102330301607 2.09125154492282 5.162023967934962 -1.5173347308606577 0.43218161547655254 1.4731480090411144
Ni 2.843853687871838 2.7371540262790734 1.2006592286129196 -0.8943266100844145 -0.6874273675925775 0.6727422547765768
Ni 5.389658342979197 4.168218392810353 7.447903339086775 0.5139846049869728 -0.5638082133773193 0.7534293855149993
Ni 5.844248921221534 6.490479248083515 0.6400462239225077 0.2504925537017557 -0.3392300655484803 1.3217856232743173
Ni 8.227948024268109 7.996732639599881 4.058896903873209 -0.19609083902242358 -0.8720827110845496 0.3308140735706432
Ni 6.113906533189975 8.963633339121568 3.1355162901847367 -2.2345688974020224 -4.994038275372573 1.6679260427893856
Ni 2.5810433634658865 0.4285184302239625 6.248342861268767 0.23252594192100598 -0.004352877652057019 -1.3316889984309581
Ni 8.481943988077205 8.342843823504072 6.401438282130701 -1.334868424600204 2.0230892346283547 -0.6067986008959163
P 7.980218593125643 1.5074055342936374 5.655020242121157 0.3423629547505071 -0.4709227408004921 0.09652178377783377
P 7.450438989898219 7.912167233150975 2.005984549091657 1.280296245781279 -2.89462764317366 -0.8090965971703162
P 5.5330767012134885 1.610039911615376 7.8383523491856115 -0.4163261365015346 0.13555858596532136 0.13538297961940554
P 0.7708462769920543 6.3221914664861485 3.502631130588749 -0.9169582314410014 -0.9724385238964931 -0.5714683010257384
P 9.281053357767341 2.273290103731861 3.4045257047532806 0.6725810466083643 0.5212813957587022 -0.3284088065632602
P 1.2319778414243856 3.3105839168405575 13.388685901119173 -0.5590521867495727 0.4809518429017201 0.27861450874895244
P 7.024277300509718 5.173561319632249 12.54244920833137 -0.23273625815959917 0.16435237026856211 -1.2021745617771875
P 0.6131310446036903 7.910172059073259 13.486572138816527 -0.15382318860246413 -0.5526036029107515 -0.5955945046499806
Ni 6.996738278028573 4.478032395723238 10.154214596888412 1.7860360942609566 0.7122485404013152 0.18078326213107573
Ni 6.88274171217975 1.2582335829259674 11.512750170538224 1.0693796545999326 -0.1005347615919688 -1.570486889403605
Ni 9.040864373256616 1.3526811896189572 7.755518903708395 -0.19293095323720322 0.010288526410201634 -1.3213570203773306
Ni 1.6980336453527503 5.433945587295815 9.996567743705526 -0.6655349383948602 1.6419854116642234 0.9750687624304885
Ni 4.877722902277823 4.818261094553226 9.955905533980816 -2.085087787818338 3.936444300553659 -0.560722375363144
Ni 0.43872847597377496 4.090200529461556 1.6422146695475142 0.5499839058997172 -0.7297299850155304 -0.6220411288772836
Ni 8.921303800824868 3.898251669365082 5.931035246796385 -0.2597199858372946 -1.750782413264985 0.9992921537542274
Ni 9.140061056275437 6.1207444537380145 5.501240092502973 0.3513448465341433 0.6547039092176272 -1.241386713200275
Ni 6.587296709432195 3.0123475437870915 5.016236691746425 -0.37242377869162957 -0.38400505577132577 -0.6501808245362931
Ni 6.881355394041242 7.682113358274467 10.2269981725629 -1.5723740791239889 -0.5723121370832724 0.2960638145736514
Ni 4.767800987714475 3.8252919938189454 0.6037256253950787 0.24091030932995933 1.1461191135445166 -0.2693312836748135
Ni 1.8029254731567868 9.335625583949366 0.7987225119933771 -1.19594092216265 0.059027900597433826 0.1572368422697034
Ni 4.928295413289966 1.2975282085410713 2.244914606860387 -0.9443785324354833 1.7277599842278826 -2.1916085917904127
Ni 8.793771899096706 8.64596977810011 11.1783468179943 0.6630322265776646 0.12376107910976104 0.877043911744567
Ni 0.20196126184140445 6.799675028042744 7.6072090905286425 0.41618549715861225 -2.578914172689881 1.497108376511454
Ni 2.5561271050305643 7.037119477319803 8.458134910749799 -0.46778933737783307 1.5797174068629374 -0.9726123304701958
Ni 6.8391850949901825 0.32040809625512295 1.2309512166407348 0.4997617765193715 2.129859435607074 -3.978794483385096
Ni 3.5225407198008836 2.563630083604509 8.188686183203579 0.3348103392142298 -1.1183247170400674 0.40707299333438274
Ni 4.16245767892399 5.918941494440804 2.434600396265893 1.4936769822324019 -2.407958181061872 0.3969675294692647
Ni 8.63705238034431 0.45557786156530033 13.210529969799396 0.14384010924782323 -1.1606954686967945 -0.16913693614139902
Ni 1.9424658874090397 1.3572616596846987 3.081816133047948 0.34310651778475104 -2.001337958994192 -0.9402231155062131
Ni 1.0692915344677414 3.496041435923618 10.77669766871835 0.9131247166275243 -1.1917387111558444 1.8883868260157413
Ni 7.450261016623681 4.351502764541159 0.881658057928092 0.8084530500490463 2.329841125043471 -0.20496834401771152
Ni 3.3330741185334927 9.370105564137495 8.294702989442985 -0.40423423833400707 0.6022618893678272 0.5306713216140345
P 6.992804131959837 2.5322037501268753 0.2002377311827205 -0.9404786831604448 -2.978023173982181 -0.029148339429182057
P 8.727013187116052 1.594921550294094 10.331958379572415 0.47309995095746904 -0.5093692177021486 -0.2336582557532363
P 4.5062364762302884 6.15747251739399 8.13335429214971 1.2067475258598506 -0.3554668391223168 -0.4280850768096756
P 3.446845876035531 3.4384155630310986 10.417644080949467 -1.80405489943588 -1.2431096094286527 0.12200655831249956
P 4.277915499026915 7.843132336659124 9.692256861781644 -0.2740024638982378 -0.5910194836847886 1.3987084018743008
P 6.760642678832222 8.698115947539748 12.496700709760653 -0.47466395301047926 -0.7715443499481551 -0.43495326468441864
P 3.8251983236744516 6.0012962854796585 0.14214069746339789 -0.4519505705733636 0.0635144756138777 -0.03440495984243107
P 4.8754841858244236 4.638095938634059 4.285598324278287 0.9484074510892183 -1.6943076181067076 -1.9766440557919378
