# total energy = -340853.31806365965 ev
CRYSTAL
PRIMVEC
9.40705031627639 0.00000000000000 0.00000000000000

0.00000000000000 9.40705031627639 0.00000000000000

0.00000000000000 0.00000000000000 13.76816901708739

PRIMCOORD
 96 1
Ni 5.9858378742207 5.517818302251157 6.7376051298047495 -0.15792821190977316 -1.7463171784047795 -1.404509324826794
Ni 1.0336937342392931 0.8066131815861013 7.312329815273404 -2.2765472987163378 0.31627165698009396 -2.007610165156149
Ni 6.833234382151807 0.32232881945866754 4.685307510887917 0.9855377802826123 0.02191145536111065 1.2569801967631578
Ni 3.049502345323021 9.020091390830048 9.27747393426207 0.6383630059657587 0.5115680251256803 1.1036246918257315
Ni 2.666042749483768 0.46072158226191445 12.68410460062333 -0.05480794897881528 -0.7741298512871442 -0.5136555037823283
Ni 2.975826326516431 3.8650465805678267 1.4568510828063053 0.25563141759021785 -3.5098972576550644 -0.9822747932606244
Ni 7.356322827218104 7.210165485006922 3.68980075708063 1.5893582723868112 -0.719742020564883 1.0779460561127048
Ni 6.279685907859802 4.725565923820078 0.5271381802675539 -0.2435724295431547 -0.396566180265788 1.6589107266646528
Ni 0.16216908271306002 0.4400627588577836 13.493673477448072 0.17121284483382126 -1.5924243129066447 0.3460535162282169
Ni 8.752884123950427 5.776803807072942 9.300246521893197 1.932986467002987 0.376235696238552 -0.7829250809812709
Ni 6.237053155404304 8.021739944978952 2.0139798804841362 2.337376257078252 2.3091748549433717 2.731605304570431
Ni 0.6080839676305448 3.2263360789193283 10.074747796201697 -0.4674962316174465 0.558267228954432 1.0669844148948786
Ni 5.324437566984676 0.7050057487038566 3.142212589928034 -0.8773966670982953 0.6304041561299982 -1.3053375050206228
Ni 1.1606042513128 8.210642924250546 8.290144729375692 -2.916495132670713 -2.4716161242321495 1.8085682139252013
Ni 2.9920723025735017 5.65681687910077 13.451749075888403 0.5103351811598437 0.5100281914423862 1.1223765185119379
Ni 7.832592382396712 6.160705534281438 11.189679877071715 -1.3252231882009564 -2.4906607995684267 2.9258886580704706
Ni 6.23646991827892 3.241359138423175 5.652081369924667 0.36076742539962386 -0.19440650934146517 -0.22014273776530477
Ni 2.7107450530293393 1.906037739856187 10.780352774016633 0.33039241265219227 -0.3017485236632545 -1.5526802002394873
Ni 2.6870486930480064 6.63898819824766 6.9706591594679255 0.41787676881810615 -0.528527021577522 0.4584577755642621
Ni 1.9323962951033862 7.7264526326272085 5.011021927788935 -0.013940521340492118 -0.5374155823164035 -0.034209041781541084
Ni 1.130793308565343 1.7686007333745373 1.2477775060468281 0.34635202130524223 0.06875464096689449 0.4382018535287034
Ni 4.432799700978059 8.579756768215432 11.382655168465547 -0.4533384520598257 -0.4654082387401662 -0.0865693005508122
Ni 9.042856452820848 7.214925452514089 6.650094161961023 0.6421448416056942 -2.0803834403641335 -0.09282659431443369
Ni 4.992951924657477 1.300656417808269 12.245698423342645 0.6193358141309786 1.006393540685699 -0.4796709193067674
P 8.077758930167057 1.0790827524647524 6.409854086490092 -0.7780420418573568 -0.0650612512757073 -0.6336802557781086
P 4.9039518207339405 7.482621886015 0.8198338502315025 -4.045186794767401 -1.4597031963901184 -3.7374794824175503
P 9.525108892059848 6.884634505588887 4.259513366091144 -1.3218182762844655 -0.3036071741385481 1.5303190589354678
P 8.495272048488417 7.557153946408847 12.679244918381823 1.4423269098952 1.1687569055486902 1.425498011263319
P 4.2382713055616295 4.710119547047807 5.514206935598979 0.5124036336530982 -1.3968394669863622 1.1671615360371126
P 5.525786073947936 3.8261296130240496 12.471620968090438 0.9370336620346379 -3.499134619821922 -0.8496441795753755
P 6.990689591904706 0.5724152545931409 9.990128555653826 0.048937863351283466 0.7248670004962742 -0.5425799001261623
P 8.14309089526049 3.3001626105324693 4.477986467619715 -0.0009063138643532779 -0.4451823986115946 -0.298882257859053
Ni 5.739486038098766 4.868844708605978 3.706872672163648 0.5316650529858715 -0.1823197533802602 0.2784684700893914
Ni 2.8366207945578097 8.308702017718359 0.687011942680715 -1.6235662857270876 -1.1152627902852923 0.14236789557767093
Ni 6.395891201567387 4.732179080257901 9.62118309789127 0.022235157249116545 0.22065772972851028 0.18532588719643567
Ni 8.820614886898264 0.8009567221749161 3.073633311033269 -0.02679706558818611 0.7478058686806347 -0.2616560265177429
Ni 0.13992705272502357 3.6194379014282383 2.7988759454950465 -0.3753669204803535 0.02805459214437104 0.45895631246723545
Ni 7.504568534620181 2.9641427699079292 2.258447484409062 -1.6645568692068364 -0.2825477823650876 0.11849803093860883
Ni 9.106015389269706 2.9646131224284002 6.656317866511897 0.2188142487618683 0.05169202905765291 -2.411833090636246
Ni 2.211117791684139 0.564478526162712 5.208415710760074 -0.5915025939687942 0.8209177581749604 -0.585200048789534
Ni 4.194142832091033 1.6824321516242355 4.94426009103327 1.2681590961981126 0.623757597347758 0.721649264889925
Ni 1.672140838476328 2.7553062508187693 8.047880256656653 -0.0813450760373954 0.6680263373581463 1.7430791310834561
Ni 0.7020782746164446 5.209276455872537 7.1809678819461595 0.6333508974631479 -0.5924629009995345 0.02048603576849375
Ni 8.892832812891392 0.48420534290399453 11.350974104096696 -0.4154663596044006 1.0291801995629115 -2.709717246248088
Ni 1.315989909975626 7.413687020614758 2.5402958845459063 -0.7560966479345171 -1.7253570312133448 0.2573558564804923
Ni 5.868936458782817 2.4433402380911207 0.5484470308549756 -1.0009384311083989 -0.799296837471075 0.4518600677420863
Ni 1.2713346416821016 8.543097492769917 11.304368754253298 -1.4179767631856095 0.11712634740206279 -3.2509601727303816
Ni 6.826263757798426 7.606503332856673 5.930886589254063 0.3253841608043235 0.05237260006444528 0.9498629525888221
Ni 4.48172577015746 5.628576913771686 1.813268230833594 0.09484928117141729 0.584659860015348 0.13698220578572537
Ni 4.885824434594984 1.3021709529241858 9.411644812841567 0.5411585942986035 -0.5781927642337655 0.953463782566203
Ni 6.248802561365671 8.85203443526573 13.539727574137476 0.29379070226875853 0.4572555277260448 0.13680454255728053
Ni 1.3801083655662438 5.691858141875866 11.615185225420918 -1.2174921659708644 0.34868375476221236 -0.5820566180645459
Ni 2.8533277160849426 3.9808003358557595 11.976627619776918 1.8766746797851357 -0.7438692526303898 -0.7766749863065012
Ni 1.0640408788600872 6.679551399613087 0.2093905943582746 -2.3730551985371 0.14514802942596938 0.5909480070169049
Ni 4.594412827011921 3.2149911761255656 7.503803741421894 1.4169850886963016 1.516055349927602 -3.152980573460099
Ni 7.861688389313053 5.307391991642803 5.270950959766787 1.103293790848874 0.0946937294301595 -0.1654990822784956
P 8.455198013744281 4.248637875112812 8.138530357222004 -1.6860803451009092 -2.5979755601967063 0.05731246056822387
P 3.5337208580975883 2.0331928402403388 13.694909099806418 -0.7264947659076844 2.239427768156221 0.565493314389226
P 7.199083979624623 0.7683565889810654 1.4260110087440574 0.33009570734737986 -0.2304034962613645 -0.1904917476680913
P 8.834697241361168 4.022972142841197 12.378065970358657 0.5095270834362515 -0.05215045675131019 -0.42109990374109413
P 1.5353246973217003 -0.001758177721520898 2.5578089902931267 -0.06296760197147219 2.5551479235082186 0.3469510883418218
P 2.416163269458302 7.569524217697236 12.518266768250596 2.654115340613068 -1.647180582711918 0.732838705847841
P 1.4934727300501838 6.496725374905978 9.544975641819503 0.07280412844591977 -0.41098724078712445 -0.06376644372368373
P 5.283008916981584 8.017139897328745 4.351870846305804 -0.125736457668577 0.3919456507746411 -0.7410994031947367
Ni 7.628073699445476 1.5494634940870609 12.799193277447317 -1.2747087243911726 0.16904540486885725 2.270941779604102
Ni 6.9555730727263345 8.29110142640233 11.428654704262577 -2.2395954040823365 1.043921619538144 -0.47836274201830514
Ni 4.5775647997286475 5.819493001830898 8.510573556684381 -1.226806758503571 0.7061753376240419 1.0788395144612517
Ni 8.486937401825669 7.835339241116263 9.879115953772242 1.311675531423509 2.3284997805242287 -0.9729548014112792
Ni 3.545395007655681 1.25005589365599 7.400707172459838 -1.0903500862040125 0.11421123063779685 0.07029267487797572
Ni 8.536898246550107 1.6867217666109315 8.587207152139694 2.343710941047028 -1.2184856402323854 1.6117343260891661
Ni 5.074266468396518 5.736240605707517 12.556694569173082 0.23169496137927842 3.09394701643571 -0.8212008366330179
Ni 6.711629441509214 2.647360347370656 8.50417111817573 -1.9243141360399696 2.30294481487326 0.06684199732521393
Ni 8.149412433135621 5.7214715365647235 0.021512983581306273 1.2768483964419945 0.47668484009525003 0.15137446995165543
Ni 2.5176089010735043 4.722518039487425 8.754985659011894 0.13166285045534096 0.40480425190486413 0.7967596728715182
Ni 8.077467311604366 8.891139543817697 7.8349281530133705 -1.4859001665004603 0.032829130714878946 0.5771476107987028
Ni 5.724011440175269 0.9907505491202835 7.125316712429061 2.3751511618341805 -0.39151319122291284 -1.1309686310563234
Ni 9.193867833043294 8.914149189119142 5.280835888337007 -0.1423288148096194 1.3207432980527318 -1.0464454144012623
Ni 1.9697516922791993 4.237622219083379 3.7485496682975494 1.276341889119221 -1.1689397109834578 1.8781278672918946
Ni 2.7437543929159998 3.17931023392263 6.205162313811323 -0.8235719079683558 1.143053073024683 -2.612291462598746
Ni 3.5017368867055554 7.962287386391407 2.8470231109005484 2.406378238169262 1.0405131080772274 1.2059335145989876
Ni 4.658107965334115 8.275551572075557 6.454531931704599 -0.7046912968793476 -0.0029958494035303247 0.2538496430994467
Ni 4.371860828425826 0.4052435024723505 1.0177779456515927 1.0636239830630778 0.8949184780321425 0.19322405899758982
Ni 3.368664751613877 6.018282791082795 4.195726038674938 0.5753426963794801 1.1232586640065751 -0.2991655934274267
Ni 0.41000346997951786 3.893982667627208 0.5723541087654797 0.30669866857967826 1.3490621996020828 -0.7503633449951658
Ni 2.7038684991800523 1.7562869043886045 3.033527292317741 1.0106921680610528 0.3235183112401783 0.10682625102763538
Ni 1.3739373404976631 2.488146019191196 12.70317363250827 -1.3697361830116668 -0.25829019536930353 -0.16474292083876146
Ni 7.618196296515584 2.8888487384309185 10.973547249685007 -0.6790442857352047 0.5019564701778452 -0.7408533486222015
Ni 8.858779290409286 8.307723684475778 1.558020147139471 -1.4211379345224104 0.029182277990911033 -0.7039657315672327
P 5.290788547670175 6.746811810040451 10.57651516151504 0.47497274250014976 -0.31286803061518376 -0.1286811421191977
P 2.6351594029896366 8.88637016926012 7.085871068652274 1.7413942871818655 -2.4137683599857462 -2.3008347105087923
P 2.1063985065264577 5.541636953887812 2.139229112455339 -0.13100233405320666 0.8533949048670592 -0.8134741574127216
P 4.93631207414235 3.0920504343248347 2.6283844452847713 -0.37129300752129607 -0.47133977373325275 0.0673544181852582
P 6.359241333172282 6.960351854334322 8.172592346049477 1.5165086354149366 1.6463079502989777 0.005869571406899568
P 4.2764263020222435 3.4054933539667624 9.387220347158545 -0.6486245357927668 1.0720613151971536 4.104739457520053
P 7.613568027714149 5.480001959605281 2.3955928723280193 -0.1186291571998344 -0.9679447497911976 -1.195425158868496
P 0.9990099393797557 0.8971344055608426 9.504952405147579 0.7158995068903412 0.27664812905120095 1.590305723901745
