# total energy = -381169.5342726281 ev
CRYSTAL
PRIMVEC
9.24315860278246 0.00000000000000 0.00000000000000
0.00000000000000 9.24315860278246 0.00000000000000
0.00000000000000 0.00000000000000 13.52829692795966
PRIMCOORD
 96 1
Ni 2.7754616612002834 5.011649731458328 9.14627809083346 -0.5640470688610028 -0.3272705791937589 -0.4108437732307247
Ni 3.642885861909442 2.9817227410534977 4.94994980045962 -0.972144903915474 0.3520087053703873 0.24384445225761875
Ni 8.27424432702671 6.083662000349025 11.838071606449011 -1.7507860128094106 0.9031928022257928 -0.03390050940218678
Ni 5.151905417126831 0.6786289929818975 13.109285030801622 0.09207711774291884 -0.5177880378934631 -0.4305847033030778
Ni 6.463638999304248 -0.17033477175671077 6.357338980359864 0.4287643622648874 -0.9790295468504493 2.1267761686960593
Ni 7.486828905488932 5.482893676524714 2.0229132818055637 -0.413181677335282 1.6508837425951182 0.9117062390134428
Ni -0.6390035728908946 3.6218669196918216 11.529274321754762 1.0816566721950727 -0.7739689002292477 -0.37375483879822724
Ni 1.9011235780026545 0.1436451518563677 6.020944397609701 -0.9629100155807673 0.6124655693737064 -1.0989144308342558
Ni 5.514098579306898 5.620348685195884 8.567240432424112 -0.7488926739869103 -0.25756668693971774 -0.7060740361594872
Ni 4.834717193230668 1.7840035178269846 10.627802947053253 0.9564879141045076 -1.2201319175865566 -0.4735324105091974
Ni 0.3636240031014777 1.687625105116724 12.9140575091389 -0.38013066041758403 -0.13272445895063592 1.2435474682970196
Ni 5.467300468292029 5.149613113841885 3.6325908320756755 -0.5396784102086511 0.24600212203056987 -0.27940897962578976
Ni 0.5007397878591087 3.3012494840266435 9.03368255669804 -0.08580002648495547 0.0017573490107389087 -0.06537749696454548
Ni 4.400288748099542 4.033132009854891 10.622215457796193 0.11122000921995683 1.3185714872123937 -0.8608439049459367
Ni 5.892245432897526 2.372127200950458 6.102762987197184 -1.3356423266517514 -0.3877681223581838 0.20524859426229164
Ni 0.8567465041173404 8.913417974032292 1.0282366706749317 0.5075632748416613 -0.12563824152781589 -1.4754830849321945
Ni 0.6751618842634148 6.573170426427733 5.972445545447935 -0.09343774553587134 -0.35958240395258717 -0.6620271823519178
Ni 6.152320180996557 5.522093911328993 13.061475718257022 -0.43789383536998133 3.3620112604726424 0.13032716236305297
Ni 8.911587828667697 6.673680530945943 0.4984558034167278 -0.3054933354176674 0.48809745280756583 0.7960539050537452
Ni 7.511988782672909 3.445137730949117 3.2558276792985827 0.7150093909759041 -0.20325804619482413 -0.01746910331904088
Ni 3.572166456937139 5.024534694277749 12.7411660797668 0.21179256602839655 -0.5167408275758714 0.3612212251075908
Ni 5.7342706125627165 3.4029611991377693 12.49146123108463 -0.7697371215360872 -0.046286541771365444 -0.8360165614896119
Ni 3.3249489421823077 0.36271632494590583 9.250649062618292 -0.5863231066503838 -0.6556287350247418 0.9629025593815997
Ni 2.70993691125274 1.1323885796055173 0.31717343484271265 -0.13766920455042095 -0.674737687940051 0.6434355353926596
P 6.345973592782562 0.013115117463756468 4.391961586690635 -1.2647811808648153 0.5220221305794688 -3.142081152938776
Ni 1.4032408504071636 1.1309928626860535 8.206102838934129 -0.6301524451305083 0.7273447726128054 -1.0980423126419478
P 1.778587027000456 3.853324849362641 11.102470557993609 1.8062907307449343 -0.8065542903644366 0.668361609210378
Ni 3.164672575404144 4.520958181103517 2.6373143399644263 0.7841718089041786 -0.6007104857203074 0.7069317561740922
P 4.450590016150683 6.2193700520812625 1.677549138137204 -0.4180459474061187 -0.16390062744312417 0.11243074169860638
P 7.059933634459548 2.0355745601915345 9.66928279866346 0.4141165304447255 -0.6550628352189428 0.8941682301296795
P 1.334028080255209 8.529771441189473 3.8133565080947367 1.3821556397219423 -1.6403316781108848 1.4673393727791373
Ni 4.564659834052027 7.930722344828872 3.467519114715936 1.425697271758319 -0.2565837542011581 -1.55133782727898
Ni 2.19353089420953 6.010317538389121 1.0722174670073343 0.011085568390200263 0.4489917450553557 0.14995573522725786
Ni 7.173263999688331 1.0473237927854802 2.519712711235749 1.6675303500128635 -3.2213649755717686 4.083857986085354
Ni 2.634143012314969 1.906151856176087 2.6841087537159334 0.24332560363967126 0.1485961358755699 0.2121491780368669
Ni 3.247389599988791 2.575199391153242 12.206270972961976 -0.17051041945015796 0.7143833273561309 -1.0535817683357276
Ni 7.87204677526095 4.298151847701693 0.060052800170572816 1.6726051934326098 -1.4540670811502634 0.9659894258370395
Ni 1.1117208774073644 2.60160709472217 4.583075902862224 0.13775687916822082 -0.20959427282549709 -0.08944585076765886
Ni -0.001795945678488887 7.740849384831349 10.212660351938426 1.4373333133353505 -3.031344768223457 -2.156892785575782
Ni 4.289241442997301 8.530289058060267 11.087047423875612 -0.8156919909996468 0.7403221587090798 0.06022989132533498
Ni 1.8938029965442749 3.753572683833809 6.9932368520259915 -0.7627030975074413 -0.24083883266207556 -0.3725435920989455
Ni 3.6608638050111457 7.077865361769216 9.12801545845282 0.7057935288045909 1.2968878315913728 0.1270898863726779
Ni 6.360134111462155 8.888221124214686 10.261483638960282 0.29617154379610927 0.303580948886303 -0.22004143630075007
Ni 7.598125775868163 -0.33059450084974223 0.5019035015025557 2.460524899414995 2.706289708623778 -0.8958463891630507
Ni 0.43879306453093225 4.555435161961796 2.399933394386372 1.1028700730478942 -1.0515806787452988 -1.0468853301521583
Ni 5.593589741607488 4.217015403204649 1.273221038358621 -1.1638507264963247 1.3813280016143241 2.161445695053787
Ni 8.682847387568549 0.5409068570327644 9.360350563856468 -0.5512103221076508 1.629513504449458 0.029034182448820965
Ni 6.062033009676539 7.816430691125758 1.4178598297437461 -2.171370410366667 -1.9897361130892055 1.0003360216377095
Ni 7.201409417037783 6.5937456970418165 9.798477196666251 0.1561819186426278 0.6320743447435695 -0.34109231556819963
Ni 5.836657078237556 3.178389422480199 8.408418014463377 -0.8597941235251837 0.9849528543134198 -1.024192516540333
Ni 4.821804500936025 0.6659723361751304 2.095668030259098 -0.48106522855113276 0.281970826815695 -0.5310389893660983
Ni 8.538949897487669 8.420609740402268 4.922135288181138 1.68600989687429 1.5618068451311038 1.058374047518048
Ni 1.3119831474544061 1.7795575586331958 10.760529155883379 -0.061969756834577144 -1.04158217277169 -0.7273727976372635
Ni 3.0845159056982476 7.4828081315818675 4.976776219104386 -1.9684394084939585 1.980342073468815 0.6606053623037268
Ni 0.9075302650373281 5.168580074893141 12.709821605292667 1.4620876374618947 -0.9465878813819762 0.4027180587997967
Ni 5.629702761503814 0.8895634137257137 8.212853117518796 -0.8535134327227946 0.022883846576708975 0.6002425449449534
P 5.734603366265369 7.851989121517661 8.31252948914869 0.4155956860934133 -0.3124276006436555 -0.022472212960587105
Ni 8.248529860338309 8.932181585598594 11.634091738090657 -0.09056659463566338 0.7459194502911993 2.5987057534945115
P 1.5431360528977929 8.829138855676854 10.96649722761509 1.7950555241507475 1.0745725116547817 0.09319837583155562
Ni 6.358729151384284 4.630286258742048 5.815882155401881 -0.9965225614288902 0.3255520538407554 0.4943424052760131
P 0.3424747323503175 6.270466231755409 8.107264821771755 3.0985019827962446 0.38670111454625017 1.4378220800463108
P 4.44443407265159 2.6516680406547266 0.5241674971576055 -1.837100259926623 -1.4538446807268124 0.607612097936147
P 8.878395646827997 0.45949958799439494 7.010078810959469 0.40286898255536424 -0.013477722771460659 -0.9045071501618422
Ni 7.439910633414771 6.679753286019372 6.0631116862626415 0.311620788471644 -0.7760468658041989 0.47242529348794765
Ni 9.816881249370521 5.240898546269864 10.31275543864416 -1.2871518352505318 2.6793915986813532 -2.285904057340889
Ni 8.182755545113775 7.842653531526545 7.990515412248207 -0.9264492016505721 0.905844123805711 -0.5706311498364236
Ni 8.424390192190751 3.7951484103486983 5.503229549336054 1.1978371107440984 1.351636902307795 -0.4344516424576517
Ni 1.8384549640028878 6.20392473438309 3.734391281507509 -1.8328144880670756 -0.7801421189194951 -1.1656679822107214
Ni 1.6862386313556672 7.985155304687961 7.894626886933519 -0.940964878768244 -0.35353259821408145 1.1417189275942918
Ni 2.964724572742941 2.660023855854696 8.991811973429964 0.921230119343478 1.1979859776171369 1.6492572627352888
Ni 5.361438575056139 2.5585062470701176 3.2926117524952603 -0.6795932162601392 0.36439319507766926 0.5066682738312177
Ni 5.2382180303318195 6.353442064775454 11.167554409285136 -0.5459079360581308 0.23534644208893662 -0.6189038687998825
Ni 8.71528163041887 7.958026634763283 2.5780601486802217 -0.772389985777902 -2.081546864544615 -0.2752350507537582
Ni 6.595464924505527 2.2175446197510333 1.0005497139824686 0.1892902711608224 1.0813275709904282 -3.285001321475491
Ni 2.035260292805695 3.4681162227490314 0.7028285060073826 -0.1507185815352114 -0.041110653997380814 0.18033563307069586
Ni 5.078108040404982 6.957149712973206 5.763460506812165 1.4101223001381975 -0.9787737220859015 0.2913340131981499
Ni 2.9402209598058646 6.216421484549416 6.837066296212238 -0.6309325178296424 -0.604322628551598 1.5486890768022232
Ni 1.4494566424423898 7.639276317096329 12.774148441910658 -1.3488590824523414 0.817131808769967 0.5280973902392712
Ni 6.982069268038599 4.316795298208702 10.017595509863666 0.06952648613591252 -0.20627626419585762 1.34322605253628
Ni 8.112646188596337 2.479652862699615 7.404537066191009 -0.33404826423722467 -0.6497743331264939 0.8107624149085134
Ni 0.3272872987717015 0.7434882355241338 2.836301978467137 -0.42572197589413774 4.25713259854421 0.9434652765925945
Ni 8.10353243440699 5.013905062109646 7.915176276704063 -2.1447592355370415 -1.8062740185743862 -0.5078368402180221
Ni 3.180626266814704 8.32901004058845 1.324991044280641 -0.251189065548148 -0.09756488033036746 1.9339663144177532
Ni 3.734633452257773 7.451131827720923 12.973406904954695 2.177740575559069 -0.7744057306563502 0.641322859925031
Ni 6.902670537322081 7.202916051858131 3.887666880108177 -0.6036361440075345 -1.2263136209172365 -0.9250595203918972
Ni 7.789246562250638 1.5527027218490848 5.128292844660193 1.1402613692121588 -0.10698283121015768 -0.8427795912450583
Ni 3.8920998988801956 8.542795051385 7.1991374487013315 0.6965378145342778 0.8008209874250853 -0.9969681336067411
Ni 2.5970687039443106 6.587035164038301 11.235710686431167 0.09092012132034019 -1.0051987490466494 -2.3334715227072067
P 8.811992796831785 5.610125751997691 4.008799395348345 -0.7650374020675728 0.30817293913235955 1.0525582121672197
Ni 3.8165925378530434 0.7319620169905484 4.5902596855761795 0.7592549910578408 -0.7953034000409657 -0.26116417448298895
P 6.6060760703568135 7.75827273842863 12.587187076811354 -0.7528061501087036 -0.7324471268363774 -1.0838742486716817
Ni 7.192998142887372 1.8420413094648214 11.908769752156978 0.2691585055423752 -1.3205324675935064 -0.3517788487477683
P 3.4958179684949457 1.8275942528746099 7.2047646835395405 0.6177586994518458 -0.8726349840435939 -2.0946180959062763
P 8.838640822519297 2.5627211273037305 1.3575103241883075 0.2802335324096142 0.2991928471209363 0.25109753427560627
P 3.788946251057571 5.14161778181979 5.152996109818863 -0.06263130167797601 1.0374383258066455 -2.0931649083995176
Ni 4.208511697470168 4.264793289010666 6.97230849276076 0.8368729959526361 -1.4099482364541782 1.5151888881622486
