# total energy = -381173.1597067982 ev
CRYSTAL
PRIMVEC
9.11664153413958 0.00000000000000 0.00000000000000

0.00000000000000 9.11664153413958 0.00000000000000

0.00000000000000 0.00000000000000 13.34312640946225

PRIMCOORD
 96 1
Ni 6.802938291031983 0.30433082028729214 6.26410465560116 0.32057311256892534 0.67492769246367 -0.5622429257727285
Ni 6.423084299554856 7.10821815371626 6.241701420381654 -0.28294321803129335 -0.9640639266795525 1.0865762209838772
Ni 2.566918092839866 4.807414830981932 5.252574973338608 0.08682435398441177 -0.5408500619192491 1.4996182874175013
Ni 7.921696089191325 2.272167951274873 4.861701697084962 0.5520960671467137 -1.086310111806684 0.39842483074108154
Ni 5.876596331784854 2.076579521064383 3.8379639199732045 -0.7468697300196105 0.4194873078383356 -0.6056459753487119
Ni 7.131903188753403 3.664060333619276 9.126671790873864 0.25360487407849225 0.37667201244502224 0.8056006682019158
Ni 4.445411223878448 6.164135209795428 4.7561309866422725 -0.35159655753363317 0.8002406894415831 -0.4776670015028613
Ni 1.2365630417120577 5.457969263320442 9.961551042649813 -1.1490666262086144 -0.2626857533338379 -0.7999157020019966
Ni 7.966431449825374 6.208068305963246 12.06235986225854 -0.9664116009761228 2.054457464526991 0.9253266580103546
Ni 1.7104734252131257 5.505503432944637 7.453270277313947 0.7386373148074893 0.6116556718779014 0.2713889375347907
Ni 1.3546417845146244 2.610121857674746 1.8333456982014238 -0.3354297179657836 -0.5232256639692666 0.6104433967373551
Ni 2.226420643416374 5.955956697450106 3.413759290140153 -1.683958670772216 2.7174531814397653 -2.1078986150652663
Ni 5.133790602471424 2.596519828315463 10.556241429877813 0.3331758889346004 0.7757658442286705 -0.16294623394965485
Ni 5.288490894829111 6.724380189832962 12.156388904357497 -1.7307108393260904 0.3418263655207468 -0.547391976802825
Ni 4.804515738933506 0.6645038057451034 2.1378761729411075 0.01380219599041494 -0.04862367454497432 1.301578809309139
Ni 7.87405251986719 7.593597272427769 1.5460949060673597 1.3804733669235127 1.084191265691468 -0.3944010542936691
Ni 2.959198066901915 6.141133922882915 11.230442607358485 0.9287804208869102 -0.33965172646693115 2.1880787242602833
Ni 3.7084492618701788 2.5599712118936373 1.4189478398038822 1.4046926444821937 0.39687831218956804 0.04220337284092732
Ni 2.6517849100687956 2.6399059259835775 5.941520495378776 0.8225635213084995 0.3723065363874749 0.6333375277267093
Ni 1.3586348735624567 2.6848236194508606 10.713863605888081 0.15303000327720742 2.520434945507066 -3.3865005038632576
Ni 7.685319804186311 6.023574828655065 9.566981879866505 0.10509101350408352 0.39164483170477066 0.4592725581560736
Ni 3.4936247177534643 2.125107404629706 4.006701105497438 0.43895518675496015 -0.30359149040926425 -1.2859621858178047
Ni 7.201362881574029 0.2561466341126159 12.988519488672436 3.016520815836747 -2.972212995058307 -0.8962060864953145
Ni 6.917944725594551 1.325887896713567 8.941923047599156 -0.9361435461202007 -0.40481890719288344 0.27168872816339656
P 1.4382140386275901 4.372733356551235 12.02992285122615 1.8276239450050717 1.708276164471658 1.3847645380996991
Ni 0.8949041321408625 0.8135754835408456 5.301971672854292 -0.09167936808386791 -0.9283412764669624 0.13146127596749618
P 3.916253991907371 4.56516742874677 6.998763753925679 -0.5296511078796363 0.6590770985846585 0.13029579490448526
Ni 8.716849574926337 2.922631217196765 13.497506150966965 -0.2819433160118693 0.04319350466833852 -0.22115266708705783
P 9.075698824014868 2.992501158892169 8.417138156969038 -0.14561571309100727 0.6036921940564507 0.5368748793215851
P -0.14336830677217163 1.1315119798440851 3.284024009308914 2.250549331990679 0.22982654071197195 -0.4407732138003055
P 3.1917180124840234 2.6621596482798306 9.366421233293714 0.05499229707547948 -1.472713235496541 0.04781351993885314
Ni 0.3423025444725123 5.565317718887167 5.220338528422774 1.19857218913791 1.9551833148150006 -0.8838161974713941
Ni 2.1343425626330257 0.4884277236831874 2.811850346044403 -0.6829065969040884 0.1482472371765834 1.7350115235839731
Ni 5.744322977914992 7.316387549419921 2.435013962957304 -2.104574178677724 1.5412842996977199 0.07379734559712452
Ni 6.103391026403404 5.214700797219168 3.410717066817638 -2.0805220228245265 -2.426764515135098 -0.8406291205609587
Ni 3.690106578846803 7.037865030012785 6.827865012663452 0.4430242146180112 0.2688653997819886 0.09581627307037692
Ni 0.46955536377926566 3.7204102957303524 6.366179133966581 -0.4170645573294559 -2.0412779897222397 1.3596903687398905
Ni 6.278275563400133 2.1936007334341903 12.902256001940932 -1.2453228150298876 2.285748505599631 0.6101973421648201
Ni 5.018118653067551 2.805072122968916 8.009478408423673 -1.527136547442428 0.6501188609501062 1.260069891432075
Ni 5.0761004940360746 8.564218760225861 4.602124470715043 -0.20049256763454504 0.12464322460439824 -0.5181986430683204
Ni 5.13642531191166 3.901503265698712 5.271656104336583 -1.0422964252298952 0.16028308529519492 -0.5964653372907083
Ni 3.9810733141221837 8.344544162745114 10.808266430295166 2.2147495486832502 -0.4365902860672094 0.3873842566562038
Ni 2.2120345828741836 2.5399146002378585 13.010335612168927 -0.9549930747265358 2.398358196078263 0.39300520238740705
Ni 1.9014944179510955 7.359308698363288 5.238137859603111 0.7990577248770754 0.28914086220157303 0.5614654241767556
Ni 7.3571389376477985 1.1238540008482423 1.805284675166657 -3.20212643905713 2.938404274038978 -1.8165206360030586
Ni 2.8521322272267025 7.236616934879891 9.125644345358587 -1.0871572902983275 0.07694463297685458 -0.4172964708346039
Ni 8.629065432365659 4.249968659934545 11.383928563046831 -1.2618925464631106 -0.9830504950843844 -1.0373971881560649
Ni 6.850025745214755 2.8760907615136966 6.626530363213581 1.4594496856184154 -0.4902808336121298 1.7085834112994316
Ni 4.734344948063265 5.160766745148446 1.4873445322067524 1.5374281591764232 0.012124808287992022 -2.1377064424553183
Ni 6.098960338555809 4.899419978631986 7.295328107181353 -1.25720054030408 1.0567537383058059 0.4821510054161438
Ni 5.234082777391979 6.688032139527694 8.673539145384016 0.3078039858287151 -0.3978615020384438 1.2832946662879705
Ni 0.12567746362760854 0.682898453625951 9.354652560572603 0.595331223686265 0.8033283272279713 0.6313392663497579
Ni 9.009165573167651 8.207211072752997 10.85171178613408 0.08940419889644603 -1.2760868356856219 -0.6428377539076606
Ni 1.7728039042542891 8.632958238355213 7.316756773407221 -1.2817144662850442 -1.0731491489446938 0.9261311561895212
Ni 8.740197294221996 1.2379943544529473 7.288322879728489 -1.248094978458386 -0.12251357985590515 -2.6321025837874026
Ni 8.075366201041238 1.9504052004662105 11.213323377646113 -0.8772804532354054 -0.43434751277961975 -0.5814513803803792
P 5.787152960441742 0.6849086731123597 11.414991696180802 -0.23761466929782304 -0.1071617799901832 -1.5096327342307099
Ni 3.3474576019911453 7.223534554095327 0.7627173863667875 1.396987305418136 -0.3600650000159606 -0.05160923953585951
P 6.353487857109303 6.60499776727277 0.5352799685110866 -1.3243469562435903 0.6945112710225523 -0.9223516345424309
Ni 1.9714008262131462 7.941087186005799 12.10551166223595 0.9096359867479754 0.39624196415714985 0.23150341419376258
P 0.7354568044699195 4.546186580807075 2.4937907750787307 0.6322764334520466 -0.12200270165775765 0.2681282645056479
P 5.7634679254045995 5.373421528549672 10.470792059246701 0.6920144727426276 -0.3799964488325649 -0.4522115375442341
P 5.467487037215275 8.541573022338154 7.74563185876357 0.7221920247672724 0.7522366507584787 -0.6618898854431052
Ni 0.48373082989907046 5.520974373844572 0.5255351902388767 -1.619693947255875 -0.42798994599270807 -1.7232255866926387
Ni 5.0218929427155015 9.011143884408245 13.385157217448786 -0.891468057589697 -1.7034103517389243 0.10847818480876156
Ni 0.9184925307763908 2.8310910182714584 4.253428425445167 1.3619429122194933 1.8824779167304742 -1.6338247302303022
Ni 2.2617567464971917 0.4245182423062144 0.5992569130363564 2.6268698746335537 -0.4555128340033252 -1.058701606060796
Ni 7.730966828986531 3.377433119774873 2.818722470529006 0.9543886083733176 -0.2660716390869353 -0.06048057388356035
Ni 1.0596363769831032 1.039461248985722 11.927354250882663 -2.6320750729835765 -3.2411853527318053 2.694470604501663
Ni 8.33809869709028 5.498410685731821 7.3572802455935555 0.5398750996004896 0.6540238524314671 0.23393593489465517
Ni 9.438185613126423 7.935316351833932 3.637643041076117 -0.5181140537743142 0.43071788644683245 -0.11457735572796397
Ni 2.4853879664591254 4.770474198968652 1.0030120039580088 0.7637302532203749 -0.4763092019233861 0.11589016100211653
Ni 3.8738160249720752 4.087382472539472 12.46935227263427 -0.2560052559898688 0.0906342146488052 -0.5235275114804016
Ni 7.386412474023574 4.964758949421517 1.0748338186331865 0.33537546768908044 -1.1616382922260382 0.02505205787262137
Ni 2.294266690662877 0.5441221992587866 10.215110373858833 0.39261182360373026 0.21626577130840172 -1.7495909640600449
Ni 3.7678715322212546 1.263894733413887 12.072140195433231 -0.45170040223577046 0.13289003799422275 -0.4718097713911358
Ni 7.422231759112463 4.741911760642491 5.179067491620178 -0.5972536375199585 -0.6786015417708313 1.2270720963498156
Ni 1.7779730400764833 1.8122242627995562 7.733809397856654 0.5620997153266448 0.5450617860077517 2.014027124426086
Ni 7.203231793114682 0.132494888262241 3.613972592665633 -1.1365412400480943 -3.3757545782006635 3.0894576132057887
Ni 3.1139621757512335 0.28073786333093304 5.606461122706499 0.6813559645875169 -0.07906090798890901 -0.15513445121471992
Ni 3.5747354786177663 4.331161470573802 3.143119930777905 1.102419615774037 -2.2417348190228426 1.0443497082144984
Ni 8.236986024420167 5.760505016864541 3.161040513292343 2.2546674679241105 0.6521965694147412 -0.7945266697759412
Ni 6.730980638396046 8.01046482905147 10.784021633459995 -0.8220914667680874 0.3758415461239269 -1.0206544214800874
Ni 8.785889902230526 7.942354399196778 6.003099763147015 -0.2568403502966545 -0.5391865581738973 0.18726295631814846
Ni 1.1854916151231154 7.426088098535369 1.428835749350181 0.2794393186430929 1.1207212422967021 0.599438046765787
Ni 3.798111432613172 0.48383475961401395 8.387756132557488 0.05110530331624747 0.5032466497441784 -0.25012411461874345
Ni 5.002720645300909 1.6576424867834718 6.057045666851896 -1.4033327880201893 -1.008934819050314 -0.8993389756973414
Ni 6.130421868930396 4.519930652821328 12.418728473150917 0.957658280263525 -0.5619259087529419 -0.17417938366131291
P 6.905701075842865 6.969891349783018 4.232812963655525 0.3017696067091771 1.9617820510784405 1.003296132707298
Ni 3.8147948868541155 4.7576106175839685 9.687496589321084 0.22727780614818924 -0.8228576555101507 -1.5966424647530502
P 6.043312357852685 3.2401456129910673 1.436627742978451 -0.8638587805128606 -0.36987118747310493 0.4244850181632432
Ni 7.688410345709633 8.282550999445434 8.193493262044612 -0.006648615664769195 -1.1207924618542697 0.5701017596955149
P 0.5175718037473663 7.366839044375867 8.753370841423179 0.35987062461696734 -0.8095280282807801 -0.08266045241470925
P 9.152196564198341 7.956503427055764 12.925740470861516 -0.6001684971739083 -0.3536171875080878 1.3915555928796033
P 3.599450694162683 8.079331940164085 2.8009887791686325 0.06314732208244608 -1.160152194598815 0.5480506934327464
Ni 0.07235240321988973 0.6138872995750808 0.9153509360597628 1.8250312445772312 -0.5479123680826692 -0.10942152255863734
