# total energy = -340889.95940212486 ev
CRYSTAL
PRIMVEC
9.08032369948911 0.00000000000000 0.00000000000000

0.00000000000000 9.08032369948911 0.00000000000000

0.00000000000000 0.00000000000000 13.28997158738830

PRIMCOORD
 96 1
Ni 6.61405330167035 1.7829760405807618 11.420444794747132 -0.9211817826040458 0.8010485300548591 0.8537438035660458
Ni 4.678736670362422 0.284421163213261 6.088335248563341 -0.5909174108892856 0.4637601616137819 0.2891832854037342
Ni 2.741159038453013 1.7286303032318862 4.668487709001408 0.03549587891376468 -0.5034428249153845 0.3355621297785898
Ni 3.256394765879899 4.25941640218636 5.107495935025396 1.0938488433858904 0.19738178991970523 -0.4696227910421461
Ni 5.0739940807315485 4.683249591241687 2.759370535667199 -0.15915565655897107 -0.6390199228234673 0.10262789667557164
Ni 7.13542732791893 6.144073907567909 2.780567643314186 0.8904828108582923 -0.46636623177806136 -1.0206500506047131
Ni 5.010913071982569 4.9440637288977864 11.33497715594637 0.36222549800238907 -0.8380996692708857 0.12813375425615997
Ni 5.695878210023521 8.088834075524597 12.505504431592588 0.40563214712279816 -0.562436015620141 0.6009130886494167
Ni 1.8204051348751753 6.330583756380927 0.22674657919569718 1.2009046939258288 0.4078895756984072 -0.07491166170722582
Ni 2.7552789418076493 1.5758629372907855 0.33613814685077514 -0.20333517928966274 0.5878346581989038 0.5162350915840465
Ni 0.48098747052483815 9.126179335419822 4.717062900638469 0.015875790689992012 0.1436742730939203 0.5421921777694404
Ni 8.788009920157194 2.5910885286510292 1.2469954056271855 -0.3438238555667498 -0.7696160225771908 0.5244852474079806
Ni 6.739870266867681 0.8700203189971124 4.557769506053653 0.31566461952371444 -1.2557072435880052 1.3583672790530927
Ni 0.9331485454293352 7.503997666931607 2.1104343060060082 -1.8429099246298648 0.42384404214513455 1.209375193290685
Ni 7.442959731015292 3.9429398802447775 3.83391788176432 1.0602820631740386 -0.7660635293392419 -0.06811366494878592
Ni 7.951203609192615 3.6990423856431396 12.454311382632607 -0.6856281096003095 0.7114070183366263 -0.41691440490483683
Ni 7.942876952359045 8.619506353242725 6.936899670687996 -1.3330637672912977 1.3061360896625185 -0.25673904883209975
Ni 7.039076013130473 0.5679942241928738 0.634491250718068 -0.686080880867012 0.8410209566827386 -1.7772568054064297
Ni 1.7244987559480534 6.544016764966612 9.368898204005106 0.009013002131887703 0.022141826204361868 0.4098736960079715
Ni 0.12470099341451069 5.116190344968845 1.5124123593671863 -1.3041648248687605 -0.8268891452670469 -0.432730546001487
Ni 6.604528042108284 1.8481546041046097 6.860229957520872 -0.2885471944816321 -0.5677319739117577 0.38359136527267484
Ni 3.696454493388431 4.3248128934790255 0.7447935748403294 -0.8422437733462462 -0.22280280109597114 -0.6179096232074132
Ni 6.0355004770782665 5.7118414190894065 4.907175821895936 -1.15081291947576 0.17562588629985237 0.4087123287100187
Ni 5.64767985182004 2.991067707344535 8.759805526710352 -0.47525787784073625 0.18209992405997028 1.4009092661803615
P 0.095841908628847 5.638590447795608 12.469648049363142 -0.5692604947411423 0.16868133666121918 0.48578525973462144
P 3.9490963397138734 6.191264349840608 12.71589825583564 0.40388199720091084 0.1731260026961341 0.07806846216865264
P 2.4047239650172236 8.501898000670856 0.9833899764654807 -0.025065941829692313 0.6370026352831223 1.257086640434035
P 6.076734227003287 7.699714963977167 6.033979522858394 1.380287733275268 -0.43664042257885444 -0.023825641664687997
P 4.817447695214792 1.1981305516640712 12.697876537386799 1.0123356172017468 0.6420761931512878 -0.12904598165778422
P 3.7964833392756856 6.1654580698831305 8.693116905355073 0.617217482236395 0.4591802555525834 -1.3559432429926326
P 4.646238191837506 0.9010841063773135 3.913191831768813 0.011471490974709276 0.14661073001442493 -1.5330698822077276
P 0.20723477962756615 5.9134881675115425 3.642489221602616 -0.9175156466063682 -0.3851965049762657 -0.1969318468664802
Ni 1.4212522656384363 0.8750989440429313 2.7504127963364278 -0.5179255919125919 1.4287743680217457 -1.6613381051592226
Ni 1.6823751343003615 6.202142577634085 5.146687520150121 1.2585897073421226 1.2538599059666213 -0.7267606179745612
Ni 6.031832026303171 5.91220784186974 9.146663637656301 0.06992680689812474 -1.0917397674626874 1.2400312276136451
Ni 8.519940603864208 2.353492778697699 10.256681452225587 0.9986624905900284 0.5223448040262101 -0.8454360550312988
Ni 2.2624806942452707 4.90338387871851 7.221385304199532 0.3775654707935691 1.2756304648744934 0.6632913937763222
Ni 0.6756051403702384 9.052937444449725 8.862550297416496 0.29237479575783837 0.12197056286824154 1.227654708326163
Ni 1.4496373575269221 1.1531193870795469 11.55988315352793 -0.03226940155666701 -0.13942089713420502 -0.002889662842969217
Ni 4.006266057733677 6.7212465229574825 1.5033347597635656 0.3746125588128323 0.5321170529216255 0.19537864344674738
Ni 5.34525059064349 8.020640844532107 8.364229396979331 -0.7632373727443565 -0.10259421522415878 -1.425077635896449
Ni 5.259486933290083 2.8369019715535218 4.955537625926031 -1.0297586977742008 0.07265937533793938 -0.6071194745704447
Ni 0.6706681683741509 7.333196778120855 7.118175620919912 0.30105663980255243 -0.8282744556503477 -0.7269858466114899
Ni 5.102397333267436 4.860824401533184 7.233000854277507 -0.807100392675894 -0.6487906290569858 -0.8441397048173785
Ni 8.165272240437352 7.3032407902321435 9.175010592185243 0.3441843242299621 -0.6860957932653474 0.1305477630142913
Ni 4.974591777179644 0.38281555083438357 10.447499006602232 -2.126842760267937 0.2382582164190929 0.7000288584066718
Ni 7.956333992083529 7.461855884636514 4.637203269755279 -0.5394557526748838 -0.7585165702299195 1.0627500650985569
Ni 7.284925777327768 5.921551494957791 7.023537763213781 0.46276977267605457 1.0293090118312918 0.07843895813419394
Ni 2.188839269032341 5.569298497635329 2.542796643113431 1.2534300175180544 -0.9071055070166378 1.1733859196802696
Ni 2.519472015623363 5.261212194793223 11.429801160288365 -0.40378609505299495 -0.243019128142846 -0.5304851737451574
Ni 1.1400528012741948 3.7648020898838346 3.873587999948074 -0.514744880191765 -0.8222321061110097 -0.8742252113488492
Ni 3.8118744879484243 2.4734256941369557 2.4309878932892186 -0.36029768485205693 0.07690298110564174 0.6361983942142722
Ni 1.2050043567055244 3.1370157501863862 8.470921384398183 -0.43053456679143276 -0.37612462458198453 0.3116634687841213
Ni 3.5776475380880655 2.697927617313832 7.206487217103742 0.18806796871794706 -0.47728827800720386 -0.14421189076494517
Ni 3.9632525643633136 6.956027372563586 6.221128626459943 0.48049392942869507 -1.2055290800717173 -1.10182234850967
Ni 0.7933914672866423 7.576068196144311 11.581784894294092 0.5374088974481842 -0.5387530701809043 -0.2136177921625934
P 0.2394109066611069 5.43243985881791 8.033947150883158 -0.3565281905072957 -0.18508908859528125 1.001927020273913
P 8.45662350669901 1.520009866207588 8.115136141156135 0.5945485798839696 0.6128139538520607 -0.7819094952325631
P 1.9345720447644679 3.08228863924208 10.655155113249512 0.3621969587572988 1.0367508128213176 -0.990889531512829
P 3.842193688785166 6.085723747467011 4.007352064448284 0.18805125654739874 0.38019956598230653 -0.40980119089882333
P 6.819740794139312 4.072189207800985 10.299262722187796 0.9098239343890653 -0.35331482577632056 0.6333300715275415
P 6.405351141732746 7.78694055344639 10.367200796084298 -0.024466874793112704 -0.24038246185094733 -0.07949362465095342
P 2.2608553163028398 8.38369942705844 5.758597821889211 0.2005038804884547 -0.04369281290226023 -0.4325549396555711
P 7.066453189088177 4.069247182921948 1.7066586439732268 -0.45839864019155246 0.22641108727251974 -0.899214277194019
Ni 5.811161999728004 3.101393640308418 0.20419105512308106 -0.8184533557948679 -0.4901108836931688 0.03519171740978455
Ni 1.5340480466489186 1.0402418831557583 6.839989915991942 -0.43441950366813575 0.3151915365420378 0.40151555385126336
Ni 6.858395732133324 0.5594714323673675 9.230895444401394 1.7192714871408972 0.8318963686736511 -0.767183501876298
Ni 2.897840023909128 1.4309046497323137 9.53003944446302 -0.043728037015569855 0.057403220509817277 -1.3611664390647846
Ni 6.420388157781157 1.921532699930218 2.4719610379240273 -0.5995756007849157 1.066123866666796 -0.31520439205784423
Ni 4.188453672465146 7.203121141107882 10.729246922517998 -0.46207968858756554 -1.2174721113662064 -1.68941686567331
Ni 8.027042472741122 7.232014731123607 0.4479505288044681 0.3613965743431905 -0.4713374597404076 -0.18811424857485023
Ni 7.860609219630421 3.7264740435430483 8.10996580484094 0.014014826221853283 0.2829391042662353 0.023900974987313677
Ni 3.419804271198256 8.633807863071377 12.39684564606016 -1.4475994711480489 -0.21445725734475324 0.35087484887626025
Ni 0.19826069571413354 4.949339396967911 10.450941357317179 -0.41551906721920695 -0.9590441048674582 -1.0035856389232587
Ni 8.633626256597363 2.462275056632458 5.656730210452558 -0.10927265568559891 -2.2551860594317423 -0.5841525813616262
Ni 4.210518859057923 2.7158067746805714 11.180919476007396 -0.17058446722120296 -0.5205401467173035 1.0631812390987043
Ni 1.3044339012285304 3.613678262532566 12.659840877469176 -0.2742225503288438 -0.1335310140123313 0.4041846160429942
Ni 2.7721138619488053 8.055926982433148 7.880129191489883 0.8281456433819674 1.3405137958114397 1.1234358130143878
Ni 5.412181656641578 7.741048597462894 3.5252577024643266 0.3328920391455944 0.679684747532681 0.9011161222024222
Ni 3.1326299538389333 8.347305489665908 3.1719041699093355 -0.7040698612452648 -0.00871861081992047 1.1226295150630086
Ni 3.585020760933059 4.211880907613033 9.518211414810446 -0.5927189828743986 -0.32142260505341413 -1.4911066504020645
Ni 7.14822150401326 6.063168223394395 11.49369939817041 1.2998253169531422 0.06566031831228691 -0.4798609238303865
Ni 0.2896051200140084 0.10996544411296419 0.47280791493521956 1.4680009176225362 0.304244807722547 0.12588275343845415
Ni 4.720814890391611 9.33766007440985 1.4240471892735214 -0.5027856509473599 -0.25714528313158297 0.2890958678962505
Ni 6.128455750802651 5.626422814036628 0.2978618583550832 -0.78201131091775 -0.4421268996147224 0.6193250154977011
Ni 7.9185598454884865 8.739847883248515 11.684157371728505 -0.23235702044330953 -0.3086871597646167 -0.6980923035055914
Ni 9.096940693103468 4.663817698522122 5.837899012864806 -0.46558204531386915 1.63177273279728 0.5820905566262748
Ni 7.785778272012696 8.716184559684411 2.5758226884453603 0.3428812891478224 -0.6896308030017995 0.6401234403002911
P 8.410940398160633 1.591245005639824 3.366216740878391 1.0542219730228874 0.4288561506477453 0.5789617811893062
P 1.7039953850318024 3.3969218554724137 1.5135019982112743 2.030343602197923 -0.09469270098889498 1.2328596495658701
P 4.779936878007072 1.0960495526204517 8.265245696350032 -0.2577142682611755 -0.16368491188789228 -0.32494707326690486
P 8.612006005865922 1.5423565428350876 12.37400045966149 -0.9244370563165498 1.5085029915016406 0.820145141674994
P 6.065293019140365 7.528705227721297 1.4230765026699133 1.0772418309568286 0.8790432015627828 0.03286255505597566
P 1.6193849287883897 3.101439041926922 6.0902094273751715 0.8480606371383396 -0.09424198660472156 -0.2737535811122253
P 6.845728680570805 3.877470746362506 5.9158717524829845 0.3878272577308934 0.7445958463837692 1.6369838446845744
P 2.35450069462848 8.615910545057236 10.423949187084386 0.16843091121330994 -0.9049681489586608 -1.0756127799938378
