# total energy = -340861.91766043165 ev
CRYSTAL
PRIMVEC
9.30977532969993 0.00000000000000 0.00000000000000

0.00000000000000 9.30977532969993 0.00000000000000

0.00000000000000 0.00000000000000 13.62579724153044

PRIMCOORD
 96 1
Ni 1.109836953025701 6.346231881998807 6.787309493118127 -0.18566373015182863 -3.6139791131683436 0.4141137022312481
Ni 4.66561259506372 5.883917742060686 12.289474306270728 2.3494041347770636 0.0666519928015949 0.0857977124921103
Ni 1.3123524987691506 6.874300966063531 0.9634947304977542 1.5960313135316124 -2.3361948351756414 -0.25091884260589686
Ni 6.787803842195449 0.09375130091231935 9.726394436461668 -1.029999353030097 1.7316505775315403 0.35728280928513306
Ni 7.104792387086668 0.6299375782071129 13.594022420265516 -0.6779081152482325 -0.1822552186909119 0.9026137897938712
Ni 0.0900236668151522 3.3827162258735823 8.296489264820114 1.8945968114811949 -0.2768124225432071 1.045619576065857
Ni 3.1311940220694745 5.77052467686714 10.230889307087715 0.9035992936355922 -0.05698001692946961 1.4330830226994287
Ni 7.551158881649047 6.472556225316643 11.812803561584252 -0.6883959021534338 -0.7181389377438213 -1.2824539155542298
Ni 6.003501807940086 7.688403591590201 13.354235188438128 -0.64275676415808 -0.2828318892644097 -0.0527171278880576
Ni 5.409333318056466 1.6462382861337927 4.692002084603755 1.7394693022450107 -1.9334808901409022 -0.26482799648782135
Ni 9.14353080692817 4.380807943963476 11.193551743658679 1.59462286321986 0.15520747054450046 0.19902755305324432
Ni 4.796656994543552 7.851240874291377 1.728487359456077 0.10310277942946115 -2.519199016217436 -0.020515860565164665
Ni 3.1896221729031935 1.7025344983854658 10.522808488600182 1.538935596959885 0.3285396757141697 -1.0673425695652456
Ni 3.9385470603822434 6.7756266558840235 8.366661697406022 0.8799325461462717 0.454184859220521 -1.575302051404061
Ni 0.4551130286140482 4.266260466611966 0.19363495092504834 0.4136599025232811 -0.863385440420868 -0.09742449809776124
Ni 3.763355705635761 2.7718925476786924 5.675825640812233 -2.5271447534270735 -0.21979512461789888 3.6039893489454835
Ni 5.235994608628006 7.631781537197168 10.37894732123431 0.7177208763697961 -0.6877330717584543 0.4329460044464028
Ni 4.571267330476577 0.5183310589257704 0.25682318995527464 -0.31931018669610167 0.20198560724030376 1.8349068518197302
Ni 4.451282944252076 8.552304206092264 4.042093176063867 0.832947692756301 -0.79621562744259 2.243367212419943
Ni 7.286314389151017 2.741570608981206 8.250842504725659 -0.4634768260454083 -0.09272503573956288 -0.14440035262666745
Ni 7.631977042481984 6.281165861256796 2.6142315001374192 0.5565186216944416 -0.6119971143777202 1.1509494450536242
Ni 9.276800242744724 7.15616372811606 4.280353604714593 0.14412010238208728 -0.32768169858924856 -0.2900170941589392
Ni 1.136248786026858 0.8287152491003809 10.253276524154291 -2.2885533220382777 0.4374186955057757 -0.8417406084575826
Ni 5.3600566765072495 1.714572038064879 7.293766864412711 -0.8557448931564746 -0.9787606094597789 0.4436927014399455
P 1.8171564539407152 0.158479376804862 8.364359389932922 0.2937387659849006 -0.9033185291703797 0.6573734856299904
P 5.796731694808013 8.90962269830848 5.78295229613864 0.6724833446882353 1.3144536083892782 0.7029871697040474
P 0.8813108256037421 6.703690020847034 12.366242714775325 -1.4055102552874827 0.6507647220642211 -0.5521276917155975
P 8.90228659524013 7.189725468676219 8.330199030810206 -2.11423612724752 0.06446629800418574 -0.5676147316076031
P 7.456338818513065 5.886152088172874 5.102247581329972 0.42353550976578025 1.3372490090172389 -0.5481203703284173
P 1.9995535748990043 3.5907245391428275 9.95072930296818 -0.5080294158448025 0.3197099932376817 -0.8244052025029285
P 8.268402603212364 3.186885098915763 5.747729691635087 -0.6220493564073997 -0.5220498984936106 0.1970822564014154
P 4.500103406803387 0.37694629183424083 9.255213666368347 1.332766547765853 0.4140666510433966 -0.268558410064531
Ni 5.739662771192541 5.083714611306919 2.024084833255736 1.0176737415852086 0.3039923253921087 -0.6949992664025644
Ni 1.875808039385653 5.768290330754952 4.109608598731365 -0.824274076241703 -3.092824215685177 1.7583373427941071
Ni 8.839017361163336 0.5402909572983924 8.352177548733762 -0.6842397138932151 -0.3682925301320754 1.1166445011241672
Ni 6.052145384757516 4.313032778560437 5.513188518283609 0.6645270659556362 -1.127761179862619 -0.38953729844346463
Ni 1.476986568135544 8.14528082265533 5.932168446353389 1.0821181852125235 2.3753450230125415 -2.248184174192612
Ni 7.656107980493616 5.513593493516443 9.403012868756951 1.5557873784099012 2.577504436826548 -2.046815631711017
Ni 1.968049294717152 0.4679623807142233 12.275167974309896 0.634864505894197 0.016327276405113816 1.18964300496908
Ni 7.169020528036609 8.53388016044218 4.009854354597633 0.6610085112794164 -0.8245748953115735 0.7519864824208855
Ni 8.785914401896997 1.767982219921642 12.369430381895379 1.733612843464234 0.28683381133495117 0.24708635623368416
Ni 2.3775397686529596 5.257583977937023 12.34046208455086 -0.8145103119867197 -0.8297158160825646 1.0936670663923873
Ni 8.497888568485017 5.084720067057404 7.068177971150733 -1.160630419786814 0.31009458163510467 -0.9741074269584835
Ni 6.6000908394452455 2.515473401978705 11.989284320232976 -1.8631360218687523 -2.1527527952654797 3.166785597663991
Ni 8.21090542992539 2.4701999638804937 1.2805391340417789 0.5013208934763753 0.3201733060273454 -0.5170809845241094
Ni 4.258337847689166 3.784516825273276 11.37383461460831 -0.5219740509503527 -0.32777245853084197 0.4757165626447098
Ni 2.2920015516580245 3.457175810062251 3.9169670008486936 0.38034689019344814 -1.6894032388265547 -0.6464339558993512
Ni 4.73415116205509 0.2641220539217558 11.680496756551031 0.8711632845940739 0.23334175295408202 -0.7330572496165505
Ni 9.054315228623594 3.6239790571125607 3.5319156184924902 0.9447127758464505 1.1231648187411882 0.7875916332190049
Ni 4.610480104745479 4.084272975774245 0.4587261524729657 -0.5906896111491956 -2.7897875693381184 -1.8709907420264809
Ni 4.615712198558185 5.81072428733559 3.6965971677137675 -1.2376056488912879 0.29894087901113037 1.5578105794875172
Ni 9.17059432421205 8.20714428063654 2.1159229753094944 -1.014429780726614 -1.4276502817196317 -0.3453657461325729
Ni 2.306124481042147 7.519105324714615 3.2613484070146184 1.063386156020659 4.448832764698106 -2.293638192760353
Ni 2.611382708844379 4.518769506615624 1.9163865577156292 -0.23408583020895812 0.7343026919878773 -0.35706683661958505
Ni 3.3575425930095966 0.37723675682882535 6.65439010485915 0.657000675671604 -0.755690413635034 0.22110150213414825
Ni 6.631371685015879 7.58243972721968 8.229927163160484 0.4413131454641754 0.2573242319116084 -0.26456085886936376
P 6.744448217843532 4.4930745263254614 13.505494834367981 0.8924643600646952 0.6740401476523941 -0.7335714702488075
P 9.350459186243192 0.13419762043065778 4.711091779199762 -0.2493242444252674 -0.8556330501689587 -0.182681250484737
P 0.47992916610008407 5.111057421854821 2.240598557392044 -0.12721355643473578 1.2670342385650502 -0.4893904605873765
P 7.930383275540173 1.9058413750436483 10.381754218537747 0.4645232650320516 0.28603599802400415 -1.9355359728977182
P 3.4779738484565357 7.465890648142668 5.906483706816239 -0.8803061274356064 -0.3224016811372319 -0.19533570602395392
P 6.016991672592423 2.331391211660807 1.3585978774261636 0.07417606909278193 0.36087823994587526 -0.652166230397438
P 3.579347993521603 0.07618003069505341 2.416385737768443 -1.8537077865763172 1.5990204780669235 -0.9111261981402565
P 7.089887436563281 8.64744080159414 11.843924279016845 -0.12040013305732813 0.5559367810490425 -1.0198707492365273
Ni 2.4449797821391703 4.795502582385589 8.266348866744243 -0.04366967297380866 -0.6014597051815062 -1.4459025430616002
Ni 1.815145542439746 2.9526790774811125 11.923049922669799 -1.121944830291158 -0.037043940127174914 1.7377422922515748
Ni 0.9388536167905065 0.6225958892734815 2.6352157340410525 0.3019120458243123 3.3195983427240705 1.662332093641376
Ni 8.062889309768396 7.8596755308648865 6.181192837399579 0.08952246964186518 -0.6827273910137468 1.4400530262593587
Ni 7.421622665794941 0.94004526805034 6.323405243530166 1.2783455498128111 0.9176118058646003 -0.41273944759154074
Ni 1.503649765074322 6.937151260244288 9.025550815361813 0.48550578082098966 0.9346703040087838 0.6734012285168145
Ni 3.1511634904471553 7.5907347371611795 12.55317462736381 -0.6038775705943793 0.7170418480249006 0.6509159029301048
Ni 0.9675370350057213 0.910830261655934 6.605636672691206 -2.3113718625946906 1.6043925410121143 -1.243516357948768
Ni 5.511293978975982 2.599261381185759 9.80940225648455 -0.8700170868047726 -1.8632576350482815 -1.5870437653210214
Ni 6.08597710880623 5.3004089450872955 7.638963097992759 0.3683958884791591 0.13656851528707448 1.787388751634109
Ni 6.2011483411140595 0.5143343723175939 2.510158451164337 -1.413404570433895 1.1506054314506442 -1.1446391865648802
Ni 3.0613055376353238 2.073901441782063 1.6777583929339397 -0.5835653413995885 0.04569827336806324 -0.4116865808469943
Ni 3.036727730401255 8.387195338177031 10.248480127833462 -1.4100672785305457 0.49837286659164487 -0.54245520162284
Ni 2.2292071161300715 2.3190371396155007 7.74679729625469 1.1552447299948685 0.9819554622479927 1.0327720306792278
Ni 2.134619797380775 1.1456888983508529 4.597003273778797 0.953287661999655 -0.40915481556407596 -0.6325764811909687
Ni 1.9064465104490322 9.066911354831054 0.8926659587413914 1.764861002845238 -0.3489146398260959 -0.48589427450865996
Ni 3.840961993932428 5.173181553549118 6.196099649878061 -1.7933285141573114 0.27333860506199376 -0.2937148547255006
Ni 8.178637748155206 1.5828852640777926 3.586159956231137 0.012009879976682543 -2.0797715178117473 0.8869362311576144
Ni 6.929070375138542 4.125636308176127 10.755849857123856 -0.5693258007614388 0.6583451055146404 0.6455006454518044
Ni 8.434963796100519 6.294516079277121 0.23560621166495513 -0.8167854811741417 -0.5866565787304026 1.231259652068602
Ni 9.174485810357444 8.56941557340144 13.06763002676248 0.10235021753415276 -0.045785433765230824 -0.13917972765767644
Ni 8.729646118971727 8.293436589444338 10.498540696889181 1.295112227748189 -0.9617751306453759 -0.4504351623701016
Ni 6.740435704617061 3.2614284710836383 3.272221293783054 -1.576811288959736 0.661369494163261 -0.32947607148551
Ni 5.461654256183537 6.824251613150517 6.07446184753054 1.6203243817510222 0.782877258462471 -0.9459294218623708
P 0.9838012127473572 1.6911672625397087 0.42574347994688233 -0.500888176814331 0.7469121532217717 -0.08509837243224054
P 3.6318271978316212 2.220344209885059 12.93971091890707 0.4191309529401814 -0.05187457738210421 -0.4976817540618913
P 1.5658204456459561 4.258254059709959 5.676833889495359 -0.08749772590235254 0.3654092950470094 2.4219807205932096
P 3.5753540998460673 5.9376258367324075 0.6559351261999682 0.2748660974501137 2.3336748969672647 -0.031112662244404485
P 5.424806164883368 5.503436528481454 10.096157305545225 -0.16754439484329856 0.026132435420993704 -0.5986749433475174
P 4.593582862272056 3.499730793723967 4.039816935962076 0.3649804350397069 2.257944081792853 -2.917229953954208
P 4.744633969231439 3.749828601881555 7.567617633697952 -0.9460263524515513 -1.3643638629561599 0.5397570859653866
P 7.1621126746397605 8.14309302542048 1.5472362718578314 -0.7916004972680819 -0.39741130187490264 -0.43625244311181643
