# total energy = -340894.925383216 ev
CRYSTAL
PRIMVEC
9.03695360839306 0.00000000000000 0.00000000000000

0.00000000000000 9.03695360839306 0.00000000000000

0.00000000000000 0.00000000000000 13.22649507515911

PRIMCOORD
 96 1
Ni 6.321104902123011 2.053123515737035 11.66258056013956 0.8228450571046603 -0.08827934126338344 -1.1845753606381857
Ni 4.518711658332717 0.3117053075894245 5.9382995563070455 -0.488937432210358 -0.211583535341384 0.322048154452555
Ni 2.8960905284309266 1.808809480700807 4.8575892773904945 -0.10333160761081558 -0.7541935173745333 0.45914657410117055
Ni 3.5294182962655465 4.433384744376288 4.97486814746594 0.07451648315133617 -0.9693920237606852 -0.37386436779289806
Ni 5.075306654889637 4.553449707183439 2.548613344522382 0.3793189631495661 -0.6517836502470389 -0.5915938681310199
Ni 7.230800778686239 6.073826746373194 2.4173534038493956 0.4815943615817254 -0.5815984474812048 0.8869022925958855
Ni 4.839288543070101 4.6375024107111615 11.225313110992753 1.1757991571074522 0.09722009539643901 -0.2630089410012116
Ni 5.552249944222243 7.861489756129493 12.391744315033757 -0.3108641128112775 0.10611379834164306 0.058004858649558164
Ni 1.8651819959793714 6.449221790405186 0.3240335194110048 0.4417409770302134 0.20906822511869802 -0.2834708083999892
Ni 2.4805533374179496 1.591443640688734 0.5817484526368102 0.8508775377618442 -0.41155108371039445 0.2843467832470393
Ni 0.41692888183582105 -0.04720723714526534 4.955359172476623 1.0447397445640654 1.2041535398804295 0.17840139216246048
Ni 8.573312501153854 2.31543916193628 1.3556098827184573 0.8392756918568578 0.7453098417316584 0.46728000184158236
Ni 6.698334447694207 0.845599477217881 4.90695002052981 0.22748657972488562 -0.8065121242725917 -0.606711954719381
Ni 0.6857140829706103 7.205659974341102 2.297244159970608 -0.011071684433129319 -0.3115505973553409 1.5291363514812761
Ni 7.538599411322966 3.8296078141436087 3.604907582756082 0.8361538583984245 0.02804379351109364 0.10647683810801661
Ni 7.654751373310044 3.9901673651141536 12.538479134700495 0.09212596870298327 -0.5482039311811591 -0.9750224825735853
Ni 7.836240508343615 8.947333928269794 6.939822627403791 0.8248435755919279 -0.24061694645925658 0.23234827869256114
Ni 6.691927247737089 0.7019137256266468 0.5022431440574971 0.7302879144015294 -0.6683610949897457 -1.4836147129003934
Ni 1.9787132414818733 6.47138943708334 9.130910599537629 -0.31903353599594736 -0.011045973401516461 -0.11638921212572213
Ni -0.09309146431348968 5.113343191729567 1.0431382414811292 0.49364409365740786 -1.1457247063195752 0.9727941074636989
Ni 6.4929425709306265 2.160545780744457 7.128366008257567 -0.3801062349375518 -0.20517403227061434 -1.0400891331659312
Ni 3.169214370890698 4.208039274516351 0.25597803078326936 0.0411438212281614 0.4300131470703239 1.0731635471223968
Ni 6.033973781900851 5.649370082359264 4.662802265436051 0.49414777276670374 -0.15567875375396414 -0.23719583659284954
Ni 5.206532255139724 2.822439358260952 9.43301685523079 -0.056129753114032364 -0.5121115563339761 -0.510463736317908
P 0.2848980890382329 5.634558515744713 12.213583489935598 -0.12752594546883197 -1.0387156498571726 0.388024461343364
P 3.956486639810657 6.02720510380793 12.587641968560458 -0.2979535753971965 1.1458154662611686 0.29132784255056277
P 2.3561867847947364 8.49046171242768 1.561983172620744 0.6469340354642213 -0.4106439985150928 -0.1901269081295048
P 6.255903283377445 7.932493098954707 5.863014504963239 0.28274215776408085 -0.9587111470080714 -0.7005999004187934
P 4.518277884569753 1.1758070431884107 12.598857731419102 -0.1987904973417738 -1.9813990539784199 -0.3561332690617221
P 4.159745795572996 6.083667988620445 8.31176770707921 -0.8470499364856381 0.1864538301532918 -0.4594671906653829
P 4.790317292622114 1.0081444468493264 3.615977850665066 -0.27699574219860684 0.1493679810445879 0.4123087878120254
P 0.1557600250224126 5.458590959235542 3.6966733260065117 0.2464831754320465 0.6861099343327345 -0.4967659271158412
Ni 1.4102707990239918 0.8762736081268313 2.925502196950583 -0.0852608661520338 0.42327505701554197 -0.34501453344074134
Ni 1.9384807249669376 6.458611184982684 4.925639343846194 -0.5129435653169682 -0.17450977041753818 -1.1410067320186155
Ni 6.182830478224756 5.744800310211402 9.16737651387749 -0.6724632900835773 -0.2549552174587996 1.3495216557370047
Ni 8.684367621426102 2.354569170137015 10.204016282172212 -0.9322989755631299 -1.5894294919443788 1.0296864497753686
Ni 2.462931278297526 5.186226220860958 6.968074854802857 -0.5231071361135314 0.3245575511379701 0.8762293862630717
Ni 0.6537820081490638 -0.023958770841059664 8.85134250561182 -0.03074422316139221 0.1963669755019457 1.2761027765252217
Ni 1.5472890864003297 0.9495759518957554 11.533556361736517 -0.9482236172131864 0.7580352597181267 -0.47433999401215726
Ni 4.058658434895532 6.889475048953732 1.4811159951647912 0.2000050864751652 -0.056529045434980066 0.17858291204564727
Ni 5.703311657174549 7.813404127114225 8.058162780257492 -0.3128328065018741 0.16158020684006366 -0.3500001595807907
Ni 5.33223627686541 2.7815832919617556 4.823239817535763 -0.4776955407479515 0.761294904306005 0.01779254809673065
Ni 0.8506303491729271 7.483257108731442 7.03727532542575 -0.7146059848898982 -0.5733927717419609 0.10444669505186528
Ni 5.293747892355726 4.493308782339122 7.2331865343825426 -0.27918760764360306 0.6846963418146594 -0.6330577917027613
Ni 8.050642227642099 7.271846621006733 9.002719608237614 0.669125483959596 0.2141682653494247 0.19179812518434064
Ni 4.717027600587943 0.40172962992062106 10.463545835639753 -0.5244955318206257 -0.290598420583706 0.0746416958752908
Ni 8.137243352027236 7.281931860995653 4.738206604564673 -0.8987370804472846 -1.5632453773498431 -0.5917594471746067
Ni 7.311076035694813 6.222493666675801 6.876705833806471 0.06234925166118295 -0.4091159919063405 -0.19437488477258139
Ni 2.470558466962981 5.078677438506006 2.3958734693246084 -0.699199420526841 1.0379425191365736 1.396735594418646
Ni 2.2490808131561426 5.177026602304758 11.25183205073064 0.007012426762091149 -0.07785326083405301 0.40730542106016304
Ni 1.1063942041607329 3.146224361453592 3.905532681787788 -0.6717742344363528 1.0030207675587242 -0.42185323696735083
Ni 3.548929078645543 2.7120348986331515 2.73669403336233 -0.11760714369322325 -0.32772103646761624 -0.5733945715141737
Ni 1.0174976936132434 3.275235908121881 8.356075889575331 0.12610798207538282 0.34338882491186024 -1.4862256681606791
Ni 3.8716386843841675 2.732503598073028 7.148867240729666 -0.9683067611163066 -0.9136548780993813 -0.48753515254619256
Ni 4.362200662483173 6.6686661296981296 5.897667606452047 -0.8568432684269759 1.074159335376763 0.95927241882818
Ni 0.9127774776709533 7.442708298847679 11.37125358245606 -0.35358607715983625 0.9657122609162528 -0.34891901070147
P 0.20136049185403115 5.6247805321712265 8.068439603658387 0.04277235797051989 -0.5014679605772009 -0.21090476410680448
P 8.485599831501121 1.7377067313882475 8.043521108366768 0.23504099503337586 -0.26270323683533464 -0.11748347363116539
P 1.7259044702542616 3.1233156845970416 10.502947856137679 0.3147811884774966 -0.2602210938434293 -0.4553274574653965
P 4.066330808327963 6.0511620672583115 3.6563188106207427 -0.6806720511466148 1.1988915201505417 0.4559679192628728
P 6.778338596100928 3.904876598971305 10.436735906002541 1.0422262341135922 0.5387199029501237 -0.10349821509566691
P 6.311236549015574 7.855995288465278 10.276933651726505 -0.15541007347360974 -0.7068880474203503 0.40769237208593656
P 2.324765297840012 8.418256454800918 5.863186207077746 1.4476323812685132 0.946591223816086 -0.3161958094368361
P 6.868247245428668 3.8678702748184155 1.4005136004433145 0.3918620899218993 0.43022372041923324 0.23902311960957545
Ni 5.155166212042038 2.839889715266869 0.4302023589825276 0.11642649312156077 1.227022731169119 1.2456264623132356
Ni 1.679707564498567 1.220973736257065 7.113394487567923 0.18799854893259235 -0.0758755682823919 -1.0978463945810575
Ni 6.889366605512991 0.6639070107329214 9.178407019191537 -0.9042587815964619 1.0932616034238527 -0.9731676887530336
Ni 2.779830123003108 1.5133553264017707 9.314189955038767 0.273097178475149 0.4384455941083933 -0.15002824033640613
Ni 6.5487005733783255 1.8390742376209597 2.443330126383578 -1.6559022788556321 0.7092238946423784 1.5330266876746177
Ni 3.994875617832995 6.901729157757472 10.502035123844776 0.7020281482248877 0.39363975064761236 -0.44073233326004096
Ni 8.117190352443533 7.354281709876734 0.35768532646363677 -0.27732252941040625 -0.473579718807365 -0.9131000340371759
Ni 7.469728789498994 4.022176254039558 8.18110239793962 1.526508684050442 -0.18240845643932455 0.315561775397263
Ni 3.0274516829819387 8.402794227541923 12.491947861669182 0.8952434654717292 -0.2590754102747603 0.40816416951603257
Ni 9.09198844126498 4.583362022921183 10.082397867076446 -0.7171488059164102 2.520239027446176 0.9949292487998415
Ni 8.75070789629945 2.209056146569294 5.775917251836712 -0.3477874682001882 0.5870509859553438 0.6825808381335535
Ni 3.472648155037598 2.859020945604272 11.716994767617408 -0.11564847730495567 -1.5065803205576311 -1.1458758871854589
Ni 0.9788556808958433 3.103181352432784 12.728266000341435 -0.3828514017828568 0.6156825336491074 -1.025600195521137
Ni 3.3817364038830036 8.394254306583562 8.057236492534495 -1.074091458253305 -0.396496246259801 -0.2504341896599945
Ni 5.74806265038703 7.696465950181775 3.504452808816274 -0.4061764496620424 0.8922964670282634 0.4563924083948011
Ni 3.4132121125580985 8.261112872213719 3.8525734238065485 -0.8505404661373998 0.2871762822760344 -0.6013229224933256
Ni 3.231497053689651 4.1268964699818484 9.059024346365716 0.28683304000400284 0.5593699751003076 0.8148417271842096
Ni 7.436283024983771 6.294319372259968 11.39895003722133 -0.44914164036965876 -0.19776488429073683 -0.5361922514322637
Ni 0.47240493133759276 0.10225222397009127 0.6978787259357395 0.25275101071862915 0.04709026861958342 -0.8354444910362256
Ni 4.493299745385727 0.30292500367075614 1.462135681949086 -0.2986999666449179 -0.0859216396644843 0.5346475326529632
Ni 6.049806524249048 5.631856466679581 0.2421026925404499 -0.772421867457102 0.054537983146880256 0.04274767538017154
Ni 8.070342786043392 9.029362354237016 10.95862719413164 0.9232088403364035 -0.8270637231716983 1.411869364736291
Ni 0.08037285610524157 4.762049702402276 5.891094126552459 -0.1782928916090542 0.09135540908554589 -0.07710969779980913
Ni 7.827194517995131 8.742158938387695 2.5166577736220086 0.7302963990419616 0.0339933262263092 0.7405900676584858
P 8.348473100684043 1.5740384684497928 3.6886711037751607 1.1894841107937126 -0.019345751516463457 -0.5798876354376852
P 1.596233225988131 3.3075068686957434 1.6799768657097407 0.018557451287213204 -0.9703903831182128 -0.356894829818095
P 4.908032647546542 0.9844857028609837 8.104521447478959 -0.5627424911169663 0.2871616269880151 0.4845819834551397
P 8.456961726192086 1.4196601936014892 12.499394311266734 -0.08801271786555809 0.8619463939814961 -0.22123571371916737
P 6.233048828241265 7.704319062682107 1.363519024329839 -0.37558263603558545 0.24374700744780606 -0.6580774536755505
P 1.7789784975436185 3.279401943637017 6.135652159330355 0.8289419140310175 -0.6781575122548773 -0.38819569681390564
P 6.89941569768833 4.086013292822466 5.7391476958627745 0.7506471947841717 -0.8996050848745345 1.6284143578480084
P 2.434238951268119 8.488916393397119 10.128902932942912 0.04276952975704247 0.2038465717084425 0.4506472783809078
