# total energy = -381175.56542442867 ev
CRYSTAL
PRIMVEC
9.16503584154896 0.00000000000000 0.00000000000000
0.00000000000000 9.16503584154896 0.00000000000000
0.00000000000000 0.00000000000000 13.41395637013501
PRIMCOORD
 96 1
Ni 4.1640882704139415 1.6412654775059883 4.8988033794120245 0.0390080058320812 -0.05434412196851931 0.658238404733447
Ni 5.7631579222874585 3.4035277599641716 4.467692918161887 -1.0614981949693267 1.017184717763932 -0.05846868565985414
Ni 6.1436718859297255 8.526691220063192 6.0984543479360385 0.38262643025624427 -0.008968779157513587 -1.896258001233702
Ni 7.00969446535275 4.196065080933424 7.478777503657721 -0.5619814445812257 -0.746362965586521 0.46851747379310926
Ni 0.5233895424758346 8.98516297971541 12.066042063677571 0.20191413057241997 -0.19171019345622464 0.7182533518344985
Ni 5.336305536751667 3.1137293224101343 10.82659192642875 -1.8070731174369137 -2.748280451233267 1.8883287190842963
Ni 4.514128489436754 6.035112034796659 12.43138422676554 -1.7269125486259227 1.804069297613583 -1.4754938835654718
Ni 5.350538837622047 6.362038033088564 5.855164801944675 -1.8910543455455753 -1.3013180994485847 0.5158514829923826
Ni 2.1673293774795543 7.122626038646262 13.35439866590033 0.2616107751021043 -0.07081100927529096 -0.2122049709754668
Ni 3.017331474016923 3.8828224813533523 5.233669964873341 -0.31815036206004565 -0.10746131350847297 0.31578880380640456
Ni 8.27990429634347 2.425856712284243 3.2559431856462506 -3.310966635191001 -3.5123506042915635 -0.487831857851005
Ni 6.189377920340919 1.8429237640809877 6.363648329909508 -2.2722327305013836 -0.4211420698329392 -0.14375012063717824
Ni 1.9778605887523373 0.2094430681328232 0.5614858475163427 -1.173708593127011 -0.25115024189041263 -1.46984028482412
Ni 6.8266320367726 4.426923172127245 11.825556102191197 2.5118937408052737 0.18139158513903597 0.49926632494019174
Ni 2.564908638108717 9.321116538443455 3.918431395630035 0.8628941026067461 3.008190698704497e-05 1.0707258842151817
Ni 7.8009120211414915 8.426489881740034 10.82842951614189 0.1379309428522399 -0.6141015623152327 -0.2060993722983612
Ni 3.1409494792581896 1.656626077801389 12.29656013203669 1.251567767498335 -1.4331722399791251 -1.4146998922065506
Ni 7.65508713373092 8.84243587446465 7.838324614498206 0.14838170587191865 1.1269538534699752 1.5103243609810957
Ni 0.9058116666082587 2.2696111789692144 4.299052590193219 2.5276144939746406 0.06381246647027075 2.0076327908639686
Ni 5.104705077643808 0.13717217694584166 7.894730828411119 -0.7028552721118734 -0.3639653635116312 0.9951927868738732
Ni 7.378440522802121 3.464007832368317 9.695554083233782 0.7007654794623802 -0.5173969731026314 -0.5117513447810799
Ni 6.369782488488094 6.597872738817231 3.9978015236838527 1.2098223081304327 -0.4349982589897412 -2.5679389046253
Ni 5.527048265479516 5.050191443659892 10.004102351387063 0.7685371876907151 2.559841729439462 -1.4071999842850798
Ni 9.032683691249808 6.6056446893246905 11.906388969986747 0.5171704589141222 0.008183821362373 0.5184992050278747
P 1.5196454501074412 6.032160893212458 9.207608484387068 0.0307251969979987 0.020016552331242946 0.043868162137859934
Ni 5.1536738648623786 6.993710642610997 1.2927017457788736 -0.1110649716993313 0.4942866123374132 -0.06389011378574158
P 6.033746444436268 7.764407682849975 9.432197690973458 0.010381857454956313 0.3917520467065963 0.2992252430207685
Ni 1.8247036725611447 4.945343432097014 3.1793628945434596 -0.9146794627091538 0.8902275003143766 -0.013815051506221369
P 3.8306917567231387 4.138453664789696 12.786612772654237 -0.6849421392768784 -2.1662742267906823 -0.5969147661233011
P 1.82736153299412 1.1507435870464817 9.937850139325372 0.4401466359599 0.31703373195709916 0.2340207812989776
P 7.796017891930426 2.1086548171626367 7.604747257130372 1.5627396413580183 -0.42008226110985725 2.0798008283877856
Ni 6.545457898071768 0.8093954881430953 9.688578574352618 -0.1198738282402129 1.0414854992928257 -0.024722956667976775
Ni 0.6191238422644002 4.730881590263857 5.320109085175275 -0.056842205800024685 0.02923652826761416 0.8245761808631541
Ni 2.0534721355524894 4.84914721449527 7.360734589800519 0.6114556400519534 -0.15259882927705978 -0.15932714913982884
Ni 8.517544514159367 7.194021668897557 6.604911486446627 0.1526106563516017 -0.40504799248455403 -1.5533821114025181
Ni 3.2939230947298666 5.170207589762679 1.2325479486554656 0.4068426224911316 0.012756014114087708 0.0808326551773511
Ni 5.632455344236916 8.881900519376343 11.47272879572815 -2.0054630369061592 -0.4063384291612034 1.7428076225896245
Ni 7.375342740642309 1.7941932677977865 12.0247535766067 0.7749947703906007 -0.07884544954399325 -0.2471310934286905
Ni 5.7946581509362 4.764966359057768 13.815838980705102 -0.3642731245600372 -0.5272178158477953 1.7953977379815143
Ni 3.6668759036921186 4.151275550119807 9.158325336434526 0.5017700651986519 1.9424866931839384 -0.8128473224620001
Ni 3.945786278506934 6.361469800858066 7.728075647234804 -0.14451013873165433 -0.5193199011569573 0.534915184492053
Ni 3.7527522907851396 0.7376405884815499 1.6979521415197603 2.136094360773192 0.31067487961860685 0.6663967721745233
Ni 0.8089720634810145 8.372672790490277 5.218914256952342 0.7168816682979524 0.9078272156740106 0.19796131657225907
Ni 1.13501638531205 3.346347100511305 9.074581653213068 0.008125714430927942 -1.3410580983506841 -0.8947498136647623
Ni 8.880709064699492 5.306619985226129 8.036180327646855 1.3902813541528702 0.17361991161341714 0.1382145355309297
Ni 6.641479979989974 0.6514938328272435 0.8465404624493178 -0.3120666177598109 -0.8747664285642999 0.05773026483193284
Ni 7.616254876301556 7.474215148748979 1.9341452001550812 0.10176554867527636 1.767040784105376 -0.2917983544290781
Ni 7.636454615592166 6.184602936597541 9.807533409289412 0.07696828712593841 0.06997102987249885 1.2239237805288212
Ni 2.3880601039201435 6.4046187902320195 5.243032965626195 -0.5477740427325921 -1.3725230017281844 -0.4988894012167473
Ni 3.184043478416288 2.4766401766260184 7.857386056320625 -1.6461313155117971 -2.004384202019683 -2.061407927702895
Ni 8.235875463515843 4.554802919097248 3.459190689459449 -1.1503292949711221 1.9366695722815293 -0.5675627953237451
Ni 2.8263871144976056 8.340824290474455 11.365443801099316 0.15881087162504262 0.8094287836987544 0.4449211745304079
Ni 2.205272626419267 5.722575142986721 11.273330607024779 0.5364421626595406 1.6605678026521014 -0.5434620456207995
Ni 6.545164616920545 6.537896743391753 7.731402555294011 -0.4917715592250434 0.15218102501335082 0.6646414800463134
Ni 0.4789968577199684 3.5128483090832274 1.7481472105518903 1.5647625853253182 -0.3079006593075794 0.14886533037655653
Ni 0.6335844360269797 2.8039877665728095 6.914612716125659 0.051792044970626935 -0.11647482986099295 -0.9373213684783859
P 0.9095097586244844 6.440793187228406 1.590023761365425 -0.4050749890677475 -0.4244479942777206 1.0139453848910278
Ni 0.8786015912997773 0.3064329778500702 7.3359321694428745 -0.2607774805675315 0.20124590086080177 1.879630162869034
P 8.701202670077942 3.6596813504511347 12.955803002781453 -0.39926198193039625 -0.004517428254379317 -1.0246913105536224
Ni 1.2688992308461857 4.859796986299122 13.370347661505374 -0.043132312413099914 0.05373708451213972 -0.8368380289496425
P 7.5555273479260645 5.417892687008025 5.674143426876331 -0.043299434118583495 0.6427109985218092 -0.3244919880073573
P 6.529455745258065 1.2015637115321596 4.223988196040821 -1.2779395726236444 1.8364294591118437 0.14088899703929927
P 6.071249771649144 4.53067137937303 2.5557206895430014 0.16354144433149254 0.5790666821982866 -0.01476070324894232
Ni 2.6540844381530175 2.764633102092827 0.7029976689967142 -0.4000500250493304 0.7330536500721246 0.6334036050779543
Ni 7.500335501279942 3.0017967380379824 1.1481141382250315 -2.446738130043548 0.4892871022402928 -0.6488572206288632
Ni 8.751912814131911 1.464041176842408 9.943444477284986 1.1682748237059493 0.015370826029115466 -0.5902172994984674
Ni 2.810311641396095 7.4315885664256465 2.323135905571344 -0.19263964724902952 -0.07184767806992143 -0.13601521388676577
Ni 1.6531525291665699 7.322387162774275 7.29900348998568 -0.7239105501202758 -1.543016194787162 1.1351201913308515
Ni 4.0919777673565365 6.9008963232843135 10.022814605338803 0.42266647689726566 0.10438473146567828 0.14352977709625603
Ni 2.9615530650683497 2.8372476821289 3.077845457054179 1.1328262530903521 0.5147320246759587 -0.041221725653948355
Ni 8.952700422289212 1.175846620584132 1.0695780284450096 0.3446579214322709 -0.2325053730957157 -0.8510354034959472
Ni 6.627265009191546 6.709915303621093 12.606825011428233 1.0127791324970687 0.4137897432329261 -0.07015666352074368
Ni 2.4899569738988205 3.54571412809236 10.832158769280433 0.5685647542256982 -1.8692174521761418 2.8626009537554182
Ni 5.567576054564398 8.83740426971395 2.909071319560264 -1.0830862055527475 -0.18477489978897207 0.49637563365595805
Ni 0.7968897965541489 2.0901964347074236 12.065169552252677 -0.10889701751373504 0.899689931278857 0.12986204980117635
Ni 0.7774305921703814 8.34176828917996 9.73736589385887 -0.025543138576426976 -1.029215423676221 -0.5052415686870203
Ni 2.9954636981787215 8.627992362703443 8.753572602147123 -0.4148559797139113 0.297766656197371 -0.31104280448098687
Ni 4.887429569766086 4.052641432948506 6.72455094957081 -1.5215809077315217 0.24042154261899887 0.17840396326562177
Ni 7.8039731431574 3.260690674281703 5.449473567973353 1.5616366381018267 0.20875969273934372 0.17257141574424473
Ni 3.5515430909729537 8.142098815411705 6.258375060677355 0.802076199988425 1.9967894203915613 -0.37171826798417273
Ni 4.154529137891207 5.399938381531479 3.5913450092085535 0.6902329553621727 -0.6519386877676643 -0.2545325280990842
Ni 7.606686578742846 8.647431404008065 4.072584551231794 1.4224314565228537 -1.4538804190607542 -0.20198380746809086
Ni 8.093835735963268 5.512182577126808 1.0248828975019428 0.641808798422514 -1.420301040443412 -0.4585297664527781
Ni 5.38943525030324 2.3622238675044307 2.3981471425150827 0.4408629453006343 -0.381240348541995 -0.34507186904123793
Ni 4.106971766212906 1.114156763431184 10.047550120933824 -1.2078842105674552 -0.09600653470431209 0.537104735944204
Ni 0.1787383646067785 4.5002067997895505 10.677334733045248 -1.0441069960760727 0.46508890772753453 1.4069197340404997
Ni 0.5227690695402746 8.822923512872222 2.871686221311476 -0.9118545916658489 -1.2930473747993603 -0.8090996824941098
Ni 5.474211833079168 2.4038881210503082 13.176864587020766 -1.7695617507550168 0.304350737172792 0.3944900144630496
P 7.861135472538315 8.35600159005034 13.08903054824332 0.350174480375126 0.8362777855707983 0.565646809247955
Ni -0.1035804870874275 6.657582948199413 4.052249169408743 0.10962695370122409 -0.058681058780976354 -0.7849953332467384
P 2.0793725272200323 1.300390294458952 5.993006943020346 1.46241802421812 0.6779207136537228 -1.1337703621711763
Ni 5.313576247531742 2.4148678341492884 8.683242865579812 1.4643167839027298 1.8001959307011064 -2.061977941273752
P 1.6245576169221487 1.3939561467356492 2.3835664867812207 -0.6705082232397356 0.6620495509494211 -1.051641613890221
P 3.929481679506028 7.46132910816704 4.198447990287126 1.5433488955362322 0.8853454896317269 -0.21739679958905142
P 4.143952686375162 8.701523446337095 -0.14820779676427354 -0.2899934400098554 -0.4532824020109097 -0.22607015899333324
Ni 8.321623540105204 0.9055944552556328 5.715633544738669 0.5592774153865013 0.09109109968056571 0.3549058244125243
