# total energy = -340866.6361221491 ev
CRYSTAL
PRIMVEC
9.28331717994093 0.00000000000000 0.00000000000000

0.00000000000000 9.28331717994093 0.00000000000000

0.00000000000000 0.00000000000000 13.58707306492151

PRIMCOORD
 96 1
Ni 3.8784213664343437 4.186051929694069 6.898741170046547 -2.4315981890783154 1.2260220578187466 0.08965950944036172
Ni 1.7897678439584639 4.593923751390591 2.194746984035342 -3.7208174483808367 -1.4947735577306902 0.9214836301151806
Ni 4.949632614098747 5.701748401840207 0.5061357335833034 0.6300927955371665 0.19971789425204958 -1.0765772007896361
Ni 7.078065150503287 1.4218142859476457 0.7116813716229828 -0.9166607548052407 -0.8377494850203184 0.7283523879417134
Ni 0.1301428229325275 2.159011783051215 3.3020118504616445 1.0715735769274577 -0.5396976934823609 -0.40977342298468145
Ni 7.643001414827344 8.626865931557148 10.2111744723253 0.6676147037420245 2.050845064585384 2.0810390716702614
Ni 0.6873126641404317 8.465020580604465 9.754105711465435 1.6986098450264877 -2.136514479029746 -1.4467648910618953
Ni 1.8789805216374416 2.0831113821455625 12.395160235136348 0.5538228200298333 -1.233163296849218 -0.5710378983565392
Ni 5.579969847647405 2.2971382587208833 2.8244538803504495 -0.20652540409218623 0.6430012760687184 0.22835149882834224
Ni 0.3452335676516579 6.486114433312859 6.366018944516852 0.28579122900304976 0.9935074287516503 -0.8820308234361971
Ni 1.8531264834130967 4.07764135217741 4.830815438072396 1.717591785445629 -0.2508378528563164 0.8030388210120105
Ni 0.9047186681533328 8.32661560542071 0.9298272560116398 -1.4041879369316332 -2.052805530745865 -0.16454443167471017
Ni 4.598992442546962 2.1493849831809655 7.753517448670498 1.2530788048262225 -0.10225637226876583 2.390499876376109
Ni 0.6612729595733627 3.9323667223128598 12.554007074654038 -1.7597889876389694 1.4779474873122869 0.13068557414373622
Ni 7.455654791701491 6.257197116051057 9.9914717756529 1.6698317444525306 -0.04663749735288097 -0.5279127850322908
Ni 8.95912513517924 2.3219989820116536 9.820695873615183 -0.9738953109476777 0.8752253704785894 -0.0452429309981995
Ni 1.5516507594146782 6.4239069251831165 13.090275527329764 -2.5326636263627735 2.6560123005254646 -0.7267883858887032
Ni 1.9776250495268086 8.880235506155728 12.126123206206987 -0.5038770842393256 -0.8678337060002087 -0.15735768411828385
Ni 8.214890883686422 0.5846345349553813 5.97275535066587 1.8064092586006697 -0.5370880237736556 0.3772811067839309
Ni 7.032019897507686 1.4389512893810894 8.33202777931112 0.6127815579522284 -0.053488201726127234 0.5752205689793191
Ni 0.11755650155925401 0.6676793767290612 11.347746770950618 -0.06446244134944382 2.114830309188093 0.1843018168072955
Ni 7.718669732804592 5.46730751088236 12.605746714380988 0.11953032885786512 0.4459920389970835 1.2233745928935704
Ni 3.9160466507874028 7.603807249878266 12.89743410879099 0.7146471225404789 0.004744199553204733 -0.5545874661099996
Ni 7.14509998354386 2.584976789846209 5.861952462323209 0.006593336946801548 1.938036884942701 2.597212713888753
P 3.205232340984942 3.0226016429642835 9.197049126726593 -0.698735593516545 -0.7670996839132402 -2.2471415918607107
P 8.403147271891624 4.375348049418527 10.959332781971593 0.7352246895815144 -0.1355300467202311 -2.3963900166082985
P 6.9664146953060895 1.3612220749996033 4.194438478394922 -0.1373799554447763 -1.4096127074916305 -0.3349262959668038
P 6.2281403334147205 7.177350227275053 12.79339783030891 -1.5064718200042249 0.35050898089640925 -1.776793492616766
P 0.2246237830863044 7.758058847413531 11.738796293664612 -1.6612414316803583 -0.41496782270142724 1.0918436400304035
P 3.1788120204152883 8.25702786016768 9.29986279234183 -0.24227222267449244 -0.04215452188086288 -0.34774093123296884
P 0.040280313054015034 4.664792594408418 4.134302078318267 -1.0372892018232909 0.38215411860551607 0.02149082288392428
P 6.5841741122226445 6.409786999818941 4.10676033303856 0.043988746876124245 -0.1735533200415398 2.067421737997143
Ni 4.8681436562770966 0.23644794412269501 2.0794611818476048 -0.13212590613468858 -1.1174014338948497 -0.5705990110469077
Ni 1.8252208321016499 1.449014405156741 5.036401922707475 0.32422382194763516 -0.47653211656746963 0.35369174949976506
Ni 5.757253354997606 9.124488863326548 11.758837118698263 -1.6735089361938018 0.5996784449113671 1.0341288018174384
Ni 7.307827249624484 7.1622091370258945 0.9074767416745007 1.3441961297590335 0.8166877792540129 0.9502912983754924
Ni 5.901376853537266 0.47870817310437114 6.538438922019393 1.5019209674087488 -1.193073370806868 -0.1066285331945325
Ni 7.847299375043917 4.985837550929967 5.8658923021158165 -0.3677549124610505 0.2013276619413307 -0.9258815020725601
Ni 8.251309336811774 5.991425029758503 2.689425247609135 0.8874491662382911 0.13744474724444072 1.9824709468863602
Ni 3.654312807449099 5.671456938024753 3.7347063338486777 -0.36479634405335887 1.2539347250686146 0.35462300306478284
Ni 5.311635565825255 7.75037226082475 9.994392307223954 -1.113908847360559 -0.6911973761579708 -0.8430521281801545
Ni 8.197196881224807 3.324550816136649 1.263831723255338 0.029954637380561314 0.9651170505344152 0.0699723154240795
Ni 4.727352868589336 4.596532363505865 9.23666846760051 -1.7412019686654014 -0.6748505593688313 0.8933315931609971
Ni 0.4500867780417222 1.329909446299167 0.7829577522630893 -0.5231320758141959 0.5887720824115086 0.367971913567863
Ni 5.007374846685973 3.78851243997015 12.363407577203656 0.39333121826825806 -0.6937898194754953 0.399673358436202
Ni 2.551593981424398 5.89710652765461 9.067169950000734 1.9203479523033702 1.9248543248141559 -0.6404273446939551
Ni 7.887217638729621 2.843145839404208 12.360404424110092 0.2744115264111984 0.17317073989114046 1.8821349315687586
Ni 2.231152440516703 2.120541716838761 7.2824810088474905 -0.3324109857441178 0.09388048950024477 0.7611131273125021
Ni 3.9107830099711713 4.054507325873974 1.9136982710634396 1.069658362182616 -0.26727337270452034 -2.542968864943524
Ni 7.614427364682091 8.390289877657974 4.274697396696025 0.4216485771557125 0.5756838817689828 -2.4660093195683337
Ni 5.396123035081902 4.4982313183505385 5.128603828504312 1.5082265979118024 0.6719871217781072 -0.8159771263402334
Ni 4.81054995676405 2.1174967888180842 10.526285532533386 -1.1625764877695912 -1.203741134933359 0.5939549121640287
Ni 5.352918477129982 7.046798938388533 2.4721946982901084 -1.416671928331257 3.024372707780998 -0.08835853124075106
Ni 5.718049906731391 5.577528335240581 11.150448431854747 -1.6039888778157925 0.943875881767452 1.196794785522513
Ni 7.079411231488038 7.522689624742063 6.261534281817095 0.7737570413287577 -0.30447620700706274 1.8160480672420143
Ni 7.909831799273428 4.64095303600263 8.258508549250905 1.1962597389546494 -0.28954606805979166 -0.4181631897102734
P 6.826375856306363 1.6351913303234318 11.216223518759936 -0.323565619538346 -2.029800070989627 -2.1979741289971244
P 9.033967237931364 5.3068639408172436 0.9193751692479811 1.1523540387106348 0.438540982035677 -2.0081225860161935
P 3.6265742558461036 0.7929233932088107 12.168895161580362 3.0724165985631022 0.406023726134262 0.22264930623724236
P 8.561381412478324 8.962077230028555 2.1747609305727953 -0.3336767398304189 0.5588606395640568 -0.590128596439403
P 0.622123354546538 8.548245518730587 5.192530606967681 -0.12275500644274986 0.06752179700105791 0.41865941262040157
P 5.927323724932972 3.6012308000642506 0.7653732929436803 0.8573649452584008 -0.2740518290789345 0.008589284330907788
P 3.8533471268494406 3.5745598299319195 3.8596393592043636 -0.04708769751642213 -1.745466657479026 2.269411201892188
P 3.251741759837354 6.012061843752297 11.49152493009281 0.541401563547345 0.2010965197671311 -0.8762574112875295
Ni 1.8138951851954737 8.178695230172341 7.393364662049237 0.5852823240906952 -0.30231982278569225 0.3238240154060552
Ni 2.917839409082154 3.830018150886145 11.048966922248555 1.085230248478944 0.11427139445177094 0.07402411689594994
Ni 5.725764343271582 6.0583206130420315 7.896222456351744 1.2238458761030342 1.823407078710247 -0.2423436993423762
Ni 2.8335561728025036 0.04558108713879093 0.6870508745971905 1.3047165836071724 1.0235733948990953 0.9902387853027074
Ni 1.2517067827437345 4.1394682443045685 9.536671857501124 -1.7977826932739234 -2.9454632377682883 -0.08553751685218818
Ni 0.34723412249451113 0.6710826407911957 8.025802710265816 -0.45301037929644566 0.6237668533191387 -0.38651856622179886
Ni 2.703357649967159 6.359285754597959 1.3815339728936307 1.9544850031963954 2.494490971947794 0.5389621008679171
Ni 0.9758530140412552 5.907383159724394 10.813258858501616 -1.2846563225221874 1.1666959092546036 0.5557583464896493
Ni 1.5318680105974147 9.276809530897483 3.201114261503319 -0.9187472050206242 -0.2374128376996621 -0.5216881442788176
Ni 1.3161330036690315 6.877387683969836 3.469527451521126 -0.41246793909770896 -0.8220395304842294 0.160923032872039
Ni 6.586680607849422 3.4737615724669517 9.85228514516628 1.5499540595575758 -0.14402085780006163 0.7610380511001926
Ni 7.90443819201729 9.16117653264885 12.703940073057536 -0.31828534497601313 -1.4090591489810056 1.6806761433662025
Ni 4.67490212676975 8.098608053238257 7.543950277647411 -1.4396750740946496 0.42616214875534997 1.1509306760005467
Ni 6.060789975400263 5.01958240872009 2.5508643126974926 0.29384932342083586 -2.743380442828488 -0.10912378881256045
Ni 2.838717697130236 1.9185831525405133 2.6973197805017683 0.09328245090492968 0.2426650872375369 -0.14356937208493983
Ni 2.0507868718772793 1.2890814175341159 9.94713650967379 0.6692848923555956 -0.29643096810508307 0.04735612068646038
Ni 4.611116454726852 -0.05309129070198479 4.435011000321235 0.9677177213820561 0.6199068561431001 -0.3984641686194492
Ni 4.978633696832268 6.89386557188661 5.5627511510231615 -0.10778707227900791 -0.579321221411254 -0.6997591496850529
Ni 2.898260893241887 7.881211332542493 5.149514500353625 -1.8161506542581496 0.5158825933406342 -0.12950543779270599
Ni 2.677420061888588 4.674447244230076 13.05382086926758 3.233284609827489 -2.1224142921829383 3.5872031306260803
Ni 4.456382124700504 2.010710791800261 0.5495742311270572 -0.9758588624319516 -0.47582943407349015 -1.0719186189717023
Ni 7.593057168634536 3.420103999419658 3.640995889017206 -0.49514767478612787 1.1500423598583227 0.4496116380275418
Ni 1.083855125603922 4.418014174976548 7.32328304432456 -0.11152648471678211 -0.02471035826248648 -1.5884894966286127
Ni 4.844183414748539 2.2006196104557083 5.513946896174679 -1.1816065078178488 1.4479663675691643 -3.3515676965418155
P 0.3766056095817658 6.380850900305374 8.574285223297656 -0.05951358198460073 -0.04136622165161263 -0.12015227871258016
P 5.933877746831137 4.080890513175083 7.394655971462883 1.3822057762335873 -2.0690934692726106 -0.7629928608337182
P 6.916424032527599 8.014640449741238 8.493387612777582 -1.4799267225258448 -0.5679340626202348 -3.483105848493834
P 2.96453449427729 6.056788865714556 6.225230013492518 -0.3436315370502856 -0.7796101576754251 0.26443847435888657
P 2.0921161997676863 2.8038495579666316 0.7785769549065118 0.404454067654297 0.3464440667984163 1.0577045322548493
P 3.3410936872733745 8.063322164803523 2.866722679935041 0.24016083275844446 -0.3512191195895564 -0.4977989963660459
P 3.7401092244219516 0.5978781151818985 6.4263864991901976 -1.8264538359563705 -1.0325419169462928 0.04699693757482874
P 8.925723760123157 2.6563654986236642 7.57227924822027 0.23539914970374298 0.004476804824431 -0.4277595751494569
