# total energy = -381180.6723339571 ev
CRYSTAL
PRIMVEC
9.13872674995019 0.00000000000000 0.00000000000000

0.00000000000000 9.13872674995019 0.00000000000000

0.00000000000000 0.00000000000000 13.37545035521747

PRIMCOORD
 96 1
Ni 6.696520919279783 5.123956215239176 10.650042001303959 1.3823057921465614 -0.012974557882797012 -1.009428470857281
Ni 2.7354951147479025 2.5291518006935383 12.31101840459996 0.8418398530396082 1.3094283872605448 -0.6718696223636365
Ni 6.530378864737582 3.7057171918946166 1.9151636941460077 -0.15517404620340375 0.8986926003625941 -0.7231582453352835
Ni 0.13260018530203335 6.276569003307411 4.147740961009471 -0.28312216681131885 1.205144443038789 0.4679464317809876
Ni 0.8738733936025462 1.4714812461037927 13.060378472309955 -0.9871958847113257 -0.813614796755644 0.5395058891865289
Ni 0.8647593412925937 0.8997825981587945 2.5930187073147493 1.3663703518632273 -0.4156337384202003 0.29905606443275595
Ni 2.261524184232133 7.645669092258492 3.3002181724711157 -0.441390278559014 0.37428628582166507 -0.03465152863559838
Ni 4.602637540796941 6.9130904687044845 3.2060152619966127 0.8367261859621267 -1.0449857991366003 -1.0112665525072844
Ni 8.365161058931069 7.669767915021297 6.396180316105547 0.5045586836873827 1.007513256112439 -0.9717327560787199
Ni 6.834899521583304 1.5430009226080426 7.282571937778055 0.42800100173630157 0.19862131875376116 -0.0269022237074827
Ni 3.183311008954553 5.331807419227505 4.5284859109534095 0.15172079754748063 0.12871250957776542 0.47724842590820393
Ni 0.8316186621621297 2.1010938339852507 4.858646179912639 -0.2946221970311184 -1.1668113517865453 0.37534352344158584
Ni 1.7761755387600913 5.695674968383294 10.996880446805518 -1.1759889045207552 -2.5658619674916134 -0.5318491439722196
Ni 6.697151491433986 7.5409849759339105 4.7104726901471645 -0.6475397873690202 -0.8875556099091683 -0.41161716106163954
Ni 5.929571543958271 8.42502885867287 6.703240625149139 0.5076067264850871 -0.5162893418607496 1.7508253506877782
Ni 5.270678475177296 8.006420335550757 13.129448970012374 -0.5085852883482724 0.5855769725129786 0.35088513328890536
Ni 5.969434670576152 4.919879305449194 3.875857439443539 -1.5753161924714483 -0.06803653185394734 0.9510708568539942
Ni 1.2063667795323278 3.3093523299801872 7.278826887505701 0.7954594660028558 -0.3143862670319231 0.38097886735049225
Ni 0.3539812744251101 7.338479927165999 1.7009025871293022 0.14292736762556674 -0.21186275714469963 0.2543818614538329
Ni 5.677415792092022 5.38239941119371 8.370530974841355 0.2512726264008899 1.029762811539259 -0.6904574126681529
Ni 1.4592079359140142 5.155612765125545 2.4719433704716365 0.32988847643258024 1.8991294092442257 0.5132695811978192
Ni 8.545449862671912 5.016822920112761 1.1128657232816337 0.25293767280813856 -0.025940374014845644 0.05506865883936968
Ni 3.4285670220320577 4.834386515556879 7.121972521084031 -0.29582598753123246 0.8681766911619241 0.391925339059667
Ni 7.147663310068026 7.744029209587299 11.09083021454565 0.07213821272714674 -0.4465759365250115 -0.4532386932571678
P 2.981070983265945 8.286504036739391 9.311533800558598 -0.18623708615679538 0.22336047337165404 0.2315350387626464
Ni 0.8581164007289674 3.1125772629613393 1.6950976678198852 -2.7867240999214458 -1.6719709022827205 -0.5798616672957562
P 1.177205102082154 9.051570834325165 4.900256631108544 -0.5230947948183572 0.6709555951897994 -0.9609798884375902
Ni 1.9090709049401067 0.009161573689689548 11.271184817119977 1.197816284808492 2.3495278048391213 -1.7674290206827301
P 3.9111923268960926 4.790091106405831 2.4600264706298858 0.05052294845021622 0.0807326392643771 -0.7956702964620813
P 5.017517463355072 6.1092846079061465 5.857377429410829 -0.25719644808449255 0.11154808198333693 -0.09506293984412015
P 8.629663230802077 6.064897811486373 11.449599267979268 0.36469067171342995 -0.5112070422418357 0.5517901058705207
Ni 7.947448131042461 2.6566370405650286 11.33489179602092 -1.1760117873388907 0.09458805709023065 -1.6872741082986944
Ni 7.276848353137804 5.557058759181088 5.86253989622111 -1.3451376677366964 1.6247718759994147 0.10977376369173351
Ni 5.83261879056783 0.24381118035896107 3.521274836790218 0.31825320618649705 0.3025756475502402 -1.0203880551925781
Ni 8.327472949308845 4.343892766855614 3.4220684733530176 0.15085870665750148 -1.0956547862463777 -0.7374409805065429
Ni 1.1871114820119526 8.123999195492448 7.639790149261408 0.10088880249727786 -1.015376975131232 1.2608049698258867
Ni 9.118201291952625 4.389010661425187 9.60337264612334 0.12107607607843018 -0.385769089650284 0.7806910494444297
Ni 7.0276535487782485 0.6963408298864515 12.559400776140551 -0.41804054808948005 -0.34452216718535505 -1.6143789628008647
Ni 7.216852611219786 6.433362140259034 2.588845050752075 0.9955797378996468 -0.9770240863846464 0.1198987679408774
Ni 4.821592297935367 8.516077994503672 10.715969690834921 -0.7615286175833659 -0.9978222540769204 -0.1962520471906362
Ni 0.20492406977106387 1.1519456610065408 7.1367123736566995 -0.9566023281951848 0.24693363270590377 -1.3039048863391545
Ni 8.03182599625633 3.449878533098747 5.542559255125167 0.7060105299114035 -2.170667470762371 0.06912076605706159
Ni 7.762608241319109 1.8591917336699566 2.5592182121040903 0.3875400655077777 0.8922566149292633 2.0722479557411924
Ni 7.698024858511093 0.7112131939987714 5.15332077242592 -0.18372846080232874 1.1385035059807875 1.2374637239967852
Ni 8.631893080158969 0.4377669501376405 10.881009614916298 0.7462940600217985 0.03821713449966967 -0.5373240510438617
Ni 5.655281795606807 3.836812228880748 6.285004048210736 -0.7024953176692934 -0.3884695193005826 0.008118772452392469
Ni 2.633452090489475 3.8899722030981283 9.494536806180577 0.015417877216966995 -0.780655568220804 -1.0551974495622793
Ni 0.6575505898034029 8.010980560260139 12.620005157268276 -1.8500835595601686 0.06273620268695647 1.0791873847189735
Ni 4.717118372328852 3.197649671417519 0.41207981664439425 -0.10599424204464326 1.0748908142261488 -0.12570303332748026
Ni 5.403582980084185 2.9823869599355866 11.453291313635761 -0.17749173586399752 0.46235119708139727 -0.62170200037031
Ni 4.264541201421625 8.267001993593457 4.9738617650851005 -0.822802633902499 -0.8198900882413944 0.3965744077959041
Ni 8.08618314369401 8.982344978265916 8.58085968768482 -0.6489461807982436 -1.0181622511858528 0.43475117597594165
Ni 6.90925220341803 4.3965683885487525 12.946713729087758 -0.1366371637414808 -0.26470612619797634 -0.1762918020186254
Ni 5.664319996483718 2.9604357379878214 8.747865351916474 -1.2171088144895166 0.7882027844404426 0.32869239924195004
Ni 8.29222487976158 8.659793613300737 3.408934295091848 0.780387916381714 -1.184186352729883 -0.7493336181790707
Ni 0.23593725328560797 5.293726344349762 6.558612047537509 1.6438057527024144 1.2870803585826478 -0.07524461956661234
P 3.5561619266260185 4.366428867323219 11.385718653267748 0.5454281682082349 0.17538908769869793 0.48082354485397183
Ni 5.121653256067304 1.2458826345290535 5.5416764541092824 0.7669600730115824 0.7759507065459669 0.10218489560088206
P 1.3985176507536867 5.646782779615375 8.414215003164632 0.4799097747904509 0.05186712118293648 0.48215974716689225
Ni 7.396976917876924 7.039963413875516 -0.022632970972453998 0.9654286682375631 -0.47957707404138045 0.39632655345115614
P 1.0301264317960055 4.243768875240414 4.791808273185175 0.10172621079690866 1.171732957457879 0.13240641348958485
P 8.088239357240324 2.577733272747792 0.14304940560805932 -0.19685908464701582 -0.10102687073703892 1.261568073244156
P 3.4655148947776087 2.624815993594955 7.631643888127254 0.283090542242435 -0.264545432250396 0.5579764371868906
Ni 6.205478846966169 0.9653145808161768 9.907209726198996 2.260283785669624 0.932949207552619 1.3233563101955468
Ni 2.8336450413586416 1.7085489599035302 1.2470825493674138 -0.004563708111282463 -0.5095594793360838 0.23862742683305355
Ni 1.248788749674511 5.964289567346929 13.33953733433909 -0.4582340895892302 -0.7293270931501568 -0.3588977191807367
Ni 7.649754103170504 4.033715238075811 7.722476436131175 -0.11317970404948895 -0.48427010864167563 1.2967027121637602
Ni 2.910785034889484 0.6320846135004713 6.468688802857403 -0.8068535667724104 0.4671298494169633 -1.1518688715441001
Ni 3.119257672305143 0.9235323215550689 3.8512870583741132 -0.6841263282438024 -0.5352820809131684 0.4900232090753689
Ni 3.7298434308380384 6.162928934647769 9.525447635954148 -0.2604974874332675 0.5588554973577343 0.220351254231685
Ni 4.06628566064943 8.782709489735971 1.9016548280830663 0.14086302889737032 0.8179221658817462 -0.5615127324749233
Ni 3.4885170703157122 2.924072743762111 5.448115082261229 -0.3201709920345002 0.06813834753913425 0.8335539588817321
Ni 4.6319911315114375 0.7411589742146065 8.315102768614217 -1.0705109399908983 -0.44438278552843463 -1.3860750293810065
Ni 1.7992691015669198 7.212767600307775 5.62033713179171 0.11903513438900147 -0.7201541684016372 -0.153331079457394
Ni 5.081113863660857 5.766107136389715 12.105331251135041 -1.3687985016887458 0.13616536631138487 -1.0988457823798496
Ni 3.032275269932609 6.740066952827284 1.1077306726519713 0.1611328348899999 0.31774824152562053 0.14986883194040643
Ni 3.5343934792157037 7.562726007163608 7.136685871348769 0.9976492188341657 -0.7423702994873602 1.4243392150685277
Ni 2.973385313966166 7.274243815979139 11.811539459637645 2.0331461046437243 -0.08337701886575963 1.6211543338514853
Ni 1.9654202948359927 0.9905009120768096 8.57345000793659 0.518755801123371 1.0518102782576015 1.3915303960686227
Ni 8.078259867495545 6.424917956628836 8.369474538014893 -0.2704283733937342 -0.03769777166108991 0.6403000750874714
Ni 2.400972017579737 3.1939667644878975 3.50253587733814 0.8176383160927403 -0.005369234731713334 -2.0041540882867483
Ni 0.6748264390831925 7.482743869575415 10.037232790522982 -0.6260859883706186 0.2953025109275947 -0.7412032757624525
Ni 2.5398166949537555 4.045019843217104 0.6791335210582056 1.417096417463185 1.6982920566757527 -0.16564357827615991
Ni 4.709898778099571 2.2292005072840717 2.708461846786336 -0.29574319800943905 1.4652981739793924 1.2783532631222951
Ni 8.31863580042313 0.29717494818559864 1.0384307929050538 0.2502228449801368 -1.3817064679996656 -0.48237134895706596
Ni 5.32213864619639 5.921182192689308 0.940663778950273 0.3773209588829308 -1.1415227524230858 1.8252844982386176
Ni 6.029640603212236 1.4215198262917899 1.0634462299731706 0.07447328861822658 -1.177607671071101 0.08578100032156194
Ni 0.4775414311048583 3.9190333545527047 12.331576884572355 0.2491918326124612 0.46110498337912204 0.46601219087275225
P 6.568834627417097 8.168550488995926 1.7947984363808887 -1.2111250861022562 1.5927896666658632 -1.1372269532612094
Ni 1.1599511857468583 2.1671851067272305 10.665303675181049 -0.8531357376684018 0.6716492788227142 -1.1887963406980688
P 8.280472477003535 2.2514807233992467 8.917078932560523 0.15116235394084934 -0.4985019359703414 0.40886196691400545
Ni 4.49620792763971 1.0907344684144804 12.603593831550626 0.07732849867883457 -1.118771574769499 0.0664578745129178
P 2.781261858925424 8.958849311476698 -0.016058570860371546 0.12207289277406073 -0.4743297095995122 0.39565858084985406
P 6.142083498651578 7.559874724379386 9.142829247001346 0.2412309258941716 -0.2355161348975815 -0.8367374988160364
P 6.347467246384329 2.7964412842606605 4.364556342187043 -0.07655099708286171 -1.1021463075079923 -0.6812199532302848
Ni 3.5581633078110975 1.4946570574524738 10.342888477246268 0.6434419631505628 0.7192833357609096 -0.4743225105106605
