# total energy = -340861.76774407417 ev
CRYSTAL
PRIMVEC
9.31306731666540 0.00000000000000 0.00000000000000

0.00000000000000 9.31306731666540 0.00000000000000

0.00000000000000 0.00000000000000 13.63061539721215

PRIMCOORD
 96 1
Ni 3.3090725712524205 7.488469924539602 4.480710475884839 0.5548252931524187 -0.02682946148801831 -0.37423383531717486
Ni 1.557489465962712 5.344480721027976 9.17840704226647 0.2035228698204366 -0.894535383661111 1.1020069537166504
Ni 6.20666588208621 3.392964683102024 12.089578805484441 -0.1531726995026588 -1.6956625894727055 -1.180538728674967
Ni 9.185525019740565 4.695732440450338 4.8400542532500435 -1.6737583332004464 -0.6933861562791735 -0.45858710205327474
Ni 1.2322398973308795 1.715979248318013 1.2752010776108773 0.8169662297263801 0.1707940121288478 0.30624692575424034
Ni 6.4998598724557946 2.157753917245387 0.34399863608028064 -0.8775511903982887 -0.19170273725705694 1.232573228673703
Ni 7.625232320466715 6.803987404045564 3.263374280440385 -1.0174873366060153 0.20201106116160047 0.18101980362191405
Ni 5.160845656479743 5.265021629298312 12.665895635051967 -0.3774083763904146 1.0279620108850942 0.6871481457892616
Ni 8.426668342360323 4.301426476462732 12.164316172002321 0.32372399949308117 -0.06871761708137197 -0.12472935656030132
Ni 7.406310043241067 2.9552039462580404 7.474334550720183 -0.2994507287680133 0.18095886847699158 -0.705497851941043
Ni 7.154847908244272 1.2361793248744388 5.191792048405259 0.8292159936280107 1.0949934985132947 0.19513310309484458
Ni 5.287987653701189 2.4726194156382864 6.107633516436219 -0.2740541430717796 -0.09192233733260943 2.7793599462468905
Ni 0.3841323690736954 7.649809505543435 1.9715735913551806 2.3404628664233758 0.030909030874030637 2.1118172333933822
Ni 3.15828469570214 1.3925736670469955 6.681591346011348 -0.5684832502554854 1.3265434496742767 -0.6737035902485817
Ni 1.4448199756034203 0.8199010407839501 4.501770115374793 0.07625429177804932 -0.3379000338831471 -0.15195013994946735
Ni 6.140692112065941 8.327949827084367 4.7434544608255305 -0.14529586785774332 -1.1170805602203215 -0.14965902992244548
Ni 7.9343609692926345 5.624049693675983 8.20643478523365 -1.0336958280450779 0.5162188936341303 1.220440192855595
Ni 5.086387681986229 8.208807754827266 9.61151962713175 -0.441620135181633 -1.8536949310605106 -3.5440091117371098
Ni 3.0698850591927664 4.828341208281876 0.24743143939194392 1.312569761103004 -0.09981665247902165 2.643216434312377
Ni 6.068925614073819 6.922682449063681 0.5093912640509151 0.06236699227299581 -0.6279394966395895 -0.012880712617410075
Ni 4.199131743274894 1.2967887680268835 1.4545642381065553 -0.14857351016775058 -0.528162953369884 -1.0156857646209023
Ni 8.935385340325768 7.083425993748866 5.269200402676077 -2.5480971873090246 -1.0057003712734165 -0.13977930891488832
Ni 5.293985269157578 4.894566431124075 1.6294580575191264 0.05208077985563934 -0.1564804237196531 0.6091359907798413
Ni 2.140468864004616 7.302599723796443 10.993718537007295 -0.6984003216643133 0.5377572819265384 1.6444891519226839
P 3.8775701493646912 4.216966267496917 11.30784923437611 0.4207911142514237 -0.7663273245235899 -0.5272430126587758
P 1.2673594747936745 8.046732441492601 5.384897571272748 4.108886132698575 2.181416224638443 -0.05070112589929333
P 7.0913141619034645 4.412857328847335 0.3180338039492089 -1.7429567465729792 0.7590163926844734 -0.4296076841017892
P 7.615854061515499 2.3865107937287133 10.634919574089603 -0.7583707886806745 0.14178399804974293 -0.27533275267388707
P 4.296145967202216 0.8632105297876573 12.729072690908334 0.6146170684990705 0.08368452280384941 -0.3841462093348803
P 3.6431136755843 2.643681839090053 8.613185801293263 -0.03252085544584077 -0.5297796630377005 1.3958668186604475
P 3.0985693070276668 6.777687301485253 13.155288949305518 3.5259926205550305 1.406211138009249 -1.157011592087304
P 2.7054554156773554 5.742251146117719 7.530124481452315 3.1283028682077605 1.0335289634499103 -1.4669362238034478
Ni 2.6544570581630977 8.946244377006122 -0.10438644814359058 0.48376977196648946 -1.2071740718743083 1.4480059625578483
Ni 2.870073196433748 3.2434526977963474 1.933134836642919 2.701150587625 -0.6263065890218569 -1.2623718000923745
Ni 3.2721369456312477 5.132720192693576 3.1162725169982384 0.48574437919435703 -0.8851056057067789 1.4174836255992749
Ni 0.04832178192083168 3.426612795903158 8.9068845599202 -0.31395252192861417 -0.8517671394556492 1.3684105222217078
Ni 5.0970232050470905 1.2392153848725487 8.376844362655149 -0.47693397999157855 -2.0964060410446343 -1.3744744690276005
Ni 1.2472153098368925 3.1720494094359006 3.2936473375871786 -1.5773265380332577 0.21192112118646084 1.95365916486099
Ni 8.34315806627735 0.5716444636133788 1.6924590964001427 0.25874245241537375 0.4103606629467191 -3.227615584467171
Ni 8.494327777594265 7.565712506209297 0.20724834714089113 -3.873060951201007 2.415335190252234 -1.3058550680869898
Ni 9.132431222043563 0.9240146160504099 10.269033366820496 1.3618516380572674 -0.21508537784705536 0.07061971920009127
Ni 8.577111634413884 8.859427961968155 3.6357898793189216 0.3625039484747563 0.8082951843149434 2.708226006414542
Ni 6.985275575589124 5.914850225703499 5.263843526262235 -2.163628561637719 -1.1853721455078683 0.8399405791343664
Ni 3.117661095359337 6.872969294861507 1.7998275887504656 -1.3587568011820277 0.5375593069831194 -1.564846403288376
Ni 2.521717907386855 9.192584324889543 2.497387518598324 -1.0793542493141413 -0.049203715418160425 0.1562855341000276
Ni 1.8735377239254272 5.747298828691263 4.8355150641608455 -1.3745444030335874 -0.17647383612244447 0.8967244208926299
Ni 5.748649223475699 3.1444641035635064 9.572985879131206 0.24785974406459896 -0.7859289008046013 0.7279101581979722
Ni 1.9166572263525659 0.7931082769540073 11.717735960255855 -0.41823698037100226 0.3485459436327675 -1.2901793092229459
Ni 1.876890428217818 1.4664542313568203 8.998728168783257 0.3383093535064238 -0.9008790664909517 0.23281519102665066
Ni 0.7252569925299988 4.505121888360437 0.8524408985550994 3.5999786851241935 2.0812378179446287 0.8805748077159609
Ni 4.704049009708963 4.324699832092412 7.856768216285733 -0.8495660180392723 0.28981037746477184 -1.1137401829931786
Ni 8.306734659367516 5.754199811693102 1.4966146003871201 -0.7528100067634454 -1.4646397144597874 -0.19664234065051941
Ni 7.150237939842234 8.90078729464179 7.099955757217102 -1.5561079949741137 -1.6111632840770447 0.5544038893442839
Ni 4.909830548721933 7.535575419847694 11.756828492305134 -0.04844215466178754 0.40303559004021555 1.7064357688288097
Ni 7.663034061363422 7.643923646896794 9.89022434711772 -0.42976143607083406 -0.034509089520463145 0.23178906375498146
Ni 9.025452015913856 0.145916209952087 6.2328989305606735 1.9948621214618614 -0.4801882252628182 -1.9902297648961724
P 6.797403065338008 8.366869136078538 1.9840046738259678 1.2844064112949105 -3.182585026590093 -1.5495437114930346
P 5.683550881798442 6.019603608705756 8.507466653193447 1.1486549925924927 2.275153503692604 0.3670275473767228
P 5.2505677485711155 0.27975244007734007 6.342188708731886 -0.8076768340046541 -0.29469855879500856 -0.42723301322202556
P 2.8617938794450386 3.322706902041477 5.089658431284806 -0.9767453788019629 -0.43016612770842044 0.09907051834161648
P 9.133008632227252 4.388727171009599 6.995491079306689 0.29322737356612083 -1.0988115867078043 -0.779498057577593
P 9.339423459828787 5.3224832556429 10.49474300762474 -1.531328988257221 0.3534855470262299 0.3902574644389408
P 7.178959439947049 7.477787836141346 12.058597023902507 -0.8072965678470999 0.3235828459295266 0.017236932703576763
P 9.348177743258917 0.5169488183100129 8.191631664475997 -0.5040678600938933 -0.33878012249525524 0.7230065502487678
Ni 1.1299731033454785 6.741347712182728 13.492442480788835 -0.4310626713807608 -0.36560521310789934 0.4154979841732844
Ni 6.216798499503214 -0.08603877390348139 0.011787549507997661 -0.16764698185943386 -0.23100487729078925 -1.2765329220841048
Ni 6.299181894421242 5.194856978912554 10.455649544268713 0.44962217955050304 1.7988874963023276 -0.044982221137645106
Ni 0.6934752184516288 7.632086738131158 9.008978130850496 -0.5834722674651499 2.0973534925595687 1.214697891055179
Ni 4.035901609572852 5.379479228613546 5.7325189906023075 0.24228713507282787 -0.975805640596513 -0.3905505701993274
Ni 3.8718798651351056 0.3152911055766836 4.496945015113994 1.075035310223813 1.6725802537319454 -0.06781156032733483
Ni 3.2065077591076956 8.454253648232715 7.165873648832498 -1.991408872805938 -0.31186761437512744 0.9910929057728867
Ni 6.391614089148963 0.6059146893221011 3.062840654951754 -1.8739048303494823 4.2151575396640055 1.0411399430279489
Ni 8.699019687712209 1.5039020756893309 12.512223502503481 -1.0259886892088073 1.1782054525561 0.4213032780011518
Ni 4.78660003984161 3.0213732906953665 4.082437145151237 -1.002208556070074 1.1524671672497313 -0.9304058723054751
Ni 5.508884301232355 0.6219191957845281 10.781244627704012 0.3713909665517411 1.9541834127955762 2.4314809467741605
Ni 0.750134989686287 6.384321957313013 7.206056741083551 -0.2825688654110102 0.12296815089482048 -2.1072265286989063
Ni 8.56739810503343 3.0287958054760207 0.9979734101270573 -1.8651309408115941 -1.8835631793748528 0.9474697697662974
Ni 2.9867659319439093 2.65378651730462 13.085636517631098 0.34092236564923867 -0.5450995812242225 -0.28961934449988835
Ni 7.331032518809414 3.9730290910230432 3.2022954586870056 -0.081174354787486 -0.6081430307389527 -0.4432106195972045
Ni 5.007617757250001 7.317463379492708 6.650622602723882 1.8593652419724107 -1.1762529568154194 0.7021762437669778
Ni 2.1887664319500026 3.610555191678193 7.510524199636299 -1.0209688673967128 0.21950021908529938 -1.547064910935239
Ni 0.4135123030492664 2.4191251560396934 5.88492268336017 -0.07322141848899648 1.119541620166304 0.5152863545175319
Ni 4.670000435006237 8.37611701208505 2.2894388287830223 0.7236786366151279 -0.1773899201788106 0.6301570731161986
Ni 3.678978298445404 6.011436048526792 9.897135574493785 2.223479215246764 -0.5701884058720503 -0.4119377776258519
Ni 2.005746029855375 5.163285680159206 12.013030047341923 -1.7672654985216725 -0.38625425681681863 -2.3907641857810886
Ni 1.8872651853892721 3.1902098910196846 10.764492281923033 0.1201103697310512 -0.6111684478288378 -0.36426258303707587
Ni 0.02541442984307088 8.288890822078013 11.828144237831278 0.080986407146396 0.75911358038397 -1.018006442334279
Ni 7.160566131676294 0.8126824821810829 9.012181826063225 1.3591748625560527 0.4536981493920896 0.9873393522677253
P 6.836583140221586 3.6859258467846363 5.276261570438552 0.34539299982608257 -0.04005418770840844 0.5260304804079134
P 8.715652826229459 1.913025130035809 3.280057709522021 0.24678630849476205 0.6601435921759599 1.0792305792520833
P 0.5153730472925891 0.17736271360121786 0.06772369539954823 0.21817610095723716 -2.56518345336735 -0.6812248383262913
P 0.9706917102544743 5.5952909413012515 2.79780658671801 -0.001287608463171976 0.13918949784968931 0.3288286677094982
P 5.085707828060272 6.237706335993264 3.690257354469056 0.7037021934932011 0.5385445537145241 0.2786070525497847
P 0.843708035180169 3.1974647705857193 12.917612016790937 1.1562711143768538 -1.6327739203682847 -1.6476467237150592
P 2.8157966391669307 8.52673725242071 9.50428710556662 0.6529874407471528 1.325336573850369 -1.3051361876430942
P 5.5463507716998235 2.7078302478844654 2.2415277531380084 0.756796245104703 0.12225389843661527 -1.5878294944471105
