# total energy = -340860.33237024245 ev
CRYSTAL
PRIMVEC
9.38154018244811 0.00000000000000 0.00000000000000

0.00000000000000 9.38154018244811 0.00000000000000

0.00000000000000 0.00000000000000 13.73083235762709

PRIMCOORD
 96 1
Ni 8.15410653024878 4.825873744647453 10.075354995800899 2.13896088368771 -2.152158613324907 -2.0807241115330037
Ni 8.081371447808715 5.028768318094025 13.12406666257271 3.436843217981868 0.3588997760632658 -0.6656449816101633
Ni 3.019411239907784 0.2232497015737762 0.012746698892211512 1.750137323481818 -0.7860160612017688 1.1906164246259432
Ni 5.043863216539281 5.736220895383183 6.559287823498908 -1.45971502346466 -1.110919425714932 0.6952337510108737
Ni 4.153057814381218 5.365105921674415 0.6863037708471815 -1.3183629707460134 -0.5844289749514645 -0.6025110292641559
Ni 6.336808346388994 3.1156095547975586 6.2380404275935915 0.526671456426022 0.2582467437258778 -0.25136647166627674
Ni 7.023912362629203 5.175945923320355 5.330364201399418 0.5660800401306315 0.20202340245677466 -0.4767174931053983
Ni 3.750280141944833 3.7731054296498083 8.099145714181855 1.2177582751480576 -0.2371595840382754 -0.7427611071678756
Ni 5.383850239321164 9.1662621570118 8.646209601104466 -0.7746109046886207 0.2588854057511412 -1.1380697608774786
Ni 6.276288029502518 4.337311267125043 11.893770521118007 -2.269892769514297 -0.3549382203123565 0.8797044892958656
Ni 1.2092336451840753 5.722899108066675 2.2609465368907986 -0.0850477216999632 -0.7519579431757953 -0.019437797009637492
Ni 8.566087493781994 6.470514059652995 8.28589840927858 0.5090226329960071 -0.1230062032216075 -0.3035133288731612
Ni 2.3216497938143688 1.8348698089610689 12.312492121402567 2.132712845895469 2.195142830195916 -1.9210521774592464
Ni 8.45348086479604 6.310371165643979 1.5707109624771745 -0.40826084299489684 -0.12175664708522256 -0.4725062832375282
Ni 5.36246032729184 9.010481679271923 3.4203782750539684 -1.035263943863146 1.0948574871560628 0.19557816105206316
Ni 9.171919225851136 7.823182075458269 12.098867880241986 0.8840735648978387 -1.8624855327689473 -1.7069474183579054
Ni 0.9244063271248285 6.738713535571552 9.9351084725953 0.5412213292157388 0.47531932720629105 0.7764495005592563
Ni 3.399992187843564 7.830724833910715 9.860824497841183 0.55009729154913 -0.4605437115590133 0.492592769574758
Ni 6.369831368469354 5.023064341552873 0.5671037952935928 -0.9892820778163931 0.3536665526887845 1.799114524711469
Ni 4.572722259472332 6.568260328702787 4.345203957033055 0.21014757422580582 0.09912168329452607 -0.8197183385502206
Ni 6.510629526248342 7.401416165325677 7.126480743425955 0.548759546574313 0.7499005464261342 0.3215899838692139
Ni 2.4011302037759616 2.6501538111910365 5.587171672854287 0.23890459175384018 1.606421141406369 -0.7921345153946809
Ni 5.775210577134879 0.3179891869369895 13.381231570715439 -0.45955152284907314 1.9248283566722273 -0.13923526348596021
Ni 2.2740197133876685 6.920762326329898 6.229225532267822 -2.434288334315969 -1.740531424960938 -2.4039675718452407
P 7.342997313480677 6.037565353406827 11.33614771051601 -1.1790886264920015 3.6476353677702082 2.173737882157579
P 7.209901400340319 8.565974915297629 1.114306529013587 1.5568320176243318 -0.3766270181396998 -0.40255967884506155
P 3.458664341278385 4.189270560185249 2.295039992726661 0.234183532129087 -0.09417873746695395 1.8967357122010686
P 9.085768540690925 4.051943572340845 1.6415481593016548 0.3676590103131345 1.1092608070655865 -1.2157481866965643
P 4.201175734906833 1.3567958935653182 2.0504801222166527 0.12694461904406526 -1.0223415793745232 -0.9039728749249271
P 6.366510303180591 7.827741504075046 5.040931485175612 0.5412447262545066 -0.11131796825040184 -1.0636720626921938
P 5.410568866277092 1.882893914083046 7.670825859951155 -0.6879948100602732 -0.994384946260597 0.9692061330021243
P 3.898733636660631 6.9322171871140235 2.167370362532689 -0.04889544014912224 0.20007707736368124 1.039694468830674
Ni 2.4905456649827533 5.050130085502258 4.119263629682959 1.8925404431727986 -0.7395222885156039 -0.8470332243150895
Ni 5.318076259830994 2.345750971008813 3.46850463896591 0.3259546885958129 -0.571351572942216 1.1722980859327294
Ni 5.8203357862844625 4.853483617937935 9.654175431941042 -0.7487216956266848 1.146656216994909 -1.463715402873305
Ni 6.722333366096465 2.56541973862575 9.43415298025239 0.25345266477134415 -0.047332980758008805 -1.0185108927745232
Ni 4.884630331945547 6.445540399204724 12.45002081236479 -0.8850652393871467 -0.477390607913023 -1.1949294501790002
Ni 1.6355871285545354 0.13749491741691522 9.586729661958053 -1.949745688739197 0.4055740401913532 -0.06642702127498237
Ni 6.601152009218055 1.0854536016249092 1.8472496896250583 -1.7152137721317557 -0.5210353411861672 -0.5018330572261035
Ni 8.890266621050978 0.9761211302259006 2.1448659235081533 -1.0026806106104862 -2.0488946257272325 2.187629038317374
Ni 7.6781622245155985 0.21515718485601532 8.46699403553597 -0.31069416289231655 -0.12646356564258865 -0.19703134855882193
Ni 2.415465197451754 1.8661384829934093 7.990067482526705 -0.7731309777089846 -0.16320077316262216 -0.1908283050719036
Ni -0.04896225915835128 8.544378609380303 0.4312619052887683 0.11796684102548716 0.724382861771004 1.535272032065369
Ni 1.1733773979138664 8.742113335626819 7.564082693692539 0.002960882400536836 -0.16268629542004884 -1.2123641007156798
Ni 3.212445814432068 2.7641770527719145 0.6966168981690393 -0.7605495414995482 0.2753890598331193 0.515554520577254
Ni 3.528828881658785 5.258888121676167 10.588737276509617 -0.49173427822920474 0.2768185931907942 0.4433939392526042
Ni 7.873438987186816 0.371873002170158 11.862478393234758 1.2499798541859246 2.013426771837926 0.11098552461164757
Ni 8.10012514699583 2.4541546699118113 0.3413623565992076 0.22232174769449456 0.30830020873884323 -0.5439641820681986
Ni 7.498167991096913 2.991820129698029 2.672143203649603 1.275891431845364 0.3666439387850589 0.8266649450713827
Ni 5.284143228335352 0.09500873557165262 6.18418850959766 0.08338318951334672 0.643814001778001 -0.4015021841148247
Ni 1.1832186337554282 1.582534517797594 0.931516596566506 0.6277728891547382 0.4054544838943533 -1.2409629953992949
Ni 9.241436439946439 2.123267741282754 9.21721986980552 0.27811185808092104 -0.7029370331924023 -0.45142195176340316
Ni 8.661751060871035 3.108132467127659 11.69188633956861 -1.1664033177148492 -1.5017998684498524 -0.11697773763934047
Ni 2.287416553027087 1.0989817828294202 3.3871901378632066 1.002930521837763 -0.024673334376963958 0.8844659152402509
Ni 0.6197773918198389 5.097225418128224 5.160211203822294 -0.8788843073874153 -1.3521922605906325 -2.700421936989091
Ni 4.489470470284517 4.059992933972932 4.788051126517004 0.6882256951241567 0.057587054385849205 0.41372777964673907
P 1.9909692590733137 9.053739961889121 1.9080777210354658 -1.179281202118782 -1.2697583223644324 -1.5981666147070603
P 2.9785077239218842 4.594778260867482 6.280194502909978 -0.3916322332992804 1.3586760685427632 -0.03940138461575795
P -0.019210580202827343 6.408023619290134 6.412395417099636 -0.09983876396620871 3.251360493492594 0.6618816579129891
P 7.503890730718793 4.529445213774407 7.9116650115529055 -0.014479424563097644 -0.8195028801053048 -0.25924613152466963
P 3.8886578623099757 3.6545039963714263 12.583374717865151 0.5046443014226535 0.9305963910497264 -1.2192112055445004
P 0.40267822810852977 1.4752753668189718 12.576207221027255 -2.8379592439473385 -0.9396266195727947 0.9036661423177856
P 1.8341286672723336 6.021241473173922 11.983734802436077 0.45700458805750327 1.9828141891583915 0.0020401703584803574
P 8.345536861370865 3.3423520038487546 4.724230383730564 -0.17290694470679255 -0.1326354987812554 0.12633861002895017
Ni 1.1067403167102319 4.979777914314583 13.749231873023446 -0.2239698248208788 -0.442723909768773 -0.16512730076137366
Ni 5.909601142845434 4.539567895826881 2.92421393537482 -0.8293190948647783 1.7381390134693615 0.0010605800540304314
Ni 3.361424675408235 8.61277942017232 4.7726175544646186 1.1282610023171729 1.3487413259275547 1.0750281111349616
Ni 2.0739396020502174 8.937981135340952 11.693259797077861 -0.27733872736032233 -1.468828041509522 0.7224925867268266
Ni 7.299663978540569 0.8371185992725326 4.302529206226482 0.5222825833297069 0.2929432666667987 0.3217949007911684
Ni 4.284258656368101 2.9786390654869765 10.096515060091312 0.7825221891158974 1.4170182559270823 1.9899770254554179
Ni 6.473675638755576 7.173360300623557 2.6674064639199515 0.20520694239107884 -1.365133908352965 0.29450881138170576
Ni 5.488801531370307 2.7841409706659497 0.10286952824242912 1.2879859011160528 -0.2285798127890644 -0.42986093776317585
Ni 3.687376913805966 7.902268460724584 7.425194617531608 0.987022849468571 2.211535412621327 -0.0578953296548874
Ni 2.5980674990915604 5.813036947881473 8.193654413652121 0.21425491152596007 0.30142070801019055 1.137638329767015
Ni 5.313901474369129 7.67630467952358 0.6888893233714278 -1.5497087763159891 -0.6968468611342644 -0.048812136406696585
Ni 9.580147573238852 3.535686787664678 6.640944750824888 -1.1667563301788937 -2.412029522917768 0.8067633210514493
Ni 0.6650620871556047 2.768576995202508 3.1302044171414267 -0.24151040480780345 1.691586619631119 0.7981028171629739
Ni 6.828457350691075 7.214526499739641 9.49533751019662 -0.5547859552740511 1.170437635685223 1.6504787938472156
Ni 1.0808285022255861 4.318182306323379 11.002227729887355 0.6085153264767069 -0.09116231923813332 0.49577245285432037
Ni 8.508128337414817 8.547446373079246 5.973008159701833 -0.09187580036539016 0.0867186816444829 -0.2500737209967822
Ni 1.8786816024597275 7.326251263931404 3.8783287863694995 -1.3452960476914315 0.13960498812055314 -1.5034428033699139
Ni 3.7352321512013957 0.9428072803942652 10.065277345142173 -1.6792250127419726 -1.980761677504737 -0.07690529509848691
Ni 0.769347289838922 4.268713443985386 8.721124953525063 0.6133608274944662 0.9049192979985964 -0.25931452286875983
Ni 5.79807339100131 0.4021406658456876 10.722159667254633 2.9603866918473405 0.8822097722162227 0.16498151921212875
Ni 2.2925107294445968 7.181456569957463 0.39408192267323616 0.1940018177038788 0.1866024399160141 0.07768485357698879
Ni 0.5135999324451557 1.3917984206624263 5.217180607681095 -0.9840488544419116 -1.1120363129281945 -1.2690206728674598
Ni 8.414716340013072 6.797366925925646 4.033582959694972 0.5050474503983431 0.3040270352847861 0.5608342183506599
Ni 6.679028175777448 7.825574368251023 12.422147317790088 1.0844622599646678 -0.9216769770729094 -0.5613818633240139
P 6.467005363556957 2.318422543929243 11.561937933220285 0.5135302910583736 -1.9362877634620783 1.170275913296378
P 4.852085768423738 6.628574251701263 8.624665831813177 0.06842991063762408 -0.6857093564602061 0.7860659406030978
P 2.708094204477485 0.6893152453039416 6.167382418190059 0.14384756544699095 -1.8293553258738815 0.07352660843424111
P 9.120893027812762 1.1164877371481563 7.140664694301892 0.22979902990814616 0.07012092518680181 1.2101832910142771
P 4.408639118510546 8.866353074663808 11.813404493746077 -2.3219108144528016 -1.842933578778949 1.6069944974113355
P 8.769629393513664 8.673093343170795 10.015076722655806 1.3852661603264658 -0.6904502135793013 0.7424327772941794
P 0.14573003354820488 8.710600741545022 3.9025631814371087 -0.6734932740099886 1.1286276416279724 0.12605835978437
P 2.0125092757484575 2.6216995992678176 9.98997734956666 -0.027163704898985473 -0.36616185694231773 -0.018784222586038617
