# total energy = -381167.0447684255 ev
CRYSTAL
PRIMVEC
9.28910530264872 0.00000000000000 0.00000000000000

0.00000000000000 9.28910530264872 0.00000000000000

0.00000000000000 0.00000000000000 13.59554456757894

PRIMCOORD
 96 1
Ni 7.789843684885426 4.8797249165429974 2.9519058084288314 -0.3649837774738166 -1.5240602225099493 3.9542962411334157
Ni 9.415808672486602 8.314613109271585 1.9659155866742088 0.406961407457183 0.6540925008858736 0.13422804007935593
Ni -0.09840227892570567 3.3848942281303835 6.3480862994701805 0.7639467401065553 0.14641841149796075 0.6744960042428899
Ni 3.4998376168219796 3.185921593107434 12.960808990252467 -1.1951402806382256 -0.30233139274991805 -0.3135246903625762
Ni -0.07204072706148394 7.084512632134371 7.188317454688897 0.49053048772909064 0.12644891035456932 1.5925140444069734
Ni 1.7189210641032593 7.004171160597792 0.900483078773775 1.0637116576808778 -1.1345447784433558 -1.3592645940563817
Ni 0.6104186906777367 7.1153338834418465 5.017000243229862 -1.2137653519385805 -0.2922246433332193 -0.36903223651157735
Ni 2.961580411574322 4.856019119877331 2.1784549599535086 -0.38297147230048884 1.565696667103813 -0.7426641765786952
Ni 3.5713265710300384 1.5423165945861574 5.157333543373756 0.8782996385285389 -1.3364828202751757 0.2899132215912233
Ni 3.8608958498148382 5.7912555282221305 -0.10787623739722327 -0.3448049885330965 -0.8893844355877908 0.7171683463004359
Ni 6.634984960487983 2.0034742260387417 0.20526507493726115 -0.9939979952348235 -0.15289553458187216 -0.8456769673975113
Ni 1.0857199138243423 4.349697858570331 4.115751742181303 -0.049613292151753266 1.5788200918596487 0.1618234331991213
Ni 1.9692252948842308 1.3305157051763403 9.734463997713226 2.1751905554437054 -0.23447303834504782 0.18477901355403017
Ni 7.7253029814242 0.70759573661747 2.8732010772419754 0.5899167375389132 -1.8299826750452355 -0.874206699406088
Ni 1.2428079731554864 2.354704585649048 7.825962512932098 0.9890406512295482 0.6896341454359091 0.705084161442392
Ni 0.7790735438991971 7.114395683808918 9.523855829420912 -0.12133832860088135 0.08085502377485429 0.31741554077655015
Ni 4.968918905408094 0.444101905254375 9.601200635595285 0.1618465731275729 0.2355187060007428 -0.21787425344610223
Ni 5.972049384218941 9.011351739641864 11.982840839814644 -0.009309964547016224 1.7978413144260006 -1.0990815525397395
Ni 3.5678060001302394 2.938199733593333 9.417646986420822 1.3751020753092706 -0.9759583641242934 0.2853189173523215
Ni 1.424725810890755 8.997826802359258 13.458569412136631 -0.3573221471635007 0.38756449098780993 -0.4615778092504825
Ni 1.5439050315884415 1.9043130272119444 12.523086842502003 -0.14147880810449828 0.5506523927216517 -0.21944468325701563
Ni 0.8643289521270512 9.06096485092373 10.974106243790473 1.2520043408151211 -1.3248102690332537 0.4632806508742021
Ni 5.412808090151636 7.415594922399915 8.99570981526674 -0.24279749905034312 -0.5537477438175238 0.020843161997596362
Ni 4.409854104341042 2.9742786184873173 1.4770466963607252 -0.4652706847210374 -0.7618793160545654 0.1578924735758313
P 7.676395842143348 7.146117978328217 4.323165387169022 0.6215217660387038 -0.22243076246853305 0.6561432127673151
Ni 6.597707781013328 4.981282704531135 7.488045299004093 -0.1998402787625268 -1.0736600271428414 -0.1709577914002217
P 7.4277636503121505 3.5302873039183953 4.971999172717786 -1.6590999598573233 0.20082475416298318 -0.260866440736912
Ni 5.535349966959421 4.783294714667495 2.798915173435158 -1.6323193493293693 1.287456253864828 1.5838599682764012
P 4.788069314779624 1.2140581923246727 3.4130392882076968 -1.937902930467998 0.23425552301760302 -1.777265804267494
P 3.23593413591619 8.069668692235162 10.388546127743219 0.44417863993742857 0.36825010692991417 0.02449310004535782
P 3.8429492984206117 5.514245119771179 7.604110811613093 2.193843137547886 0.6193746377887139 -0.6099507733716528
Ni 7.711750176825764 1.5915488525516865 6.801987281880751 -0.964028702566243 0.6429254285254605 0.7978526488253808
Ni 1.9512230088583449 5.714183821742886 6.571705717523307 -0.7145388790973887 -0.0464894018107909 -0.8404504288912493
Ni 5.47602045155832 2.875869837187918 7.739630497402697 -0.3507218682381637 -0.9632195764013864 0.1654234918455538
Ni 7.638273354088532 6.274354026337843 9.143058247715457 0.04815959042436222 0.5447758793362166 0.7274995530231149
Ni 4.60728474788809 7.882195969544537 6.6138383123259965 0.28136250380773475 0.6760916308647841 0.9653150254778343
Ni 8.630424110462538 1.800145000641106 4.623083658142387 -1.2764866422272014 0.8265744422401053 -1.6903149520075467
Ni 2.834412560338832 7.398874532902188 8.439529281388047 0.4764225875727988 0.08499321431294395 -0.8766410198791934
Ni 8.672652383049575 0.9576045738506482 12.129672798009986 -1.9778961830314838 -0.5408060960551911 -1.3265100253331799
Ni 4.789713486413566 6.974390289081286 1.728483269074904 -0.590224755697635 -0.13886271063788988 1.150056758036026
Ni 2.340371496207385 4.500413591681786 8.589121032761042 -2.4808756951572044 0.13851998258649048 0.9885459709813169
Ni 7.648435635261039 9.018643687283927 0.6186655583422266 0.7699672352690223 1.0706104416832403 -0.29286073425532144
Ni 6.139699156249483 8.289922667446607 3.277899526823902 0.3044661797047337 -0.1939550236263434 1.0539730902368751
Ni 7.945287572582627 8.484176436989088 10.390639892072546 -0.42148659765655155 -0.34386319344511745 0.9613809805307508
Ni 5.3926321534910455 0.18741327241685474 1.5450113640268746 -0.7258005680541371 0.704656072766038 -1.3865745947252444
Ni 7.336683973075921 8.96436744515325 8.23847867351474 -0.296276959025722 0.0005252763758507083 -0.29650424454517965
Ni 6.858360075072337 7.107791129957317 6.8664025824207435 0.3620576049659571 0.6937908479167599 -0.621568045895607
Ni 6.145077548204585 0.960214812433349 4.896911619125604 1.4037847879559437 0.07119153254316125 1.6260348018722384
Ni 3.9170856476324776 8.244981976118828 13.386281594874792 -0.9914150649989958 0.7083224658740317 0.816790109159832
Ni 9.16216965291136 1.1762515338492567 9.203558190381399 -2.458526123817411 -1.4915321679752571 0.07828006395882647
Ni 8.325286291234299 3.2967870645826394 1.538064042190569 -1.9938907586875274 2.00696790358646 1.5251940790040766
Ni 0.23111944165338516 3.9117165447826516 13.12511189765188 -0.7662622756136094 0.7726874624136628 -1.704171655384981
Ni 7.511161237484701 6.786499556653218 2.072872202649057 -0.1762306097633868 2.085521532921647 -1.0178981988911888
Ni 5.301478163412605 4.269217050454606 5.614157807214847 0.1929669486814612 -0.29025080743630016 -0.08430467288635159
Ni 4.933137271882957 2.2891420806074056 11.19574058004601 0.8587078324395404 0.013800653328518165 0.5543650656865485
Ni 7.669698397238982 5.582445730711352 13.513781067168653 -0.31497787786933495 -1.4221643189043958 -0.37697591683868625
P 6.259677240000951 4.305138020558889 0.9768711071046678 0.6546298614465823 -1.0398513061235124 -1.08920928773135
Ni 8.866181602380488 7.321747091791285 12.744925539073622 0.6566296654854303 1.427340978009329 -0.40307878457332513
P 1.0774433210229675 9.267944694695036 7.566029195621492 0.040819605119523254 -0.3805579777629898 0.6790255166821273
Ni 2.4712921459745867 3.317250963506802 5.976098505208974 -0.43266626842245487 1.0360028789116995 0.8257136369017071
P 1.9418317234237885 4.845457407177933 0.18933983285120393 0.7744720651179113 0.7941451180668065 -0.6075956428759149
P 6.940773017085578 1.398196126221028 10.441473591787746 0.41596129696294815 -0.5752473084521964 -0.22947661357172092
P 9.460117704655577 5.160228028577918 8.49174984452103 -0.33114111789275874 -0.2287135101534513 -0.04469631446611012
Ni 3.121111505593189 0.5749658914793897 11.62825525537846 0.9617360498773244 -0.7763872798627532 -0.43177743805959834
Ni 5.483916191043358 4.2409874595192765 12.539564786352011 0.7167592837874752 1.1312671361333486 -0.20146315907793041
Ni 9.15750652206255 5.5037670090192705 11.044408979254722 -0.5588601253434247 -0.7358867486455456 0.2881263048941296
Ni 1.7592172027927813 2.2566580794554327 3.8204835973093605 0.5887180892451216 -0.21834939331030784 -0.29730514317992024
Ni 0.5803610038239896 3.0393673791598577 10.728257996810646 -1.0319726747063842 0.19216682137766905 -0.7700682796232609
Ni 3.476586986314863 0.8084986426836135 7.657405195316042 -0.07834794108228442 0.14837656366559607 -0.21785599861365704
Ni 6.393468223298594 2.376106684206138 2.5414834121755168 -0.6265860679354887 1.5530728076922156 1.4110507254897375
Ni 7.352057442308554 3.0713126122057925 11.75386532365908 1.1993126668483605 0.23989266669872233 -0.9155562088871522
Ni 1.6472556168949466 3.029270121724286 1.402461683364004 0.5100487602676764 -1.0689073429492044 0.2789382106369583
Ni 8.540700642596681 5.276759854271798 5.531197736900819 -1.149619413388291 2.303139961603201 -0.4251897575397516
Ni 2.2918359211375945 6.681653425397195 11.72513783668093 -1.5188200571569326 2.0823392785389236 0.7430624404583783
Ni 5.521397730834096 6.6797584479207845 4.928099790091503 0.3565518446563795 -1.1652548059327028 -0.7785356936643237
Ni 2.8347098117076808 0.5848745800778482 1.7756598480427404 -0.06828670019154046 0.06663450930009815 0.22360189995849877
Ni 2.428506527070959 8.112435732928237 6.128898713544478 -1.2530356102931128 1.081591880395408 -0.13227580144899154
Ni 8.45751670484549 8.925994151255969 5.819477687873239 -0.14366964510823 -0.948938898112656 -0.6090781409587124
Ni 0.9948445969041967 1.287646484325224 5.818838597430214 2.451275870012901 -0.9135857154243427 1.8920910143402059
Ni 9.069445804041187 1.8532322372963888 0.43110087350936466 1.5901594281318678 -4.456253996862841 -0.23579432825963265
Ni 1.672624163405109 6.929356706700741 3.1534050800869933 1.7050072639123992 -0.8666162886533398 -0.044327875383097855
Ni 4.167714997098127 5.449137780888086 9.9882116998202 -1.0531516227768443 -0.6654498348802216 -1.458418416140424
Ni 7.992727033229788 3.1912163831150475 8.777759538163869 0.26403506827288076 0.736847312786602 -0.08517010621044041
Ni 4.641255005884306 6.822151142704482 11.6535021146095 2.2007596621620618 0.9840725085909956 -0.6552908920693489
Ni 3.8392801018363887 8.574020663223541 4.065407578314175 -0.2791904358570805 -0.6249300203893043 -0.05349360104276593
Ni 2.1980716924764527 4.580290607954538 11.302125916046352 0.5398915546607218 -1.592235079713974 0.21739371426525786
Ni 3.660771365737601 3.6834739390334033 3.908868505104872 0.49009468574325266 -0.6741568757359163 1.0321166564834159
Ni 0.37900757111866884 5.099681640385595 1.881786946916396 1.8315690456957487 1.7406419823968733 -0.7658822665663714
P 6.958738146690358 6.78348059743835 11.50149055131197 0.3733910277009053 -0.32524789233677537 -0.1385354092054582
Ni 1.3611883307993928 9.109862701099305 4.054395344008866 0.09235248289149257 0.3255535965026522 -0.8087016757247427
P 4.429574874843083 1.11605813165744 13.265933804733319 0.5397210905211286 0.6857839184518834 0.7263124746935491
Ni 6.136020670559983 4.333934246916085 9.827852017610667 -0.029279979911039897 -0.35087639153815703 0.4219979900753313
P 3.7961229187217 6.26700634406412 3.663428049846684 0.05566309789025897 -0.08764170767938455 -0.3736859332335048
P 5.698559546667789 0.510017396296525 7.049901425874076 -0.7133625994011006 0.4891798872384672 0.4947085303661803
P 0.43840861263039893 1.331574663177863 2.534685644934163 0.19331507604949932 -0.991853438087995 -1.078005962816363
Ni 6.222901672211227 7.485857714711474 -0.011496196690214885 -0.22727703481724085 -1.856758657587499 0.11823140754078347
