# total energy = -381164.6630980392 ev
CRYSTAL
PRIMVEC
9.23074703913503 0.00000000000000 0.00000000000000
0.00000000000000 9.23074703913503 0.00000000000000
0.00000000000000 0.00000000000000 13.51013134999249
PRIMCOORD
 96 1
Ni 0.6823857474680024 7.233121108178824 9.989148034511834 -0.06159180466986811 -0.10101787187597443 0.7161777002523924
Ni 8.77954816729545 6.509504382707143 7.867422047932683 -0.03410156966939933 -0.3279390660156933 0.42253046554003354
Ni 2.6222060166205328 0.7986294685816036 7.494853403320091 -0.3135234048109955 -0.5192198852439833 0.18284271576326577
Ni 2.084071923070833 5.767490778295454 0.9722690519937858 0.7756835689275092 -0.4888672410940548 -1.6225211322920248
Ni 1.620817649873035 5.938831905683522 6.50957269023557 -0.09756462322005133 -0.5905613131014474 0.6258592170717932
Ni 6.268037269715847 3.534083828886719 5.928029162370179 -0.563513564955036 -0.08383493233878464 -1.541656595435474
Ni 1.7118051238879135 2.8596946776182794 7.3045366291498 -0.660699721789746 1.1203093515702642 0.45308622683970357
Ni 7.575009518705665 3.17477699861086 4.055241655472763 -2.330852854137437 0.4093322216822047 -1.0613752962382172
Ni 8.732526741645477 7.363930025117532 5.479668699593708 -1.0327000397907118 -0.9117509762084491 0.9287819635488069
Ni 5.672072545679872 4.427518608477475 2.5841910309011986 -0.31128371684719935 0.3193744642751339 1.368120758895431
Ni 8.993350731273601 9.11229813820834 12.048267402063034 -2.390871915003547 -2.493299008522222 -2.0785145054761944
Ni 7.551646497834034 7.728119920601251 2.998763267048467 -0.31605517009391376 0.013557941190092779 -0.1038777099222727
Ni 3.1064602394362515 6.746429968132717 12.358122350981493 0.08038708299950027 -0.8809571307560441 -0.43985584419235857
Ni 6.1825143979751696 3.478007040346556 8.135895557669981 0.4997370939290232 0.2789718920883712 1.5223090441467977
Ni 4.1499315821433544 4.311663501816144 6.633136393787419 0.7262168296559494 0.20545068297076874 1.266118411619
Ni 2.360431260042675 1.606140762008202 3.6233636146909096 1.606149375802221 1.3204165108409325 -2.853540643325363
Ni 4.942871218221887 6.864066608981415 3.248970051379653 1.789142501100422 1.2705054849431023 -1.3004076718191733
Ni 2.470323304087225 4.807059236363217 10.616342222085105 1.0690718935515264 1.852709941439422 1.6903728018286759
Ni 0.5388190149833917 2.293434497701193 1.9801530954648572 0.9692619259407242 0.9245275591478271 0.5344346453112087
Ni 6.177105180183477 3.093029502427867 13.229945182422604 0.8896839691060807 -0.45872182785892607 -0.5977375191349125
Ni 0.499871723808493 7.128324436525083 2.131601962885179 -1.0488709931236195 2.5253138708659217 -0.6749757720927859
Ni 3.105887933116994 0.6858112777111719 9.819163826945232 2.252706744653314 -0.38474604770240833 0.5843158464123678
Ni 8.398244466716513 2.4362526165972263 6.200920507662262 0.21040802697604408 -1.763873185010672 0.08463480253226069
Ni 6.308024866087202 0.9801668791995412 6.880061647529958 2.3752969433834257 -0.6055989241608603 -0.599985948849457
P 1.7182389546060195 0.09302377682178553 2.2585025815081825 -0.6206630175828344 0.02991427106092913 -0.32132901689834337
Ni 7.7865413189009525 3.6487112461857723 1.8218411675869863 0.7766713867620754 0.02596171417108432 -1.95827686613866
P 0.7369237704691293 7.141616712327196 12.385305054996813 -0.12990421589302145 -0.8469648329709996 -0.5219557961179074
Ni 2.141727169362497 8.921784749125143 11.754395491721908 -0.09958808140798334 -1.5192432607372803 -2.3356099092064486
P 6.183059012053174 -0.35020992902378856 1.8088710448581333 0.4484811239675244 0.6415455174587983 -0.6590999814027939
P 3.828609276121449 0.0646429218348579 4.615060620074075 -0.431462735032657 0.6815770794593874 1.013657421336964
P 4.168513076025057 5.727678566118711 1.4500423672812663 -0.6909240678919262 -0.8610488218678913 0.24002507851152854
Ni 9.40926973342054 8.921886287343074 7.229771270061749 -1.7857800123860923 0.7817860822808212 -0.5196947679978727
Ni 2.113554929259686 8.057888360205748 5.683279595715528 1.2288793247618834 1.4933872189061248 0.25691388384706726
Ni 4.5427091013487 2.7861163926053347 4.060078566945197 -0.21338279333365184 0.3990467805957966 -0.5238576411263107
Ni 8.55495485997517 4.78468390542966 10.127667394490476 -1.358443640816983 4.569297946665415 -3.0747917836634984
Ni 5.5347005675638705 8.1084451619892 10.21817210043282 -0.5898198069497326 0.36744098076505755 0.3818147329882263
Ni 7.877039563320337 8.484533490465227 9.603271421827085 0.3582181766152089 0.1692302671861537 -0.9192917646701844
Ni 0.3830455425538409 3.0199773699987555 4.355180012798019 3.142293268949582 1.0737988667135505 -0.6019351021560279
Ni 6.334406341255562 1.3254429739065037 4.495010138862702 -0.021206973094918313 -1.6650248099821905 0.05459557585769307
Ni 2.5243877897629017 4.40297405197899 3.1859055872962956 1.7748685076799111 0.2870695814948411 -0.5597438134999585
Ni 8.546711802828444 4.830357642005254 5.9227334827676295 1.1745177192918677 -0.24225885293805371 0.1561559505006988
Ni 8.750526698460838 5.239501275791951 12.874250343481027 0.006689496205033641 0.14301915600842466 0.6463840764980223
Ni 1.543122451660269 1.2854184545468088 5.475372709900441 -1.6849632007773305 -0.6335740692175474 2.771346331913795
Ni 3.0403034750794866 7.470923614577454 9.620753533730989 0.7475934955595125 -0.6366223691255681 -0.033189599378091225
Ni 4.456503154323749 3.364395005226832 10.722112737556293 -2.5388399303768145 1.8409695130740422 -1.796196579733726
Ni 4.2137621982347495 0.37549386836376564 2.52036872248218 -0.10329792615940275 -0.007497336818309669 0.04598983646655305
Ni 9.019409130293992 3.3030382293541627 11.285742154554212 0.14693211790958566 -3.1866766801609634 2.0547917079379583
Ni 4.618595073132846 8.837221875081285 7.787253009501192 -0.4965556108772481 0.1602216359296402 0.9098987534910588
Ni 4.477613872906687 6.475415233722975 7.318667979861921 -1.1511343073709206 0.7828803437862646 0.7653220231875272
Ni 7.65110779767276 7.79066746284786 13.689680694831676 -0.8961328100552179 -1.3735622416259765 0.4434831565323007
Ni 2.1998993374909097 1.4664980201093403 0.35311299898195836 -0.5405304737963014 0.6713363755679858 0.8085306973645171
Ni 4.208546826131838 2.4763602126806843 8.356434720870617 -1.506153774543174 0.30562780411300267 1.0637365973815422
Ni 0.5502402183514155 4.997618779181838 2.4667879279537464 -1.6870951595186687 -2.5788851192241586 0.454920708945281
Ni 4.393835612365038 1.7653803799680956 6.240153951996789 -1.4990888972765923 -0.11677873425465694 -2.1116773653814085
Ni 8.04694992491026 0.8242687916843454 2.65155240775253 0.12515153169938445 -0.28573260785097243 1.811098950766855
Ni 2.131841039234675 2.747338024102088 9.811340768790865 -0.9245766672182077 -0.13002042975591158 -0.1605013719535881
P 5.6317434116663785 5.499632959388713 4.666197112774452 -0.23182248809607817 -1.0414955265951547 1.7842774596986366
Ni 6.5938272573267955 5.574457395258107 7.100830656333005 0.6900671192082696 -0.5928737632847079 -2.2418669737253327
P 1.0005852917511198 5.428990051948736 4.512694404127763 0.03272834347095654 -0.24780189424347002 0.6708584074903027
Ni 7.701221523596142 6.770716063712828 11.212017100662617 0.4214639719487322 0.4319404460000238 0.3620637756135442
P 7.603357143003087 1.045880567696236 10.681799295812844 0.3132706653702411 1.1680899613886528 0.9726652951953185
P 1.9548968483661346 7.985426995590065 7.816124017158321 0.5397277753893479 -1.2670229257111405 1.4361840302222555
P -0.05404694725621541 2.7501349404687825 13.417208425457243 -0.13178343519360533 0.22781670937079473 0.6035338141017155
Ni 6.096705373074864 1.1619756737817717 9.083685591469584 -2.5987435487109827 -1.1417340971029433 1.2073936440842818
Ni 5.978985655502404 5.201267521366707 0.40905963398822565 1.5930403492240888 2.1817540675938365 -0.3493704964165919
Ni 6.237668111806854 1.9926690654371384 1.957104843068819 -1.698080711995895 -0.37648997834120324 0.30706607922142604
Ni 1.3843074480662765 5.198932142354253 8.798851505599186 -0.5460280065757629 -0.38563102141052297 -1.323668956339959
Ni 6.773725287262472 7.810172031438042 7.555527103908484 0.17461827097094443 1.1743799081624224 -0.3085172098456558
Ni 6.497061335636832 3.402277991262853 10.834612467652299 4.465724141136805 0.17571458935891676 -0.4490534515312266
Ni 0.9049159828148304 0.6227071214153501 9.209977903859699 -0.7090320903465467 -0.28040991008647836 1.2577199031426596
Ni 5.432691581529741 1.3855535989227248 11.338998949859969 1.5638845535957389 0.9077418550490561 -0.9083825739568485
Ni 8.03420226318615 1.7995341441818575 8.501830987427434 2.035906440997681 -1.0512371793629507 0.420753833255585
Ni 0.6825962085015359 8.541025662624207 4.063037021385877 -0.4457660390292065 2.0385994144488118 -1.9608549112784812
Ni 3.4140656552901434 6.376886239339814 4.952503502804876 0.46893810627029564 -2.0882078215045583 0.15670308125342045
Ni 5.706650924259535 5.591663507824175 11.471452785929186 -0.9946829371169901 -0.329743980434916 0.31409213283027193
Ni 4.010214994267814 4.222134485840664 13.048125310943872 0.3604879464859921 0.5078442964171899 -0.230164640777681
Ni 2.627513696194293 3.6736158018205636 5.276921801399024 -1.559025939951857 -0.6207488924284212 0.0026487504767567288
Ni 1.0369359737710642 1.538820923518752 11.852411256567153 1.1497628809446907 2.8653306939817553 -1.0203340620261911
Ni 5.180627570885093 7.971147029849877 5.555285133562976 0.8318261775573481 0.12202198493146728 0.07705390486120924
Ni 8.493127316001177 3.8312585005347866 7.967816576301682 1.1850906097117073 2.409250417510735 1.0596804250342977
Ni 6.820303637052375 0.8018362301188633 13.172999780581762 0.10278910484378426 -0.4574463035806122 0.6575647757051901
Ni 7.676769274568505 5.6719986997031935 4.058511186090199 -0.2889318315145604 -0.38113364776080166 -1.90035248301805
Ni 6.193175910858114 6.128339143334475 9.147439592360175 -0.129381510620332 -0.5567461643242154 1.4922631326040108
Ni 4.270669754012545 9.24607012496127 12.382656753658184 -1.9427175782478219 -1.2554899853708763 -0.31854554061593526
Ni 1.786278791368084 3.9668766367046757 12.725124855101951 -1.3432944438803704 -0.7991382004060237 0.3292732114460845
Ni 1.9187400120349711 8.384702960743109 0.3608188266483498 -0.29006363112615857 -1.914923438853689 1.2261351863578431
Ni 4.212423739907454 7.886999539424838 0.7646557039359954 1.2026499587517094 -0.6001700398358051 0.9604319863539201
Ni 3.797833965340724 3.1263063456685725 1.665812926537895 -0.6285339356904788 1.5839949511923688 1.632314464233363
P 7.991703903607729 5.783063048627513 1.5817660512560778 -1.0850219891228796 1.2253659122919864 -0.4553495689525835
Ni 9.093679721338297 0.4045273371695886 0.6788706789781104 0.5097631107064576 0.7358461252155972 0.7103554371436605
P 4.033098016291034 5.137270751827786 9.109233530176187 0.3961347491553242 -0.16270197914933268 -0.20007707736368124
Ni 4.42360477171352 1.6130915145630569 0.38913875870451775 2.026923263662464 -0.9142228347877095 -1.293480862792353
P 3.285915193511858 2.173573246805059 11.922555703664555 -1.4508084650036497 -0.7422661698093281 0.8523587502930611
P 8.212457220140733 9.622315376137736 5.366899431682825 -0.014736020658593975 -0.5400854158390828 -0.5667153597217853
P 5.325790299540666 7.5219973381976555 12.388641970067969 1.8018002990737483 -1.857332270702782 -0.5142748825338821
Ni 2.7715687351996894 7.220788830073531 2.7426921890943077 -0.8210126318816118 0.8790588852920665 0.2609667137602022
