# total energy = -340889.63706273836 ev
CRYSTAL
PRIMVEC
9.08971440642146 0.00000000000000 0.00000000000000
0.00000000000000 9.08971440642146 0.00000000000000
0.00000000000000 0.00000000000000 13.30371583621372
PRIMCOORD
 96 1
Ni 6.440471745856477 2.097806115002534 11.021383338074582 0.41686555394477237 -0.4244911888108302 -0.1326354987812554
Ni 4.549474814690857 0.35595049210172375 6.132188625456545 -0.1557150063085383 0.7248688002684872 -0.5629332669715338
Ni 2.9001915709633193 1.5799741708215749 4.610562240850139 0.41384013685488724 0.9715057276695784 -0.3342099866260696
Ni 3.424368135850949 4.592550971609068 4.685049724095056 0.4546139763381396 -0.9963958060430388 0.4932571426316344
Ni 4.093134788963517 2.555146009322616 2.6024061618157277 -0.9674791230086885 -0.08117769722159568 -1.4551909103420617
Ni 5.301330547860266 4.930297492522756 2.5779275607225136 -0.14915072282745928 -0.7389178221623854 -1.0000534574002842
Ni 5.122808555483463 4.7654918792954755 10.97684282815373 0.26780353417637753 0.09009248321272226 1.0871950855147985
Ni 5.805464292320662 7.969607143594373 12.200265676746488 -0.32209237742692914 -0.08345903705660465 0.71568507688669
Ni 2.135628416951611 6.566536995972254 0.34953951647935316 0.7618518052507396 0.7366421387543314 -1.0928589686687953
Ni 3.144804877320352 1.5910181739141316 0.4199620794090514 0.08783325486490035 0.4952332925213987 0.5355767293354519
Ni 8.049996578450811 8.433400735194878 7.025944800336416 -0.839326085478819 0.1097159138706046 -0.9104872790046771
Ni 8.865743914696418 2.2634025333895287 0.944274081042425 -0.3298702216001351 0.851162673102431 1.3348622539526174
Ni 7.21508812408248 0.6746258830660345 4.91110637834225 -1.0376872085926578 0.11057903320184827 0.22354764968179563
Ni 0.7153023553616654 7.529246835921941 2.1973884819823737 1.0753780382752125 -0.3771990885930859 0.4505642317487983
Ni 7.5378184366760825 4.2537682232447205 3.5599012325685426 0.8310453335272655 -0.6240820705667124 0.4039403612426721
Ni 7.567687238455623 4.0470317571236425 12.230292639557971 1.4151459786050338 -1.51184491139068 1.070914346076904
Ni 8.551139806847461 7.221378206502274 9.091240642531677 -0.002895833490556303 -0.011453750362896404 -0.09996140558700203
Ni 7.06158102595318 0.8201313055390557 0.28219018601516394 -0.4835620268310575 -0.8425006265520588 -0.7187650013635943
Ni 1.9797125444852521 6.793879844818292 9.471500667037295 -0.340701250777368 0.20552421652118152 -1.4709846828412085
Ni 0.46384176708724767 5.17489261945083 1.1615300737305951 -1.9385264229846098 -1.408663970425116 0.21046561968685687
Ni 6.13395748389425 2.1295655773938043 6.736430122393695 1.0885022343619963 0.3765673685463579 -0.037308763752787355
Ni 3.635285870632584 4.384696470607015 0.5805964226617033 0.27406237060189576 0.28033971897017523 -0.43731276605553077
Ni 5.959089556738195 5.836405680408781 4.693591328791415 -0.45428873178823703 0.7783199781090918 0.7970990584888079
Ni 5.2112969259411095 3.4143240013511336 8.975125902856574 1.5644627946967122 -1.6223360128644122 -0.16884203060879951
P 0.38032274353552825 5.540335500383464 12.306296287178064 -0.23059915721193835 0.5028843813087533 -0.5783107778688685
P 4.376924764727067 6.154763840337758 12.539842866156341 -1.1996350831847855 0.2320070933030585 0.2207700869366585
P 2.509842872356935 8.603469293105773 1.221812151186996 0.3436860444373049 0.10238981252283656 1.0018308610156812
P 6.13704798681727 7.953663784397381 5.579751229280793 1.1715031008352599 -1.6122212930279138 1.5779723991473726
P 5.10072054929835 1.0052133448556917 12.433573196233954 -0.8785192107385127 -0.31133385335884445 0.22821445902984566
P 3.8723001756847792 6.453433678704202 8.302409768802676 0.42251606736233044 0.4718964175676712 -0.7017769514460301
P 5.112337204403113 1.0104399306813872 3.926844825361738 -0.9361219488536459 1.0410746370076522 -0.535155325527317
P 0.2632999413839282 5.578439583481405 3.3254502269995583 0.31775415506289145 1.0173654663161704 0.7493619003138449
Ni 0.5179573822407757 0.02546119922844502 4.744118324668448 0.06967329612642194 0.6328533890014392 -0.30056170244400493
Ni 1.7281546962659042 6.869660794433639 4.58464655589772 0.25208329522764333 -0.2718555927585641 0.17968694374310346
Ni 6.490665149212114 5.601545637688219 8.944513562432613 -0.37302413127978984 1.338117013444489 -0.31021773747653025
Ni 8.834757078035903 2.2321066464367116 10.143697778394415 -0.048489720070271324 1.2768612519578009 0.4388736827847474
Ni 2.3944580367545356 5.381192779276894 6.967196157712702 -0.1801775102262768 -0.7164366103407339 -0.308079865197921
Ni 0.661143109578636 0.4040868930706561 9.017378531642946 0.8551350274866175 -1.2884674687381614 0.21873737277734584
Ni 1.8386310860493895 1.1798631188642392 11.846267655314954 -0.49637769053848707 1.2251735937755222 -2.4246143015613146
Ni 4.336393727863108 6.837437756603916 1.6255681786505993 -0.35692311195286913 0.30496754482118443 -0.6387887806492677
Ni 5.593919367239944 7.856594723471114 7.8907929562572265 0.12395288340559298 -0.17091742508058952 0.32565746907036813
Ni 5.505303740779585 3.2192587286216954 4.175597587692722 0.2614853052678335 -0.4115456843937558 2.599070850143414
Ni 1.2482995791801732 7.578922125552247 7.000415428249375 -0.5368085448600238 -0.19611166495803 0.5951232214405171
Ni 5.174238160008308 4.948749612916082 7.110956355005665 0.36902940829809994 1.2724692935376927 -0.8392150138222514
Ni 0.9130163708904218 7.580940042166691 11.569803080450408 1.177602014644146 -0.5932787120326105 -0.8715988294695957
Ni 4.542193953392801 0.5645603483770214 10.187772894933921 0.4373551892576919 -0.4087655505454573 0.9664437397656387
Ni 8.228536750256572 7.181801589658658 4.584433856578901 -0.23847727440843444 -0.00211987455648022 0.4096980896620557
Ni 7.621652873320239 6.125285896280834 6.74677967130002 -0.8474733971763018 -0.6731803707552599 0.3322862872407955
Ni 2.365825436144203 5.381310945565128 2.426158416001689 0.6340648928110371 -0.5854422467073273 1.6351485912480483
Ni 2.445442245269886 5.331962885656082 11.450295150360121 0.4909894296433802 0.06431948801367633 0.5383113546577956
Ni 0.8274839755814994 3.363785188845277 3.586562274108278 1.1502274792859353 0.5158208868647632 -0.2750661292760618
Ni 1.373601293279675 1.1356507476360944 2.527160596383222 0.1672949978366538 -0.11051321296091934 -0.31705995720934427
Ni 0.9634824656804422 3.2876588300797116 8.128703507157098 1.943715680495033 0.9318775717549952 0.04379334303586652
Ni 3.8243428420910925 3.1937257206488625 6.891365214667719 -1.069392253005423 -1.2200570984845633 -0.5642830961312089
Ni 3.940018548556835 7.088841079677112 6.044622861018564 -0.022121771599703837 -0.07982066897306898 -0.14998967378898684
Ni 0.6419792645415681 -0.020867257530520593 0.12159129264898196 -0.20143924781853048 0.1387963761763287 1.36122120356212
P 0.38331962239940964 5.573958354243026 7.83020819130866 -0.35790321647795137 0.11670982868993447 0.5948226594809627
P 8.533687555046878 1.3010290128755821 7.542581447063324 0.21699776437841983 2.1231686538504597 -1.0168797849290037
P 1.9174934488732762 3.371920483304404 10.50896431886615 -0.6888265619329491 -0.2350242828628275 0.009486342223880437
P 3.8299239267814875 6.441880651600795 3.8395853843017167 0.771180024630201 0.525639929837714 -1.4019181670608503
P 7.106247882905299 3.9974473646381297 10.135808815197683 0.42033011545460514 -0.6856566488453998 -0.7443431069430149
P 6.4835569924891665 7.790212538627542 10.05393775688109 -0.5438734221266054 -0.762018669845907 -1.2658433035807424
P 2.3882406720505776 8.845228429116252 5.738118597742265 1.1114483016352084 -0.6092126096540476 -0.47629763195916036
P 7.151441943297226 3.9670968079911777 1.1240759052179365 -0.5534291841358405 0.5289664231077859 0.43585495056308166
Ni 5.442466544583005 2.966501038091057 13.123318001393692 0.7954283556546043 0.7773604424092999 1.4048656797249481
Ni 1.7356991592838649 1.5622401378721278 6.718882428591077 -0.8596072043253583 -0.8303598774244667 1.284890807130497
Ni 7.1193734306136545 0.615436389290066 9.05325836160776 -0.8198371235162719 -0.032637840639679276 0.24860690664326862
Ni 2.8629328313119697 2.187430699770114 8.96534718801956 0.089430167038375 -0.7698661909147837 0.6287398810536978
Ni 6.68010388867876 2.2569033875367075 2.304349879176648 -0.43904286137275994 -0.9570820960450807 -0.36137214886315827
Ni 4.1333295063917355 7.186310088040476 10.469851277460986 0.7918889750427781 -0.4922801234303457 -0.38426165186682204
Ni 8.417793695433629 7.1464880489059155 0.10603333734592013 -0.4916705148708049 0.22367929016365345 0.03636516889259543
Ni 7.923185971747717 3.5359898296588477 7.986220414748501 -2.8266800714890934 0.6349730064476032 -0.027309486448230388
Ni 3.3545500389341356 8.547849330205892 12.476158508570274 0.5937844480244354 -0.6957322879138469 -0.33184534304863494
Ni 0.3855338768466087 4.947695206036463 10.010328033722937 -0.3970418343506259 -0.7028992379759315 -0.0036108572797099105
Ni 8.636437687522813 2.6761664679022874 5.675937678931103 -0.04391572754634372 -0.7575953439672307 0.41261603463979907
Ni 3.768650161475376 2.6799568788402266 11.402082395789561 0.16269580850174561 0.3545039609884153 -0.15522752514915847
Ni 1.1729458461453621 3.5316176769942222 12.836236640017125 1.1338588081199246 -0.4549155667389585 -1.1237098926113809
Ni 3.198388744176831 8.936343727058466 8.216401981426479 -0.5154403635968929 -1.100402071123376 -0.8961412946956502
Ni 5.916540603259793 8.154091988669707 3.348665357780126 -0.9486632758537662 -0.826243541263248 0.708600916346399
Ni 3.1935984646461497 8.572555174161094 3.420398657537764 0.43255699653810026 -0.29928180729031684 -0.05654061539920585
Ni 3.3792740623182955 4.6247740094387915 9.270867035217734 -1.0340264719116192 0.1795437332970198 -0.23582106773251
Ni 7.545790116274579 6.022344879800831 11.043161384995946 -0.03728382405212288 1.4566345847671236 0.9327347775489678
Ni 8.028481224277904 -0.2421954423054934 2.6426499637021355 0.17310106299546962 1.5484957298444944 -0.6054554566044605
Ni 4.812849291733517 0.1532016837227888 1.545718672834242 0.020063860629410606 0.9104039752622515 -0.8273406309821687
Ni 6.4137388955723535 5.811154453584811 0.10028318396620704 -1.1833186054129492 -0.34860430767452866 0.6165009157853447
Ni 7.955018151854823 8.595715766654784 11.338078989225265 0.5598530853843133 1.717021771874772 0.2661022352145546
Ni 0.22530675280263707 5.047245759015625 5.507366196994977 0.5951036810564913 -0.6305900468885591 -0.08733754617540443
Ni 7.444130749536178 6.35714633322317 2.47959957434084 -0.26078313699448635 -0.2933608138201916 -1.0908406526871857
P 8.411449074726958 1.8142706512444082 3.501351654691929 0.9796026457451 -0.6271008027883781 -0.20350744320146888
P 2.121684794940103 3.1290342226984706 1.6809645345742847 -0.5959063794634447 0.40941012610799166 -0.30192387289885425
P 4.769936749675936 1.3653114736743979 8.212809726264192 0.8166332718669936 0.26528128197515605 -0.8330070852393268
P 8.798170977256033 1.557631652631036 12.21326396845213 -0.9737168763882842 -0.09305285139262684 -0.07435398943154292
P 6.545430678950923 7.842287512880429 1.1363651991941808 -0.03841485233277255 0.3281380694003768 0.10822570247832329
P 1.887933697386038 3.3985624364437315 5.6714673573500995 -0.1756096883499363 0.34933218697948865 0.16578653161192738
P 6.829729678725324 4.049685953751647 5.836885617333296 0.05479715034553789 0.6245950056473888 0.09495238240818486
P 2.415882493782648 8.837002237512332 10.235160303429744 -0.13636256992385548 -0.2947774916620601 1.04668864076032
