# total energy = -381170.02239818714 ev
CRYSTAL
PRIMVEC
9.21577742530243 0.00000000000000 0.00000000000000
0.00000000000000 9.21577742530243 0.00000000000000
0.00000000000000 0.00000000000000 13.48822180698441
PRIMCOORD
 96 1
Ni 6.98019552826605 2.7544114867723724 11.269935220308117 -0.021968790961607327 1.697567519804902 1.0805261581350551
Ni 3.83940336699415 4.166867577913191 4.028189484324453 -0.7110375508123497 -1.0936377558163488 0.7733883451354293
Ni 4.506035825864487 8.631229659321091 13.597476515493387 1.2802257975546598 -1.207536083199417 -2.230568517993378
Ni 2.2478202145966586 2.791726168617733 11.081464282557738 0.663752906793773 0.31430707705455546 -0.39337878367674184
Ni 3.3321024799747487 1.8948006535276596 8.013743097053604 -0.8606179049780599 0.8163797610952909 -0.5873055251683111
Ni 2.1060999929572533 7.850939020357193 10.400633075769607 -0.19304562443819656 -2.0861421972247816 -0.03212130601457693
Ni 3.35744586724932 5.867897300228069 6.445036268376719 2.463724380188899 0.4704704837544221 2.0676130280723424
Ni 7.960404021828961 0.07960956968460406 2.9769448585974945 -1.1540034013885998 -1.3708091043608714 -3.162757450341205
Ni 1.697804200298115 6.325359264199877 2.8206296106210926 -1.7013465272313602 0.08449056364491256 0.03485258890281095
Ni 8.491214356461976 5.608666703629367 5.259125176872158 -0.030407665757579888 1.727461222040541 -0.2929648639333535
Ni 1.151723322860023 6.442657676283786 7.40793384606452 -0.5819324337818559 0.7847148258918422 -1.7149273512395886
Ni 7.241637911390532 4.311776458460597 6.810904466005066 -0.0895972887438586 -1.7756236406783805 1.7660537376017584
Ni 4.321720282049419 0.8126444679474765 5.926886568448362 -0.184078902163212 0.41383448042793247 -0.42013985382066993
Ni 5.08185601629714 1.9413956230041085 9.716038145576771 -1.0190207425314062 1.7192321492625295 1.5559259608702947
Ni 6.461107662219674 4.239220644637795 9.3373563313424 1.2442727764988184 -1.0085465824729598 -1.5600610660845908
Ni 8.682884090475264 7.648744868792063 10.714463465912646 1.1234831213125553 1.6322103345553312 2.172306291917375
Ni 0.7769139782012066 5.847143369994493 12.384345704478218 0.6709023733543608 1.5876356332687493 -0.7284878850783131
Ni 5.648912002621387 9.265265914267735 8.73611902741765 -0.6940965520826369 -1.8572877906180916 -0.8491214743026859
Ni 0.10134129387811962 8.406668816514003 6.814587090570492 0.8711545428433255 0.4837779994966056 -0.9125215358258865
Ni 1.3365641659749636 0.21187809023717297 8.747502355403668 -0.7935956733212397 0.37539854504923736 0.24751778734414792
Ni 6.738447260998206 3.3449492733786585 4.837590920278503 0.026775725431947433 2.083683965492276 -1.1316890541621154
Ni 9.172195780418315 3.4714081679901767 5.077951291501417 1.1493777296911303 -1.4890664800435838 0.007911284427276698
Ni 1.8053431043370163 0.33452902571347165 5.288286660636859 0.26689336365728233 3.2050179016723126 0.4594296525592282
Ni 5.9638704038925745 0.7618295940953813 12.241303018811939 0.7025878773830997 -0.07435373232122679 -0.821270770639005
P 8.998247985942845 6.303250614719259 9.214909986119737 -0.2710071287153397 -0.7908319945331734 -1.6898431545774508
Ni 0.571439009956169 7.6723833372863455 4.5656278059130555 -1.5300344378155133 -0.84403069004334 -0.49171525206581124
P 0.15978130177784408 8.170228836908034 12.750212980528845 -0.6405101342157485 0.32106804992747284 -0.21757343437623172
Ni 6.258277622028382 4.948890782988951 2.826456746538806 -1.1150874410496925 0.45580079755738917 1.6493112559016756
P 1.8357183059577395 2.437167572757878 0.19041454515990835 -0.11442231820733842 -0.47303027406179826 -0.7898161516741494
P 4.292755094338882 6.199084685132174 4.488111139228472 0.704610050019451 0.23768717440697132 -0.7982833086048962
P 1.9099329596748766 8.59196123271129 3.0677746370118406 -0.5898642870344227 1.5278855097933106 -1.5236357333780213
Ni 1.315183562892416 0.552185408249247 11.16196225316353 -0.0808262274194479 0.46627984271184214 0.553655955434666
Ni 3.332277579741373 1.2700631177664872 3.220218336990407 0.7322216410891325 -0.012673738812926562 1.8136741676931991
Ni 2.5832837201172727 4.428890555000691 13.012059936272003 1.0138345703447764 0.13856086312675492 1.1419446704518528
Ni 3.9091668003281534 7.899939307680428 2.2273906797201968 0.7816122757071184 0.2008314390312025 1.7502134281353923
Ni 8.10987471208579 8.883502344140775 8.599239853536549 0.32549523246089107 0.7439708112052607 2.434744962237413
Ni 7.735539058374578 6.726199493111695 7.416121142520786 -0.2994982941764971 -0.5982280856180858 0.3280655642912286
Ni 6.108502811124258 5.815745217105595 5.744066745271354 -1.8174734868346312 0.9405357616506252 -1.8372581256607259
Ni 8.000925794136704 6.025523953298715 13.533002016689158 -0.1799715648630578 1.7120335746315614 -1.396959280393678
Ni 0.4005066177775133 3.5035251514999524 12.351515419813877 -1.1237104068320132 -0.025412012315201394 0.46001792096253036
Ni 4.108669944953583 2.4468164914765964 0.4350851353749391 -0.50476540038155 -1.6755560485308176 -0.44150289287747835
Ni 5.338165211526374 8.389721002260208 4.230485931016399 -0.29041458670767406 -0.6731492604070084 -0.7675506554077297
Ni 6.787152643451338 2.2726843814573114 0.49499505973658875 -0.7052929350190886 -0.5157422111080279 -0.48054895103634654
Ni 3.78789638827503 5.5405160313037465 2.2384376318387527 1.372419386270785 -0.788459637646255 0.11346946737576585
Ni 8.03536515349855 6.3696502893786375 2.657679003067349 0.2484901785597462 -0.1263938887469178 1.1373138565480607
Ni 3.7105944491989904 1.0052201128586165 11.91273014989685 -1.1438141195604237 0.10010615869498243 -0.3707918995151614
Ni 4.462933635943334 8.118887742178346 10.813777288808799 0.9827046817091915 1.452908284955472 -0.3350245121075649
Ni 8.060220104582012 5.11964991855642 10.887908078953501 0.6668477436690129 -0.19291526950791935 0.14621015214189656
Ni 4.737121438922628 3.4226474908739006 6.0388250845181295 0.9459371351718547 0.4507105275186754 1.9012022326128548
Ni 1.03621277155112 2.0430087823093555 2.9376939419643566 -1.5028537636356634 -1.9256377399473998 1.9371220864379153
Ni 6.41579368577274 7.3327911635842735 11.97205118609601 0.19875604455941254 -0.20470146350957005 0.4212569981442487
Ni 8.767595514412669 1.2855640550013345 12.399101085338332 -1.6121331041894815 -1.0297746386138007 -1.5627005605899669
Ni 5.232404952485288 4.246436598178155 0.8926696691833835 0.568990271798891 0.9270762937116097 -1.8694907604421869
Ni 7.483459904875901 8.902449982044963 0.19008369875876027 -0.29130958771811766 -0.6837648311393256 1.297561974840262
Ni 7.714425712830562 4.245892867323901 1.1875109504248758 -0.825571712007204 -1.7386473205643473 1.136500616618146
Ni 2.876068961467508 7.7997730253941295 4.741096203625001 2.998445446392275 -1.487843149159444 0.7437520103262353
P 2.8698483118637497 2.688961037163642 5.58489276321038 -1.3066721646716464 -1.39564416112668 -0.28139001461156055
Ni 9.031563020487418 1.9639374140126913 0.9397632122058525 0.8184944934454484 0.20257181876107694 1.1349916361727872
P 1.6286121451499385 3.2919309072002547 9.089901654838044 0.2036830495473847 -1.4528396365010656 -0.5907052948784794
Ni 4.514440614662455 3.498272158501223 11.777281264635752 0.8254752956386558 -0.38530989062567833 0.02280285682712847
P 7.057810803766574 0.9268399278512589 10.246313965132723 0.5090465442554071 -1.0109783318429042 -0.10011027246004049
P 3.3767160573551855 0.3349907361507284 9.489314359863016 0.6134366750377241 -0.5676949500262352 0.8431518869828124
P 6.520180794012402 7.740506362280394 2.246854401147068 -1.3544476322837125 2.2915501998830727 0.3766925812703126
Ni 8.756048145592654 0.5194279282247141 4.830617341678259 0.4486050511398983 2.3824006443077423 2.0864247614622067
Ni 1.8362988999207568 5.425447837299999 9.220386000926483 0.4923333452657843 -0.3074574011225737 1.8982917438342792
Ni 5.691894387439061 6.536455856531274 0.7222874589030158 -0.11708649530306288 0.19120342902313522 0.46678994957904124
Ni 4.083335773456201 4.165466779780195 9.007717197006343 -1.2581490202602783 -0.6460063814436293 -0.9651430186763443
Ni 3.006767113586773 8.513719284361795 7.410901326319942 -0.8981431556170274 0.13399098436788537 -0.13986235554699786
Ni 2.470233781318301 3.2630210141528613 2.0218982014984967 1.9795069791620294 2.159291367714946 -0.0681656012326439
Ni 7.877756931982285 2.4284033686494713 2.91092026606978 -0.5368697371152624 0.9396888402692978 0.1352500535859671
Ni 5.27390359717525 0.750278538964491 1.6777322375766541 1.6285945921796146 -0.40141888037239903 1.302962577030543
Ni 6.79206465269401 7.22986936391794 9.660020965500498 -1.9960466286882654 -1.1567933054289108 -1.3146040179242133
Ni 7.170998979223407 2.085668614925353 8.366379281791467 0.4892503354650865 0.6890245368763681 -0.29052694391582223
Ni 0.6759145896568638 4.714174153717653 1.1278295773375568 1.238239682930861 0.36836426391027527 0.4916715433120694
Ni 5.2611213142116755 2.8336303075040887 2.722394955233976 0.20616339276707718 -0.5463092852616076 0.28281234888038387
Ni 1.8437913267768395 5.652432429508255 4.888846308280316 -1.6224465703003474 -2.257875947559079 0.8707881606428423
Ni 6.962381430956323 0.24046727423832814 6.736219807651201 -1.4820519963989636 0.5547311907767156 -0.10906748165332827
Ni 4.101518501853558 6.580461192617121 12.402675885310625 0.26555021936582657 -0.5500255577709301 1.8478371867281531
Ni 3.832122903013455 6.790645423006634 9.024335086436711 0.9318459471861111 -0.41070081989495716 -1.7543876141177397
Ni 2.2628787945263498 8.170864725534196 12.901726808588863 -0.43856592173634146 1.7018592052017207 -2.303553394991536
Ni 0.6580921981476658 1.5886986141367856 6.957075908027607 0.2765095465908077 1.1902991504958405 0.40343153992705355
Ni 8.953099893485344 4.127820329955968 8.20329320231302 0.530460491154809 0.3203211444591193 1.5516715564693149
Ni 2.8418507807582403 0.5076409491977405 1.1354630055846577 -2.308882777624249 0.6597651257906186 -0.2319654414318457
Ni 1.8696692291284749 4.130188784693992 7.096585264718951 0.5019811527681934 -1.3655632825808999 -1.2471038181897103
Ni 5.009106671153333 7.876660254496585 6.640372960134209 1.3247930426420733 -1.0795198283577279 0.03355932401268413
Ni 5.113521426724569 5.424563122689686 10.595456448737572 -0.19791220850187852 2.1440802071921463 1.258332339915678
Ni 6.252351877294728 1.3225746161994 4.402029329222802 -0.20631045986790278 -1.9930559214910577 -0.11279738100940574
Ni 0.04931178059228323 7.628470158972405 1.399429590081688 2.205057261096151 1.545927712007002 -0.7155997162617354
P 7.8944098413659765 2.0273143137535024 6.21843413092188 -0.555153880136431 1.4592331987322353 0.007068219700691053
Ni 2.5463561009139237 6.73225425872602 0.8917296599099267 -0.4939531402573945 -1.4210721142814817 -1.9591150457692388
P 5.503662138317923 5.503901748524883 7.819458847051298 -0.4556133641369315 0.5209960033077995 0.3257088911335939
Ni 9.125324337626143 2.3670355083362447 10.182716808317053 0.011861527324276346 -0.16411094368171736 -0.7584659194976421
P -0.05302573880015684 4.731444520173124 3.274831954200531 1.02747015885034 -1.2688880039443373 0.2603380790372678
P 2.719483691219417 5.651317320468174 11.233220485557874 -0.38755472079579706 -0.34695057412118957 -1.4150889001148532
P 6.4267420290753545 4.929583729774323 12.317862166246401 -0.8339085140076735 -0.21150254559180348 0.8799556860747232
Ni 7.344891479035733 7.902482862185076 5.328279447333853 0.591204346002085 -1.8374231904836809 -1.8444122202070041
