# total energy = -381173.3853429129 ev
CRYSTAL
PRIMVEC
9.23694386488582 0.00000000000000 0.00000000000000
0.00000000000000 9.23694386488582 0.00000000000000
0.00000000000000 0.00000000000000 13.51920103085640
PRIMCOORD
 96 1
Ni 6.04388008666632 1.450412618442168 6.893386100541197 -1.7316829734313726 -1.5981732995752798 -0.4776903985416289
Ni 6.6533243983416535 1.649200884883988 9.58450500347132 -0.19191536748849528 -0.8914865695324582 -0.8777239685307271
Ni 2.0533356478300644 4.411481202463419 12.518050266200962 -0.40433528268824553 0.7583093393151198 -1.404999377089335
Ni 2.5827603157999244 3.1364504350007985 0.8197325730857913 -0.3704070053719169 -2.0112786151466717 0.24808651536342435
Ni 6.206829011358488 8.379164205518647 8.469414688121521 1.2675803408765072 1.4028923580486614 -1.1850898383807589
Ni 9.18525381268582 5.636946529764022 10.159043828410116 0.08283091655430251 0.925151308774755 1.113884936101159
Ni 5.545925686052405 8.39746259108722 5.960075143412134 0.6420715651655974 -0.44154942984469764 0.5573236340942402
Ni 7.691723140819072 2.92614369970284 6.972298234691056 1.8228630332813187 0.3693040021157253 -0.36851081679046854
Ni 0.11231661752703452 6.289398051538936 4.8585705249297035 0.6794780308385137 0.0631321525737945 -0.6634436030834703
Ni 9.169495586648473 5.4609365666094805 1.2032874253570673 0.3262912459996251 -0.008252726927095463 -0.1360244698581464
Ni 4.788671800491008 7.442030077371496 0.9204300390698136 0.03312583601969134 -0.25807859357912977 0.7760437804804055
Ni 4.6917577866669475 6.3105044680074815 6.852869170476591 1.1709989075053318 0.6528455158526499 0.7729327456552495
Ni 4.669663017217163 6.079266818172227 4.571950007758736 -1.4981260191426908 0.06419838905477976 0.46581293037775257
Ni 3.1139492400260167 0.6896440757839293 0.2876910789515818 -1.4607804886146971 1.2790533745131134 1.3993416645829255
Ni 6.7954440148777735 2.317539949908749 4.780930317934207 -0.017651137422859925 0.05388518005422978 1.4619827364529145
Ni 8.599687000604005 4.563622902968192 8.31049584198744 0.846279891088833 -0.875788184960595 -0.42394405805810864
Ni 7.654646048606931 9.139420097798766 2.220433807654692 -0.016603927105268177 0.7649006193793922 -0.8138279412077146
Ni 4.6400031908362 2.463261974507334 8.3814448069305 -0.7890597331240992 0.5391829586294714 0.7181142551534728
Ni 8.71969337380284 1.7591851741141702 3.7423172783617913 1.2481122048495665 -0.7409338241511498 -0.15114795576314613
Ni 0.2137899867860493 7.683446839219152 2.736232136204684 1.2175785550370837 -0.8337434491847189 0.5901612494495514
Ni 4.166517454215797 2.8288047864662853 5.004078252433291 1.4070341481311768 -0.45648831054271705 -0.17317665342841143
Ni 0.8213240984939009 6.663540458129053 12.394903332127159 -0.04917800438654756 -0.7753539535022325 1.4408248714283765
Ni 6.822378942852511 3.9579195535115725 12.503787501356726 -0.11380576766926206 0.5414465578526675 6.1707684289347275
Ni 4.368917365663832 4.588830522461697 13.515874809562526 1.826284914478674 -0.17516540172366604 -0.07404931370693053
P 4.684931685235764 2.547816957594013 0.6293388411238897 1.036507329351944 -1.3484168527086005 0.16907754365837332
Ni 1.7171386061645784 8.760446769627444 7.039623546601027 -0.3818468717777424 0.8156616519823436 0.9056178667275178
P 0.9485417536782906 1.0813228200832514 11.363847959930919 0.2658003877034197 -0.6188874137396503 -1.438250168722665
Ni 6.482579493124561 4.26306199028986 1.4820426849249857 -0.0869703926439728 0.2961311774764771 -0.9722433771665514
P 6.375412471738102 9.109252239511559 11.034331075985367 0.19180249605971483 -0.12367751825701925 -1.0118962156714832
P 0.7065744699831399 7.166002487292926 8.426828682656934 -0.18212589220189923 -0.5297770919345393 0.25819223633885857
P 8.861332669263966 2.3447889339709844 1.6724336458037625 -0.48139895774146774 -0.11237597720127097 0.19425507136526543
Ni 1.355022700336844 5.622536897514162 6.843162989984185 -0.9280677110906016 -0.3398445592040276 0.4199310802439735
Ni 1.9442103943686238 4.551226924455812 8.933176694056392 -0.34711923848856996 -0.5284784277277736 -0.2507314091854392
Ni 5.358434201816725 5.2830699777612065 11.462173378759964 -1.0443731052532659 3.690149329873019 -0.589748587392165
Ni 6.067323449903593 2.2090428086223026 2.60428516582034 1.2276359392730858 1.9997076224796209 0.0657222818984739
Ni 8.138209290858486 4.113063260735067 3.1756741929404173 0.7531915584725802 0.043825738935698716 -0.6726910898236672
Ni 7.601709123976196 3.58639120200268 10.73342100683329 2.5281045462371816 -0.11535485732393683 -4.972697604913268
Ni 8.654378944547224 7.938312591166677 6.424932650875746 0.6263945207499728 -0.09177938399684193 2.3804784875843645
Ni 2.801130902991554 7.158733012561746 5.858247999207498 0.36338249442496773 -0.2912576514342597 -1.5810235272688706
Ni 7.731368103393686 8.9246703925571 4.623836691885108 0.7528298042577873 1.040186063755112 -0.9577202438497118
Ni 3.2704784888119973 6.585192701242314 12.79361139062016 -0.5232914842101956 -1.1396011099203405 -0.16880140717885125
Ni 2.3597158350708396 8.06076675445924 1.0937548226762557 -0.48956709537455684 -2.173909888959069 0.5803483771241876
Ni 2.572045461050028 5.388140212916436 1.1395377343726862 -1.0958244790550224 1.4716603687519945 2.137550633603744
Ni 0.6959713822526178 2.3141777023837817 13.249803721151983 -0.6712641275691537 0.49284088102982215 -0.3879573555508544
Ni 7.031143108544235 6.8458407799772845 5.015150576906308 -0.5486908981199067 -2.220417545602305 -0.2245688918574584
Ni 9.230958210360377 1.037696734752425 6.172934969962567 0.23268946408206378 0.9171587774875817 -0.7156315979409352
Ni 7.361105213178531 6.397368687031638 12.611291671190058 0.7576971596524177 -0.3040722867004247 0.5384054570334986
Ni 8.92576035191959 7.972535467760095 10.878279377191259 -0.30721391765319994 1.330762887072263 -0.29648496127147006
Ni 0.1349600614355647 3.9150601345119886 5.2551697891646025 0.27294779738147834 -0.9538605037839895 0.017346718808563675
Ni 7.096679224449849 1.7798112695077197 0.22070106809973222 -0.18058760118050188 1.5471785536949676 1.604112290767534
Ni 2.4798330515946736 4.6643702484484635 4.692988147574437 0.15198305006993182 -0.04687840971909346 0.4076818305629753
Ni 1.3036837669748427 0.741482727802801 2.1389399477267332 -0.6186287607616249 0.04727924470193793 -0.0595187241909233
Ni 5.755022381719125 4.284972020864648 7.005379425036985 1.2308745008150415 -0.7534119020135024 0.0010166141899724426
Ni 0.6888266062620622 3.237511836568567 10.733353577143914 1.1448790704898284 -0.1506627885966115 0.900503685429404
Ni 2.868579066253399 8.427399525780679 11.700327652075151 -0.14939472051746527 1.9695827780697823 0.023321962555392095
Ni 2.391204576314284 1.6652177453463324 8.749911111586298 -1.161222030624226 1.0106865116340982 1.0655988474012617
P 8.970753504925403 4.5988618433741 12.59617726013208 0.5035685518599714 0.01763699635547285 -0.7149204308065237
Ni 1.1328464923202513 3.037014735533014 7.182886696773386 0.6532584350203523 0.06529702143559722 -0.2783571413225077
P 5.794528790137491 0.5012215076182587 4.194129450167404 -1.1933849885100156 0.4233604176404967 -0.30043957504384383
Ni 2.2156472234034883 6.449437338949883 10.382002405562327 0.5471672623865286 -0.6580537995264667 1.1593386975585842
P 3.1098388000573065 1.7587510377579243 6.676781616994551 0.31146420828912164 0.28506026437429616 1.1330483964034874
P 1.3683608471117146 5.562164233164746 3.168603312499861 -0.6087901774046482 0.5550410087076506 -1.423363995639452
P 3.248198980487213 3.886527215268516 10.494874163408731 -0.859194799378288 -0.5639935899152481 1.4458529207705872
Ni 5.810628783093584 4.250804565933729 3.9049133518027124 0.7433624881973004 0.34490783265954794 0.12037596468761204
Ni 5.344745051179358 3.213292570056302 10.99823494719947 -1.3750678796372255 -3.0383191426587612 -1.915325302277798
Ni 7.101445487424802 8.860575239876473 13.147517500842977 1.9011775500225063 -1.800743318564144 0.42446084979352705
Ni 1.1993063026008561 8.76812266988362 4.733004435287797 -0.4947046737114384 0.4840981018401856 -0.6005199669760561
Ni 6.8669564333895785 6.823616693315 10.103804133702528 -0.18716216907422603 -0.35336239118480434 0.338205738049024
Ni 3.017423177839454 7.759041986868418 3.543855999728718 -0.31759011868120146 -0.3695690828516538 -1.305395611952068
Ni 7.964028242566427 1.4371483672172969 11.554077274294073 0.9095889355601239 -0.8988905753060131 0.12725340853373568
Ni 0.7751181347737245 9.092976744624217 13.138256541039315 -0.3389698699085582 -0.26987070111805134 0.007808697411141391
Ni 4.485192013587703 7.576778612795188 9.627360727693404 -0.06624138762673752 -0.49748326489784006 2.3434602584888027
Ni 3.493098070128586 2.2745235028654167 12.081582505352701 -1.1391395969028897 0.8899943012576478 -0.03980196248828629
Ni 1.4308949562986075 3.134002644907072 2.8864710262969755 -0.44298924761501773 1.379071858590296 -0.10615827842633328
Ni 7.186536213248976 6.601652935004655 2.244606889448207 0.9889563190458582 -0.5504539035576005 -0.7551211713951252
Ni 4.037421928367051 3.6448241081646127 2.5445027421765456 -0.2836353590023115 1.0480675233857177 0.12441722463652122
Ni 3.537241424309407 4.196620653896756 6.842311343770443 -1.9210292946411107 -0.17848443879457002 0.4018330850916822
Ni 2.9786464879773304 6.884137148764412 8.198691874838525 -1.37693707163548 -0.518943748764461 -0.5776250646557536
Ni 3.855564979818816 0.017102201352958955 8.09198485325081 1.300057744678922 -0.029023126705227435 -1.38823784136028
Ni 5.025673303226206 0.4823088652903173 12.848459438912755 0.7681502366649415 1.8341275504515444 -0.24444120530135321
Ni 3.4924514840660916 1.3847656592115554 2.9596636448768896 -0.8479583072325203 -0.16042963817538822 0.10097493445318093
Ni 9.037231789093507 2.0308898745177824 8.955050700550556 0.03964666785734462 -0.5162392053491045 -0.1228244262281046
Ni 7.206238614267535 6.16645433022763 7.336032453063774 -0.4242289362883791 0.581205068697528 0.21328560563415527
Ni 3.680718871576764 0.18926313004691245 5.152505777856224 -0.5353797828332973 0.6856664190374127 0.28931235478243084
Ni 5.5220758972901365 7.71037253025014 3.255355764504644 -0.27720965798162583 1.374615622591155 0.7801804283565983
Ni 2.009635666949239 2.04656496806138 4.8739555784395545 -1.7732836796912945 -0.4094965151742109 -0.08466616999082839
Ni 5.291928206817371 0.3923465753324407 1.9780887329601697 -1.1878997970257283 -2.6806462970240608 -2.332361834582796
Ni 4.40419325384474 0.8549668950198241 10.45220779653352 0.37904796887636655 -0.8162560910332329 -0.8984015514847368
P 7.368014447103465 4.64928631930486 5.330606985075745 0.12114138209872685 0.449414177304755 1.0362319642033704
Ni 1.9519601901747985 8.64468015360982 9.566348866836496 -0.6047432610287844 0.9848600374892974 0.0918536888782031
P 5.059905416763374 5.726812755506899 2.3534633478465254 -0.42403507511001814 0.03998528214368597 -0.6742736038194388
Ni 5.245309351711573 7.594642862007514 12.190033461920398 0.4038264613726271 -1.1439820125968556 -1.8373506853745325
P 8.746351193465081 7.628764132219683 0.7177096056736568 -0.7557935148718016 -0.05159381291689179 -0.6228703096467982
P 7.852011825711265 0.680295365014645 7.697616310931513 -0.7864117539782908 -0.8006075858626985 0.9519928544476314
P 6.607564579004597 4.720558577279168 9.222717932841082 -0.40194621363077876 0.9179902722499417 -0.5912539682930978
Ni 4.396360325544816 4.9597954204018455 9.103451438836615 0.7871956833321668 0.7678854130393291 -0.6110224091692767
