# total energy = -381162.59530919703 ev
CRYSTAL
PRIMVEC
9.30403541195285 0.00000000000000 0.00000000000000
0.00000000000000 9.30403541195285 0.00000000000000
0.00000000000000 0.00000000000000 13.61739629170395
PRIMCOORD
 96 1
Ni 4.623361311850315 1.8613374264767744 1.722219766331659 1.2725459124118987 0.556273595563171 1.0371943281166396
Ni 6.436420098209583 6.722835526495827 9.270287884770129 -2.1820325180662032 -1.8285847662564445 -0.626091130576941
Ni 7.55534201337851 7.786035573161429 5.459214460295971 0.6765112349007059 -0.2725125096162726 -1.0381014133119413
Ni 2.6616891667327267 2.4377782488163824 3.259881893626337 -1.159254365374894 -0.462402619144623 -0.18768127480248967
Ni 2.631776692657224 0.4550975915798244 12.441221338378854 -0.36383449436072174 0.9951992146317763 -0.8812612922600243
Ni 7.561333812229092 3.0453596779151533 4.607950107477482 1.2386364041486475 -0.1790580519098529 -0.2751082953679069
Ni 8.631214156370966 8.651701642502927 2.7399286619102434 -0.9049378099413578 1.5942636801082284 -0.44577580922121934
Ni 9.181622287431178 7.79750744891107 7.192123632993212 0.9467244069598405 -0.19785975799738828 -0.5376338689747966
Ni 6.610089224521662 0.6587117560915934 4.735259085788498 0.3706767140935358 -0.09087512701501768 -0.39518986874355166
Ni 0.5153709942410751 6.0047872841160475 8.078642837061125 0.35619960352328334 -2.4341150419628983 1.193249491373416
Ni 6.32204559002602 4.309554803104265 6.091687905924012 2.2671265196230697 -1.0529559618262705 1.71139542682693
Ni 4.208578106015174 0.8019464519376137 3.8471730821453707 0.959018136725529 -2.2105262546305218 -0.5618940270737419
Ni 2.1886440907076006 2.1935380133712754 10.543664232173144 0.4469544029103529 0.12401638965367674 -0.4901674479627171
Ni 6.736103081093546 2.1801681143832514 0.5787119374008308 -0.336204391348279 -1.0941974849745606 -3.6494590512425087
Ni 6.9287896559313875 1.9036149637082156 2.568213383049442 0.2990036139282657 -0.7880078948208171 3.4191406584957824
Ni 1.0134234568354503 8.4083638984996 11.315225565032758 -0.6436075421941496 0.627596254367558 1.1509936680279984
Ni 5.886151527681605 1.1349713763758442 8.587511240903641 1.516471354419098 -0.3634082054565806 -0.25343646682142806
Ni 1.8942830161194972 0.011974293665683321 6.757482824228258 -1.4172810226701655 -3.043060256888172 -0.775763016015193
Ni 0.6191900741700008 0.855676326444183 0.531902404485975 -1.2016508280632339 -0.7220220748483113 -0.30811380375965
Ni 6.056713106142605 7.576117924610421 3.59101623805457 -0.4985898676984574 -0.7254665817534861 -0.1549742714877718
Ni 6.020380847584335 8.967852768190511 1.7932477036068672 -1.832696731542289 0.8418820191314533 0.9504571345293952
Ni 1.0562406281248633 3.2158189119858482 1.0763857257510776 1.12927864494841 -0.008055266204308709 0.10120864773054182
Ni 4.8366098051039765 3.30131369403244 7.702244360011641 0.3959552861546664 -1.2049919766213248 1.2071370479887855
Ni 3.7798574550275887 8.475138961155862 0.22069172163947817 1.2658268485205102 -0.15310739348236213 1.5733127888881742
P 7.015819603832554 8.357442912305128 7.752016297824052 0.0205737103862936 0.6762826638296675 -1.1802983305293866
Ni 4.770430200718581 1.3682514580228355 10.448601180036585 -1.207664124136849 1.2946879957265767 1.8015928110486326
P 4.093226674105972 4.443384049481257 6.1545050318861145 -2.7334433862204346 -1.2256165948502118 1.5382051465517637
Ni 6.843797291800838 2.096003809410624 6.71575980751156 0.43321159940296355 -0.23723234625773984 -0.5889044942243148
P 3.350969331401323 7.91473829598769 5.200987468310366 -0.8414886403477765 0.47754230299953887 -0.141800195999659
P 8.142780205658163 5.324159872445964 9.596424101337284 -0.48518619269804186 -0.30548819321134485 -0.062252321072002466
P 4.0351974048030455 8.280796268002177 2.428090887072241 -0.6223815429358378 0.11117090114957627 -0.24084243220650137
Ni 2.8331997568129177 7.1240534485978175 12.357283121468447 -1.338735363754778 1.142161414448349 -1.6840273192266222
Ni 0.2412871345830342 1.467125443092934 11.767568231706282 -0.7843335312930233 -1.8219685464915074 0.13919001207032158
Ni 7.890491979520891 3.41997736257333 12.681758567702017 1.9764342537739767 1.9200234790844157 0.4921945056950749
Ni 7.307919797798466 6.204247196784983 7.195078594662381 0.3299468404743414 -1.0810483491871126 -0.4081693117223551
Ni 4.609563427230108 6.036086059478409 7.771311937010735 0.14746227938144282 -1.260525490912255 -0.5127137086943493
Ni 2.4918439990038617 6.505828202907328 6.632816191994206 -0.4523681177267564 -0.1531899258938394 0.17691709430745015
Ni 1.0013282107084973 2.1812008623217833 8.020401435749202 -0.16522063180612837 -0.8666366003683139 0.29917407806785895
Ni 5.598731263563276 4.07449765068016 3.2686248957690274 -0.0050802427363848 -0.1475890347672942 -0.917805409932645
Ni 3.0964760488547522 1.3168559660187682 7.933522213222847 2.1989403495651354 1.1788698256129764 2.638492032253514
Ni 4.076730619195905 6.772314387190547 10.430190354624266 0.9129054015278665 -0.5409189674839716 -0.6388944529891964
Ni 3.595153742633536 4.044715433101409 1.6679949171374329 -2.187308678863478 -0.3816237000233427 0.642520479777558
Ni 2.0144353303375504 3.662738256376756 6.45298500298222 0.8155672924963244 0.9351518716308928 -0.7341566533283163
Ni 9.272271505134949 2.067933534360611 2.919583074248067 -0.6175949201804718 -3.337813580180516 -1.561197236571563
Ni 2.5655691761653805 4.9268217331400805 11.077711216837784 0.6236403550436034 -2.7872892283962964 1.7415205283470845
Ni 7.641739286866882 9.250583798425774 0.4951133177855256 1.8825136550644161 -0.09300451465319466 -2.0302613268967615
Ni 4.999048960588953 2.622026063471804 4.913592325087839 0.13232825195348177 1.9247594511075046 -0.4508203136236623
Ni 7.09608551793811 1.6806158412691339 11.705595912165968 -0.627698584273377 -3.1368597566388363 -1.5995537248625742
Ni 5.623210180917132 3.4503364303519812 12.180134285886 -1.248194737261044 0.6488001421386826 -0.315007959776322
Ni 3.7845932090880647 2.50465565586295 13.329783708638674 -0.27544073900666116 -0.21724973248822585 -0.7136629042503386
Ni 0.09636561710407804 5.025146780116725 13.471567905353009 1.5889466387706892 -0.9539481784017894 -0.20780889879030018
Ni 9.129249871701473 6.2253301411878095 11.497889832849095 -0.5801226342666267 -1.1702712853106878 0.016167610898797962
Ni 4.601813165673375 6.139053820160707 1.6215324247460658 -0.18873825531209432 1.9959167879786208 0.32410657964348055
Ni 5.290888641561361 8.033941598586551 6.017377504930658 0.14301992733937305 -0.30079567283168196 0.13733290425692476
Ni 8.10307988625531 3.2012022722431994 8.28363958124556 -1.288446385692239 0.1255446533727451 0.40897380990152143
Ni 0.5198685649932051 3.901972920732401 3.715819639610211 1.8202813885970714 2.401913003309057 2.4471502778803016
P 0.13880225334226623 8.583363501885643 4.6669953774550725 0.24490786052512659 -0.5392647197100002 0.7152227925382908
Ni 1.8205578389579784 6.569058428044845 4.081705486968276 -0.3486559868480705 1.421804364461816 0.7632566560180662
P 9.242731192478738 3.3088313547021153 6.566172316238244 -1.2519344068091343 0.5001374146912355 -2.4802213494026573
Ni 5.132301356766045 5.657365295172551 5.071677191967113 -0.09824030913083727 4.990540032411327 -3.1395812693350575
P 8.157313109081471 0.6105242955218133 9.814343220403046 -0.04638501502244269 0.2210595931526193 0.9898148103914114
P 1.679787782111212 5.187474287175915 2.3871428965112167 0.2973491090439782 -0.09606901251113131 -1.1918487543711473
P 0.7447061648435835 3.42497362962731 11.74041533455482 0.5276646735772267 2.328318774861674 0.25688945836703503
Ni 9.09417365793331 6.43558273501618 2.6576530761405173 -0.014693083235800503 -1.278601374577359 -0.5114132447153708
Ni 2.8316180707809315 4.399869075530674 8.563327261474573 0.015571886296328023 0.18356108198652904 0.6741396493447358
Ni 2.3804188700681794 5.628541393248473 0.2154926266119849 -0.46913736676529527 -1.0510811134010607 1.6804545142736995
Ni 8.379465564291666 4.123157756252439 2.0467082382149053 -2.1260560027005835 0.12897527632084885 -1.1768270841513344
Ni 5.883369621072405 7.591776616327084 13.22818364117227 -0.4794947987402194 0.9530354367795327 -0.5344824678300085
Ni 5.604006651681724 4.101097888123974 0.810971366355417 1.6331004504697682 0.8916904580131482 -0.31822698093425195
Ni 6.436094456967703 5.9909987035313215 11.31886158209923 0.2677618823051646 -0.9527767838015074 1.4652423810407926
Ni 0.5297550330966668 3.987337446282241 9.52564086019526 1.476572204231315 0.31789325174391697 1.5690789533124847
Ni 2.8517240914581206 1.6407387451921187 5.5948710192416815 0.00608991494782177 1.1706518085785582 -1.2314853949261628
Ni 5.799298356454601 8.567546641565782 10.67972923827653 -0.07788848494736264 0.26737133173496536 0.8929968355293976
Ni 4.558735481390459 5.669832702718795 12.81198156992608 0.1616524548388958 -1.0083046416654828 -0.355329285103188
Ni 0.7038195809167417 1.348043092955342 5.044373569440839 0.05693425129319872 2.092051877840997 -1.053558628407276
Ni 3.040279674541833 4.541085726080589 4.085967665622705 0.666020362671711 -0.09945901202928678 0.5537132910351625
Ni 2.024800025864801 9.147736990204745 3.5239508894912612 0.18960111753302186 -0.1477607844584681 0.6875811195616223
Ni 1.5755918887452542 6.530725801857886 10.123091125057387 0.18150625634002934 1.7763890580894957 -2.176593606438819
Ni 4.803022237012977 1.0368975383572212 6.331504072497298 1.085390428205892 -2.1844359853013735 1.9970169630213348
Ni 7.492028051921652 5.522866158240834 4.073344880683906 -0.02256400134344501 -0.11758734619888135 1.6918869244803572
Ni 8.314002370638404 7.652848305232713 9.472070084695439 3.122466721141958 1.4868602164208844 0.37258035887415186
Ni 0.2427311208898827 5.427155545234709 5.754834370884827 -0.6083842002154812 -0.2077919295094357 0.14330094891490158
Ni 4.946341599581887 8.172115829533764 8.47390152443672 -0.7969543053808275 2.5208697190516394 -0.4589889654773837
Ni 8.682795729084678 0.43485666238814297 6.48480852594578 -2.0646464892448506 1.7090462098684631 0.9140971078431226
Ni 0.9355952000262497 -0.024575679322871736 9.089952417035002 -1.2697246409130196 0.3989182254377323 -0.5711985923041195
Ni 6.636335908617149 3.5075190324260217 10.069819939500093 -0.5351229296274849 0.42386666785295385 -0.4263572954852915
Ni 1.3909067844221663 7.859928222961629 1.702882258985306 1.045444998161206 -0.38077600731106676 -1.5501450925224594
Ni 7.8333279855178155 8.080787417239788 11.764041071854953 0.0486828099176839 1.332634650173679 0.9722539186895126
P 5.450843619572572 0.5263004447220995 12.627479755101994 -0.6435967435608723 -0.16782027421250453 0.042480023541081685
Ni 3.0211970977676943 9.070848440979255 9.955937614793543 1.2017068781121498 2.00923587368503 2.8337359498946104
P 2.866657068407166 7.678173889815457 8.601374253772224 -1.2562628589811589 -2.799003174399115 -2.728522294769733
Ni 7.723214725585133 6.3968686433744475 0.24841960818374348 -1.0808490886921127 -0.09887897115610067 0.8000190603490803
P 6.640876277932499 5.698396091649368 2.166051101346001 0.5786807596137775 0.49387652138318805 -0.6631543539778256
P 9.321899230397383 7.788315061854586 13.584034155859158 0.5502721265640974 0.8152129944806992 -0.6252130988473619
P 4.676450138312156 4.561880245383467 10.45351650198187 0.007470340235116166 0.14662435686117975 0.008273809973018008
Ni 2.6587304834493644 0.9358557130197533 1.2977826932801118 -0.1514225495807715 -0.1727917592851669 0.5903137158670156
