# total energy = -340872.35158706637 ev
CRYSTAL
PRIMVEC
9.21879943862603 0.00000000000000 0.00000000000000

0.00000000000000 9.21879943862603 0.00000000000000

0.00000000000000 0.00000000000000 13.49264482895983

PRIMCOORD
 96 1
Ni 7.8428382102171605 6.522153019377484 8.925128016235137 0.7776088109746802 -0.028463397547015497 -1.113497213744437
Ni 9.119853948669517 2.544148924031754 13.38506789312576 0.13939544321290834 1.337798710873122 1.6560339193374898
Ni 4.719453687198679 0.9158692750212221 10.595449999552695 0.1588502095034103 -0.31453693367717445 1.1663398114667656
Ni 2.132428127521278 1.5493575080166855 13.247429375491567 0.6464761219911963 0.4176407415479001 0.38409864392639653
Ni 8.350830928045093 0.6565416844594645 2.4688709744098114 0.08645720045298014 -1.4987973341781027 0.10246874538988804
Ni 8.933329981991735 1.9186349524496393 4.631539529346358 0.22872893677241898 -0.4152534722626462 0.611008782322522
Ni 8.092252825868197 9.109353736242 7.821618377938265 -0.379162897187676 0.351998163847426 1.0469406088701259
Ni 1.6064218758185673 3.7216016298087755 12.12521940277044 1.4034464307799184 0.5705486174249464 0.8563516735025382
Ni 7.454265818803701 4.767944571631296 12.914485062945651 -1.282155667587521 2.4837725570890257 -0.9059004309649431
Ni 7.326391853411146 2.896887842481416 3.0806406380830693 -0.2326053890086897 0.7994850422224812 -0.6301881834644502
Ni 2.5340359011757503 2.2336505440745356 8.629247886362482 0.29399999006608724 -0.6348362237594227 0.15782716755553464
Ni 2.5342110583628643 4.708400346811853 0.6594612782046755 -0.28309979821381565 -1.1209048190624178 0.2566148645494097
Ni 4.668141850173595 2.785764435456556 4.53978942909624 -0.4510625115414554 -0.5544779371153289 -0.2054799935468074
Ni 2.4018659752992426 0.04520622623426306 10.545797546405533 0.06970749179846704 1.006233103848435 -0.7633669563436853
Ni 4.175959373182533 5.2310970495580404 11.808560099226469 0.07678522458085486 -0.0017126118157325344 -0.6135588024378853
Ni 7.755361023452693 2.370429869611938 8.359570349802151 -0.2291549685662441 -1.342557565714346 0.5133832239575481
Ni 0.16105242415167642 7.887291260546834 10.071193475961259 1.5235488300911697 0.3338436044255863 1.2339140589723134
Ni 1.2777624611974219 6.428453143070808 1.6500157340514494 1.5492179527224996 -0.5756895381959375 1.3631040224071298
Ni 7.718098636594016 5.326714436123649 3.198323220825383 -0.4781789081422732 0.26600170508094834 -1.9343198411024298
Ni 4.434887789733656 4.3209618677149715 7.68090354697039 0.1211400965471462 0.5301689280563191 -0.8453216409406217
Ni 1.8515313121863277 8.661467589992139 8.027313759685642 -0.2762328958906533 0.004180356629934736 0.5990855485223747
Ni 2.2173424880742885 0.4820934230132946 5.6243415284677845 3.6950819912879456 1.1935821921224863 0.09367428702670964
Ni 3.54634303590222 0.3771226426557973 3.4461964532298164 -0.9628135992122192 0.9725189994254413 -1.3010442769619077
Ni 7.361275790044801 8.891319913482336 0.25401018711294887 0.42237054292340165 0.30395298751374106 -0.3624255298283371
P 8.206151091488916 3.3037318941506655 11.701779668562105 0.6045416865409395 -1.0542142597134039 -3.0118491213926903
P 2.9886333333318733 2.3862308916494865 11.015732294993319 0.038200165218805184 -0.2047179185698023 0.03935227654537739
P 7.703357776478473 7.243560941504861 6.747199582781232 -0.06340597506047145 -0.8886722400121146 -0.9475944682696197
P 2.851789476199218 2.406300217773024 2.1693743095632168 1.3854096278828656 1.543428599734232 0.6673408812553475
P 3.27996582949909 2.4604791013871856 6.590522400787678 -0.07426580059311082 0.4121478367541289 -0.5583960412228125
P 8.07120630701655 7.006361234955197 11.973791405110713 -0.11965297047865844 0.34387270652681423 0.5683690932751243
P 0.9944411016408407 6.237236807538233 8.953192807010463 1.393988113580496 -0.4910267106392189 0.6565779863118886
P 8.233927333845472 3.0890721519427786 6.419827112545407 0.5989037715288718 1.2192574854014033 -0.44873283496701427
Ni 9.235208784583078 4.16173476582901 8.16390041231722 0.13645564385829403 0.6682968174107136 -0.6664525651131232
Ni 6.848378670977676 2.746455475148442 0.6287506920239956 -1.5497753678878663 -0.5965746091750629 0.3509661230384859
Ni 2.6380147387262234 6.800109037728783 10.830370818910012 -0.5541840600239939 0.25877150588109626 -1.0430191623285325
Ni 3.975035641964113 3.1859525140154723 13.09246596829193 1.0477417646151828 -0.6003582445872112 -0.17492886023282775
Ni 3.202961198764176 6.4798940432863965 7.941258111776594 0.1600282889719115 0.9798237606169705 0.8121256138046272
Ni 6.354896343282242 7.083900556050775 4.2093673800447675 -0.5538989246834074 -0.7687156222501084 0.7271647953915155
Ni 2.173792880078151 8.516603377449526 1.5222404098116395 0.13672560969022907 0.989253795681619 0.5499106294596207
Ni 5.486393259176379 7.432832110380538 9.113634024767105 -0.8582699735711734 0.15043833129063122 -3.8116465526492673
Ni 0.48199201622075494 8.664177916992745 6.088582746594432 -2.8126022532397883 -2.219343081591204 1.351973716821923
Ni 5.778315758500191 3.4430832646988474 11.338408708854622 0.06347333796329714 0.31359873813362116 1.0567262275019802
Ni 0.6376376145702013 1.7297325355468343 7.1649043019314815 0.13019012256455642 -0.023335332291830782 0.02341117983508871
Ni 7.610533686107367 8.852296735953198 4.9440153417581 -0.8209277854772895 1.6817122979402006 0.6078057020041918
Ni 3.5607243628442133 7.180237008963484 3.3675075478588106 -0.6991546833318346 0.27722199927679997 0.2368633929540953
Ni 2.128381074619012 4.5265779677881826 7.6734151162813 0.4318566280369659 -1.1865643660437564 -1.3189720650849222
Ni 4.154977385926138 1.2075797419606322 1.0970196035743334 0.22923467276424392 -0.23017903895538422 -0.9326381040701036
Ni 0.23926010819808438 5.166915768679736 10.914200126782848 0.023983507398790953 2.1725176365972323 0.17819981767461568
Ni 7.020760999495833 1.456966701213703 11.321934714466583 1.3348604541804043 -0.11039597065676472 -0.448214500569699
Ni 3.5940871975897726 6.677148692374743 0.09009993517151742 -1.9912047272149318 0.9061616550461296 1.506987583298379
Ni 7.1640211409564545 8.489730577426508 10.325907057462462 -0.4289250562124678 0.7011915112562053 0.5671912709169393
Ni 8.373306360791618 5.495547526902916 5.376724578684498 -1.1959874591298691 -0.15404018970927666 -0.4531957558343744
Ni 5.851356305526735 8.363958498279322 6.774764714633317 2.1764431969038838 0.03447695073094708 3.2654473106029633
Ni 2.852370260556491 4.40272339889993 9.82941847930819 0.5652963678870716 0.060752853708340535 1.166102755755295
Ni 9.038129292681846 7.566163604971591 3.5798819497148258 -0.7066443068406604 -3.9773518374012986 -1.4090061842558832
Ni 5.717545433370948 7.0503256889208155 13.11634818981496 2.410876383149932 0.6191769199556111 -0.5815035737745533
P 0.6833453434875698 0.00048767448412270645 4.0962047746099275 1.9327424693129809 3.238171762716462 -0.6281994351691956
P 4.705238298644478 7.763814662430775 10.918909089476418 -1.3312881634481135 -0.11872480223743424 1.9070118973160963
P 1.2138116503021625 5.797020702324103 4.098444942845123 -0.3802291336686613 0.7400984727340479 0.37249371269761655
P 5.536746341071998 4.746861177582361 9.610460010976555 -1.6459953041545652 -0.6791263039260497 -1.9739919628810716
P 8.325682043495249 4.221242115451166 1.2353080465607131 1.2290991540821736 0.42715382324465784 2.860519388636041
P 4.950882425372902 5.028974874427789 4.1970492203909915 -0.5107211037443526 1.1346828466831167 -0.45986982542044025
P 0.2992938512615149 0.5354195676901906 0.48019895975266674 -0.043775345313737515 -1.267587539965359 0.47327838551686235
P 0.2932205062683195 0.7450532205078375 9.359173057183261 1.135898721368089 0.6653161375158348 -0.20662259179168285
Ni 7.609113991011811 4.1624999261727185 9.751876392572816 -0.49718681670334375 -0.061123606784197954 2.0839048232538304
Ni 2.4140993219992586 2.501871510342024 4.382774839047507 -0.8105415571469589 -0.25819480744201984 -0.7056266642094234
Ni 1.6559821409725122 8.486669936051673 12.714672197045507 -0.7281564698808234 -1.8848988674671407 -0.19244938561509436
Ni 4.162241799791708 0.2458838155107907 8.330291443156144 0.3081659971538241 0.0809414128410735 -0.7684055472088573
Ni 5.982613570270385 0.828454776092142 2.4391864405936463 0.20981795880052898 -0.6018366289049506 0.7603613367481421
Ni 5.3773533007982435 6.37450472943969 2.1759722042378224 0.4775849833120162 -1.26309530852196 -1.3929707280595751
Ni 0.7811162415747489 2.9656508666226498 10.188322930744267 -1.1868338176550592 -1.7850577895080868 -1.4601269141910982
Ni 8.534570817327696 6.616488992837364 0.8419953485359877 -2.477532489716585 -0.005077928743539642 -0.9206315665275305
Ni 5.034450841224931 9.114986422627613 5.044899428376248 -0.8818981545130746 1.4579481613722245 -2.6907769577001597
Ni 4.742970844268566 3.60324146531631 2.176768708499225 0.7469671748294232 0.31315265173513807 -0.6155771184194947
Ni 1.0991574431370565 3.979580510029755 5.598840485783848 -0.29040893028071924 0.17132700181418237 1.4259968052766088
Ni 5.018852632772462 2.670206785957915 9.061875997854846 0.2835453703916665 -0.5216698894463725 0.5068500508247207
Ni 2.8156978768544088 4.805760086449279 3.041848852416908 0.38051478322988014 -0.4852916079276546 0.8268477505061502
Ni 0.38524348297836236 3.8741451021864397 3.44222960388165 -0.3986585440184424 1.6079836007974821 -0.9547323648659815
Ni 5.811604842851175 1.9174918213337373 6.711996675691044 -0.5330714464150949 -0.5272412128865629 0.6103649780909359
Ni 5.420358999634395 6.086371156637135 6.359313070037312 -0.6443505910077613 0.3140006015577302 -0.8204562451575097
Ni 6.35375321216634 6.212170892182285 10.739619114626445 0.889422745024894 -0.11361833424880431 3.150520541955381
Ni 6.900575512737653 4.796485974331559 7.600757149426609 0.026475163472393114 -0.49865260261559274 -0.03461759007386941
Ni 0.8560825957796154 2.15061681858317 2.192325432354746 -0.5795829597130728 -1.0572507325468825 -1.0082218521436894
Ni 0.49470197484570727 6.266073211816793 6.901096374899335 1.704555006866329 0.963488770902373 0.8258226516757454
Ni 3.9940909001622535 8.866539780905365 12.619467812689516 0.833729308117332 0.8951411355659099 0.5551155706993279
Ni 2.989195680090502 5.919833546888993 5.4943260359927795 0.05650719105810913 -0.13184051368378585 0.09060438985213429
Ni 0.34734960836614337 0.9550952661354397 11.677897447039076 -1.0621060037566548 -0.290750372780538 -1.1742408114813971
Ni 6.437690379991241 3.939248262996923 5.4692029640810365 0.5888055067526053 0.23814277388715116 -0.9361162924266909
P 7.166325840786903 7.8095399070668545 2.3283985978640995 0.35867814697076295 0.26688745012001136 -0.559046787432934
P 4.449241460277683 8.31256369206034 1.5446651391618944 -0.7194751400567415 -0.32790718433649335 0.34088174221929035
P 1.6393883021932896 6.168105031424127 12.660553235626939 -0.3215848416628913 -0.8992764978905222 0.854913912614747
P 5.295176923643805 5.0054392797592575 0.22511847003845806 -0.4934152654760534 -1.2096127632227878 0.6052644236395769
P 6.2978043190823945 0.9118388159577352 8.928905880197208 -0.5835481150084079 -1.445901771730652 -0.2415119474697002
P 5.6831593119006705 1.301104461080195 12.928652513743378 -1.1890591074411523 -0.7057945572458554 -0.12539758627191952
P 3.742224083891621 8.040830363251251 6.5646037464944635 -1.0579881249335394 -0.04336371169761564 -0.29055368338869964
P 6.5344416788734305 1.663329524031979 4.600087751700206 0.14723782207546254 -1.2426486106318342 0.01728346967079604
