# total energy = -340894.8823998419 ev
CRYSTAL
PRIMVEC
9.03794311664809 0.00000000000000 0.00000000000000
0.00000000000000 9.03794311664809 0.00000000000000
0.00000000000000 0.00000000000000 13.22794332051147
PRIMCOORD
 96 1
Ni 6.429321480943004 2.194466777488293 11.63904215207135 -0.38729786758998463 -0.3148282396653481 -0.3009023736128753
Ni 4.673357619816651 0.2619855638620397 6.067274139227015 -0.5112414950241969 0.2898443160265008 -0.31797886947918785
Ni 2.81324954200291 1.5324464938699314 4.948825083186854 0.061298184688849275 0.26082915974107335 0.07850992058144543
Ni 3.406897787155587 4.138465041823975 4.754678319156068 -0.44783551996372556 0.8629740639150622 0.13744706123728587
Ni 5.166802191410962 4.630300859572035 2.5380324296526005 -0.15685503345025242 -0.5314274830537686 0.9553820826348385
Ni 7.4732761959587695 6.301389398394193 2.6137884675137193 -0.6810201785146529 -0.28504226665216714 -0.2619146794957683
Ni 5.0539996253712784 4.729130765801018 11.585641466113053 -0.3087558082190231 -0.3878642816164159 -0.8270089586743627
Ni 5.556545405522753 7.696314552238499 12.400786194477089 -0.8266212363176408 0.25987142381349443 0.1703749223135582
Ni 1.7180768042528378 6.543579155798679 0.6885683372586926 0.002243544618538072 -0.039417839675990184 -1.2546147818547746
Ni 2.9350719751131487 1.493167593781119 0.49178972423898193 -1.1580022381353476 -0.30370436183804467 0.02477026496614444
Ni 0.35651883200951767 0.26731704641206044 4.875832848281823 0.3120056826148884 -0.7750263949594847 -0.23564726115880708
Ni 8.824746920068375 2.3343922103403387 1.4049925185035168 0.35976135273261267 0.3479785011650717 -0.20583660555527777
Ni 6.858470126344999 0.7372259107534321 4.788158475044009 -0.05405821529698432 -0.3347224074861138 -0.6173928314719949
Ni 0.7348552583159503 7.647319863471483 2.7026142746841875 -0.029814769368587363 -0.04873911707691606 -0.07844050079609072
Ni 7.6041275340825205 3.896763333339137 3.7210069756361723 1.1592217123647457 -0.43985584419235857 -0.4103398370111127
Ni 7.825918654234258 3.8916117058539506 12.645291472867022 0.05070755365719654 0.2722060341194473 -0.21749964371550284
Ni 7.858446210934588 8.787637126289114 6.978679286637509 -0.15641177526524674 0.9790796833620944 0.3825631811184766
Ni 6.76871431484431 0.506714983237294 0.30561984866157393 -0.23410382793108717 1.134803431421381 -0.838813921729091
Ni 1.6448152386477044 6.478677687428279 9.246570312704153 0.759601318653666 0.18433549825870832 0.08903550270311764
Ni -0.07015703219958681 4.895410840314125 1.3461817198914803 0.9735446124764782 0.0037065023173097457 -0.1844511979009662
Ni 6.247459992772945 1.920454422934081 6.900739681758107 1.2467721458819045 0.21414949629634736 1.4503924605121539
Ni 3.3967752910443427 4.0626818901339865 0.28396855251505804 0.14472431162498947 1.1446980648272738 0.21287937133467208
Ni 6.074365309270661 5.549703682704706 4.6828899382528375 -0.3197390467034042 0.8883181991068055 0.5777207096933533
Ni 5.0938117640945215 2.797803697490305 9.585536555697912 0.7328834430428475 0.2170435300146907 -0.9346798170904805
P 0.2296044218376043 5.878983058437724 12.35417119609051 0.39136175324671313 -1.6594773978014001 0.5298624525594939
P 3.7238222948671127 6.169471583001578 12.851316805325496 0.7008999481577154 -0.8935226261258804 -0.8661604320628439
P 2.466391367219561 8.500158236729765 1.5285149886838674 0.6663335230367556 0.23196981230721983 0.5104483096989403
P 6.376991791225052 7.801263145849012 5.591940701523171 -0.5962879311725795 -0.6034080871571286 1.3305381726559666
P 4.6733305059877805 0.9885792385214822 12.628611045346563 1.2661590350489484 -0.16900863809365088 -0.7734649640096356
P 4.316178114177015 6.025668872621208 7.7689561149568185 -0.6531710175128687 -0.03992177589560221 0.38658952866905033
P 4.8410295375450545 1.0298826378325432 3.90072195235407 -0.21552400804637076 -0.9045238623323906 -0.43873021522834765
P 0.2532431616402477 5.599213534220242 3.4953909980252575 0.6373026830220443 0.07746168182258918 -0.5561098162917971
Ni 1.6042167988872476 1.0741595203762824 2.8755959838995166 -0.054429739703790135 0.508528209858092 -1.2429499439223368
Ni 1.8260079190389849 6.5920315679883075 4.617954125699203 0.7962243691933385 0.26015450227155196 0.7566250096341615
Ni 6.034779119121328 5.628378976140765 9.046285881611627 -0.4692278695965725 0.5168215602151358 1.1326102804248042
Ni 8.912785522407335 2.152720518972365 10.197302261301125 -0.49904855250243085 1.2468701049123496 0.32347074583169455
Ni 2.2793511377354454 5.553138101028165 6.7956311165572645 0.6174949042674979 -1.1049120431785873 0.849489399165066
Ni 0.671003095122796 -0.007324348971922081 9.075294967119005 -0.501436078898001 -0.5522009681556942 0.47342776661053304
Ni 1.4252293765773454 0.9527799464709104 11.582334482785281 1.107734857339363 -0.2898731123819072 -1.2157371309529708
Ni 4.007667931357963 6.759739637488536 1.776010018603801 0.41953693012934845 1.317364097167854 -0.8415467472792217
Ni 5.621907808983933 7.948111643005712 7.9072547180767 0.17758763801191352 -0.5126129214504268 0.24939340710030597
Ni 5.327207603002365 2.8519590516854643 4.927369006608198 0.41685475531149496 0.35060796836811875 -0.41462432331907945
Ni 0.6680296118901179 7.361603372788644 6.843290901149611 0.4840374238055793 0.9827591890962107 0.22367543350891156
Ni 5.396989560569258 4.219146758596369 7.070732543237732 -0.40981173242178454 0.4222520150676663 0.06092691739235958
Ni 8.051108040937628 7.174707750391832 9.09821880563379 0.007328158230297056 0.4189784865227172 0.28538576603451493
Ni 4.518808795261039 0.27176642572952986 10.436026871376104 0.6163600193321062 -0.058114387644228944 0.5537354025223497
Ni 8.275176722714393 7.223865122132064 4.862922146768509 0.0652923934499069 -0.17221120419134858 -0.770666575328892
Ni 7.256745158607696 6.208922204006564 6.979790049826858 0.10492517735018059 -0.960441499435617 -0.7379194628048582
Ni 2.31319823410742 5.2420792182953875 2.577716229585862 0.09032285405597348 -0.9011888844218866 0.08733111841750121
Ni 2.4594863788008197 5.085560122175266 11.320196177687277 -0.7725409095334695 0.29885243306238213 0.24806337543497278
Ni 1.103216506981329 3.4067079903535014 3.6685977520202027 -0.5600862844410418 -0.19884680450100592 0.43204791811216564
Ni 3.92644393800818 2.6252061008506256 2.8013212648889625 -0.7873494353012118 0.1241716842846184 -0.16562352367150185
Ni 1.1788640895269702 3.4899835967544024 8.048251147169088 -0.5387394433341496 -0.11276395666830903 0.0936478046641484
Ni 3.442868800122332 2.670368701804099 7.211914250160726 0.3811179640315178 0.2672175797659204 -0.7787969177455103
Ni 4.100505681406807 6.938067289962617 5.803481890567977 0.33528650751969996 0.29741338662301037 -0.3919816462188991
Ni 0.4356252353245996 7.670475073325956 11.208432975087588 1.0940923268552643 -0.5145109098040881 0.06310464176996873
P 0.23051906166479888 5.585530088584148 7.889965133200977 -0.5760806029867692 -0.7234307822703799 0.7396364454959649
P 8.399828031970008 1.7371016741762044 8.158956006648575 -0.4950114063185797 -0.7747484587077497 -1.1552241611695782
P 1.8479881963091165 3.2894768322651484 10.22144351073215 0.26387565987688105 -0.4351674375777538 0.502661723774986
P 4.0815079253123105 6.066692095700619 3.8310104907422375 -1.152208514271706 -0.27859471125461055 -0.11238163362822581
P 6.834618994882879 4.036399552016576 10.416727247986861 0.5172856443357478 0.0003581546703671251 0.605360325787493
P 6.159593111350158 7.631566728898359 10.25119280376766 0.3275212617519843 0.2575934264125951 -0.6517132020204196
P 2.200965058473994 8.582665617979366 5.7759812377400355 1.4517096366616804 -0.7868745525473223 0.2926110801383606
P 7.047426399735886 3.9319390073257128 1.6452517712925017 -0.8840787071041614 -0.10134363064650932 -1.8742208189280043
Ni 5.288922876638765 2.7446063652485315 0.7430318853086674 0.2948219717467503 0.19919698875157307 -1.2291647172127862
Ni 1.212882906815118 1.0463768837280982 7.038165219588393 0.6579355287810476 0.8767495204325997 -0.08028321043178432
Ni 6.687128803776268 0.6672270425555835 9.215881073601167 0.3670450308782195 0.7241483771626948 -0.528544762189335
Ni 2.7700843264428165 1.4076053878122317 9.189121532095655 -0.7625133500941385 0.1914523118091477 0.27431151049822433
Ni 6.535264248278728 1.9139199901765542 2.5214441891502983 -0.15693833719267808 0.48153214088522234 0.8760465808283041
Ni 4.005670545964582 6.844181138530821 10.438937089008085 0.5210685084169479 -0.5674129000094421 -0.38658052980798585
Ni 8.117419428409237 7.41047153035427 0.2048079215422373 -0.05891142962422758 -0.30141710846576475 0.2939696510487841
Ni 7.690467003145664 3.931794400238409 8.324265406088157 0.107945195123427 -0.6197163373988489 -0.5542038575183359
Ni 2.9349364059688017 8.139508160994845 12.395786404433569 0.3299774366019607 0.7978508490531678 0.25716893728066675
Ni 0.04433291779006934 4.884926826484622 10.299990465378226 -0.03523362639131351 -0.6262199428453215 0.012638257589300815
Ni 8.465949622639531 2.25740701223714 5.828350694406996 0.7056811715964427 1.3241767492143128 0.005923564573286573
Ni 3.6622648653906054 2.6534135208177645 11.405132958003577 -0.6034991042090381 -0.29197421788531003 0.6086942752567324
Ni 1.2810741864216726 3.1534557907702974 12.61158717599376 -0.34172712093872115 0.5330956147848109 0.09459782728224353
Ni 3.2078732453111947 7.99715152148751 7.9072673711968395 -1.0417176699082897 0.6602202110501663 0.11156068038882723
Ni 5.617352685733874 7.747080677824982 3.465707681973328 -0.14940886158485234 0.6151184336155212 0.6237285438820356
Ni 3.153546170199862 8.453965310279255 3.7246709577107247 0.828891006188424 -0.5684701376293629 -0.1240233316322122
Ni 3.414272748608066 4.427145977796536 8.959973526377352 -0.02895884912619529 0.4526607092665107 0.4676731235149429
Ni 7.239301928701712 6.113192312211649 11.495069528363395 -0.37218518031826225 -0.3777814434591172 -0.6201788788575642
Ni 0.7299738653251617 0.010640370242650379 0.4430490016690429 -0.600701743969559 0.37693426496747345 0.22131284681400593
Ni 4.695193289999478 0.393952184146619 1.718944446776659 -0.08574860442172974 -1.1041707941371888 0.13618002159940415
Ni 5.797641571829507 5.478186440090171 0.4852760787502551 0.8826334900172025 0.7988232402687662 -0.28868089184601897
Ni 7.704276979983148 9.09714148283338 11.209782339970989 -0.03155206377466824 -0.20604537913197415 0.6350529677559192
Ni 0.18103361259524686 5.0484051386812245 5.572694401997372 -0.5014810732033234 -1.7194427226114388 0.8433398346239025
Ni 7.804507767370384 8.968567706334658 2.2825876251081567 0.837082540860281 -1.3323091485134604 0.5321828731625544
P 8.533264221779309 1.5618198084784538 3.4268445272605135 0.05086284828813821 0.9716450814609202 1.350893339273551
P 2.068143448785733 3.1267577072768895 1.7140901676147398 -0.8310319637908268 0.236654876487715 -0.39297306359789097
P 4.728498109794065 1.1308093468274272 8.217105227836198 -0.2017765765532912 -1.0137229844675768 -0.2513402464140317
P 8.621827024809743 1.6674823995825272 12.51842225240989 -1.1611130158501877 -0.23007953726304248 -0.2152021059305778
P 6.26321312734607 7.593164509276324 1.347715458811193 -0.8012843002147492 0.13924143413354728 -0.2323462218100321
P 1.7176068312191015 3.1771803910310275 5.845242609792636 -0.18693822598887805 0.40621115955471976 0.6613386409253255
P 7.140707008989597 3.9982142430254966 5.785955511586794 -0.8937470834318607 0.13778233308951754 1.8805930410029352
P 2.476649432475153 8.363576842771613 10.18283070703923 -1.0400960751444668 0.6043817639243075 -0.120031951084632
