# total energy = -340866.09466472676 ev
CRYSTAL
PRIMVEC
9.27572467129830 0.00000000000000 0.00000000000000
0.00000000000000 9.27572467129830 0.00000000000000
0.00000000000000 0.00000000000000 13.57596066106237
PRIMCOORD
 96 1
Ni 8.540660437768773 8.877619681739287 10.609395591047683 -1.739691445558146 -0.22850550790770324 -0.33125913152786174
Ni 6.979342662481831 7.149450174117122 9.248812842127947 0.6785136100427154 -0.4390839990233406 0.8181749053225006
Ni 4.082598830696008 0.33907967459158495 1.6756262386102618 -1.7120957953280644 -0.2999850040049285 1.8465464929411877
Ni 5.4734287896430915 6.350967981843781 7.718340561098707 -0.4762420961308766 0.07262826498968783 -0.45736325694850266
Ni 0.21128801813270404 6.769989560480166 13.324967827012676 0.024601600598764085 2.262169946948743 -0.1771821750433787
Ni 4.4742662977771035 7.625545285612004 9.678817806146705 -0.3743644473577682 0.8839267549073292 -0.23624478553348993
Ni 4.403705861493246 0.0869617723476301 5.586588918273111 -1.3368268338781557 0.24527064318118402 -0.8016576243937678
Ni 3.4359324213407536 7.4880604970489255 6.544019925606291 -0.9256742711577607 -0.1968086910250546 2.086699098169516
Ni 3.9652238128524515 5.0686268966676975 6.3910465322703995 0.2641016598447581 0.037424206284729096 -1.0787958057075098
Ni 6.653198913280211 8.58540653276461 5.214227944169696 -0.009506911049170725 0.20527636217643355 0.7285621899596744
Ni 7.976343910538942 6.8770221455044105 6.757094448278007 -1.7254812154960348 -2.1308199997481303 0.43451951958110974
Ni 0.47589382827319593 4.784298113519401 12.255725381392013 -1.0072867419239298 -0.5979756032876474 -0.43754570800194326
Ni 2.34212971238469 1.804082036943459 11.407431620972497 -0.12783242096565725 -2.170836649350384 -0.43499414522468305
Ni 3.3726719802396747 6.135882482100111 12.905348891718386 -0.8928268856104367 -0.05889626011557599 -0.25817063907230375
Ni 4.907962072575059 8.57798595316331 13.529163626191437 1.768862153584831 -1.5053490192536914 -1.7105657318367833
Ni 0.5335545144926443 2.0861011646908505 6.845691530855274 0.3415545999165989 -2.205159333891654 -0.09206709044058982
Ni 2.1235750916774134 9.301882044719092 7.606285171256831 0.17333606182441114 0.7580062062524042 -1.0643132958206185
Ni 3.7843100821727673 2.49840711878806 7.635269027607057 0.6066379069483359 1.9473535343579367 -1.3851219214391177
Ni 8.516293109503007 0.9574681102311867 1.2506292382499298 0.40555192870416606 -1.5170138571861294 0.21986685839609876
Ni 0.30722961937035687 7.304373324743255 3.7636224338167943 -0.47064994675507976 0.6442449186678324 -0.5422160890288403
Ni 3.5763947174688537 1.616489784622605 3.5975071940070014 -0.8781541140896102 0.5454237973328607 1.1793166833424076
Ni 2.0991428333401347 2.3783421408390324 9.00314249598507 -3.370537295665782 -0.6570302433579587 0.6471430661512337
Ni 1.2630104753146982 0.3852366072841186 4.814822667709347 1.2088108361467829 1.2011247803564347 1.5035541321367978
Ni 1.7704853627985748 9.148387355666209 2.7366828573582405 -0.7578565680484174 -0.442907743644805 -2.1419575044221886
P 8.028733202524117 3.6241368714787154 13.591708908933443 -0.3588846065546142 -0.3274348726857651 0.17941157859452972
P 2.9093031627610224 1.6960847765710447 0.4963041324665705 1.1512044984872238 0.2901847300850551 -0.47759089684928724
P 7.509023634422597 6.85251568137112 4.4947563732011915 0.38713177432576557 -1.378174286476691 0.0009345959991274228
P 9.272997438621031 8.17270172251383 1.4348163721062372 0.2979769724359642 0.006435728323014723 1.4005446837520912
P 8.647897088732055 4.888891182999719 8.05981708290151 -2.8592878302217857 1.0798612708575468 -2.992948170723129
P 3.4677110534833195 8.059398747726489 3.383305670808337 0.6710404415941218 -0.1269307350869943 0.1965873190428679
P 2.6785602400586113 1.794871242513346 5.859194113223803 -0.4791065621628652 -0.39671504713882644 -0.5624671259683925
P 0.23527967955615586 2.4559892306421314 2.9691436442383528 0.14304666681225042 -0.34562722732407575 -0.9006216990645071
Ni 8.472548792753344 5.078589024782441 3.615536419720809 -0.5532615482097246 -0.003028502413678655 1.5372168144965654
Ni 8.025393941703532 2.817223045633396 4.582538119594766 -0.18174202649991927 -0.4378421561964394 -1.1921408316902695
Ni 9.518748483567071 8.306958558950344 6.317776656859618 0.042134210165888725 2.1557941531949645 -0.8893492114744812
Ni 2.704263272652613 3.5328266394847234 1.7901805086328744 -0.33203869000636366 -0.4263513819480205 0.5146260952257137
Ni 0.9666046988652868 2.4042492393720694 0.7720231881324587 -1.927618260712538 0.43514584031119896 -0.4479447918480801
Ni 5.640781411101401 4.016518569346435 0.3640870278479646 1.4094301591671792 1.4523079323673118 -1.6021646801228602
Ni 4.815158448936305 2.2617833867516186 12.30355379963974 -3.057447893068412 -3.070702186975157 1.929710624465193
Ni 6.43649943747326 2.414146437415303 9.032249719471169 -0.5372461466180747 -0.48523735765095144 0.07096578968560037
Ni 2.7003952955354356 3.586505257175625 12.732092271614793 -0.3647379800115977 0.9294347666414574 1.4885404323367848
Ni 0.7255304742129662 6.770611034021775 10.639045444417127 -0.10201983077792752 -0.07958515592349519 1.379817992727701
Ni 7.32671854506767 2.9440036481216 2.204383348390666 1.8355308585569743 1.0141217625678922 -0.008311348079172784
Ni 5.581528082985025 5.951777902191868 12.570117715222525 2.3374762729912257 1.9556707959743802 0.7823208717383688
Ni 7.718107740413716 2.9066966841760657 6.888008313604136 -1.0007412274959282 -0.5504341060632585 1.5769755824517422
Ni 3.0486338204999246 7.2347590123585634 1.2567363752617993 -0.6585780474610529 0.8576858189329293 1.939550750484066
Ni 5.193070016581491 2.4165674015102265 1.6645352548236692 -2.3295601034679425 -1.6397665496360339 1.7636530985800658
Ni 8.528425757151131 0.49573460298217076 3.5821939004272694 -0.2504827835097428 -0.2856387625855855 0.4994979813350237
Ni 7.938489678847812 4.830880801966559 10.329364251060989 0.5118392765091959 -0.2918950279079425 -0.7292882694924214
Ni -0.1549148024740811 4.451642805717642 5.734146216072503 1.4940443928741496 1.517848951492915 1.8714237157988414
Ni 7.255035746119114 9.163970572828937 8.14882044221195 1.5998833402878512 0.4916682008779597 -0.2315314392182206
Ni 3.185868164501459 4.973587823424052 8.597764580518124 1.3852489339352851 0.8951323938151617 -0.37874766402712834
Ni 8.747036032205418 2.8148670116099836 9.077783323477194 0.2603974715202935 0.8954296133406062 0.5643900540227184
Ni 6.007682693763159 8.144215972569341 11.434338642606809 -0.7204333902049528 0.2080863208214029 -1.6318634927388733
Ni 6.724779679259249 4.725332332862574 6.136252583507726 -1.6494148713590755 1.292472990353129 -0.9601332241665788
Ni 2.602434369073779 5.218958563665526 10.885463413954831 0.32505094583462085 0.012983299633545381 -0.29824436716473796
P 6.2291684434129495 0.3496029840386779 1.4141537682064187 0.6001592412025276 -0.4146060684866343 1.4076054472536144
P 7.878011955097221 0.9770862675521226 5.740798765685068 0.8565380784817314 -0.3012479298777522 0.8713226929900736
P 0.16086703488677354 0.8895178628220861 8.973832134132387 -0.3636817708329414 -1.2116663033177069 -1.8122160950904336
P 0.745457513159806 8.758463724791419 12.171785640087013 0.476980774069114 -0.2629310365754246 -0.10847689925718093
P 3.669569370087672 9.185963315622288 11.151348346504099 0.6700315407136331 0.09054628292068923 0.2397952218889096
P 7.772843790697801 6.660239188176945 11.301281157348356 -0.4356263794920433 1.2854600493704056 1.0385721823007728
P 5.997915355862949 3.361596765184735 3.9589812502628585 -0.4181374786786605 0.4777407921635901 -0.4924688424023841
P 2.506894406707046 7.02284581039445 9.116379613128453 -1.797436365678098 -0.891501996151426 -0.5666899058004886
Ni 6.419636170329307 3.1822784591193303 11.229627113145757 2.413229713873457 1.5891266159919792 -0.37367821992402095
Ni 5.878954189129614 5.71848415525151 3.4142587634702584 2.1096245966174374 -1.5912922561847305 -0.36839845958232037
Ni 1.7507744482326228 3.4924865136271586 4.176522034282107 -0.35122220491335 -0.41562679644166484 0.32121254592513715
Ni 9.28407265367597 7.674020221857495 8.614231774225859 0.2924123338639931 0.736213535857345 -0.6312773027635709
Ni 8.845386539096141 5.154983891777821 1.5402609530958045 0.3392490917118738 -0.292592053974967 -2.6866544508913535
Ni 5.658906176777576 8.015988357058886 2.8401044028340032 -0.06846307786840466 0.13524156894553485 -0.3903320264306181
Ni 4.1133849603169 5.235627040594944 1.7805819889185932 1.008979042024688 1.1429155190055542 -1.2883347998150394
Ni 2.7189745717121894 8.831408022272194 13.19366159854013 -1.6230299536076436 0.703700393720988 -1.2944491402428933
Ni 2.0334614281441317 3.80761997784535 6.773548655971439 -0.33658671438836224 0.3666385394684202 -0.22393614336946596
Ni 7.238200306148666 7.980211887656119 -0.29442726441321465 1.5038171559901972 -0.5517736508102885 1.840488459672566
Ni 1.2771466794551738 6.394962743154985 7.052100517900123 0.3951243056129389 -0.8022536061065538 1.0426530372383656
Ni 4.869217371331773 6.80141571509167 5.023539455010201 0.09308370463056226 1.1668838568956936 -0.252204651296856
Ni 8.987221642450482 1.4314947351622056 12.066354045111748 -0.35245967686487684 0.9220634138780507 0.767463237900246
Ni 0.9940237404920889 4.75419838751163 9.137788912850652 1.5727528026196462 -0.33647075763578826 1.7455291352858455
Ni 1.646450374762852 9.00234107338813 9.853784869848399 1.7125002298553345 -0.2467407999688073 2.0784332586162977
Ni 4.638437345731355 2.9178461050270186 5.618682925048731 0.5252650629967986 -0.1678580694289754 -1.4176291500382037
Ni 5.8456265109952765 1.4006622269188058 6.845460565315184 1.278889081021107 -0.45595660640896307 0.38144397991236884
Ni 5.994910021124422 1.1076606413614907 3.7640704513102228 0.2006226654545061 0.4288430380216227 -0.5378043331143899
Ni 6.823807314038591 1.660809196291367 13.501414368772378 -0.015757519944572862 0.999799175297633 -2.043304533233965
Ni 5.268685722718734 5.423896420804417 10.215666130409875 0.7069032169290019 -0.4201791916990376 -1.4726744118388058
Ni 3.931348866972519 3.1729470802706956 9.974081740909966 1.730432645964039 0.6660671567492464 1.2470081731521103
Ni 4.028623389821055 4.316588256973988 3.8160534665622268 -0.522614769858145 -0.12608664191914415 0.7633291611272144
Ni 1.9747739192223532 5.679962071396263 2.888910482444201 -0.37642750053438395 -0.13525956666766384 0.5628525343322694
Ni 4.358486704547826 1.0411351452358397 9.007907435661556 -0.2991540234632009 -2.378319275149517 2.8870470026129245
P 4.560975770418289 4.281461088286337 11.84733378303449 -0.8013048690400394 0.5282583412971675 0.022174479214510195
P 6.5171518620148845 1.0075013681929494 11.321291677815712 1.205458888955414 -0.09568154726472554 -0.3197760705889267
P 5.4604613267898205 4.084120049514275 8.110984761969823 -0.695134763539164 0.8114998072951701 -0.6123529550552421
P 6.100319354360884 6.093288355188652 1.3258460882336027 0.43125601833848953 0.4752375661257622 -1.4353489359154699
P 5.186308013419808 8.81767995000979 7.847787934381127 -0.529112975987979 -2.1800967344960713 -1.5614600033146464
P 0.6729046512529996 3.2048370211072807 10.931933866135521 0.5890183940943597 -0.7096954349621584 -1.0438807389978797
P 1.6329541956129885 5.241331611163443 0.398799571650394 1.5805033930993426 -0.026606546843934823 2.396550196335247
P 1.9203996221938302 5.503157486670799 5.257372121544103 0.537540537930042 -0.5091712427587295 -1.3878804580208615
