# total energy = -340892.0917842616 ev
CRYSTAL
PRIMVEC
9.07161063365655 0.00000000000000 0.00000000000000
0.00000000000000 9.07161063365655 0.00000000000000
0.00000000000000 0.00000000000000 13.27721913481334
PRIMCOORD
 96 1
Ni 6.270850751833229 1.791425413944977 11.427928137814991 0.9255374884695802 0.4720195734090967 0.8716204267361505
Ni 4.819256949991964 0.3491091484668229 6.123799033636641 -0.49509265317847634 -0.046170585018791455 -0.9775354788034261
Ni 2.75156470080483 1.7181449419187687 4.882631223026762 0.5534330407905823 -1.2394175052890462 -0.44155277227880724
Ni 3.2844583339114855 4.159288192826987 4.870176808562194 0.33849241605150737 0.9244720233195433 -0.8928721370260753
Ni 5.017662149754926 4.40054768199968 2.64828713335289 0.22960002652346265 0.28396420309664 0.7529192786478001
Ni 7.24838031659284 5.876652976217129 2.702193366197819 -0.20057818536981586 1.4395891992490626 -0.8438851656044113
Ni 5.210116372834403 4.303436088407138 11.807936099820868 0.7440903675022604 0.7589631708490348 -0.41009198266636465
Ni 5.59314699555817 8.041338888056432 12.881000612216328 0.17380245993786841 -0.5921068032116964 -1.1846468373060695
Ni 1.884273350462462 6.520056972064967 0.32413772542318037 0.6745150304062836 0.3243822019023703 0.9123490148037642
Ni 2.7285681674319116 1.6457353445291678 0.34500424458072987 -0.20188816243049104 -0.05478480905036372 0.07479519073401958
Ni 0.7451158032760435 9.221564524486455 4.70758451390756 -0.1477834101662874 -0.06944652482759653 0.34410333448038155
Ni 8.694649082895682 2.5438338851415296 1.056498843917242 -0.08007829350982983 -0.9601789898028495 2.1286250489793406
Ni 6.872207831632356 0.6656920364174326 4.8629539920448295 0.21457372831795948 -0.19720849756663456 -0.08513513920744693
Ni 0.6101057412527147 7.495826644329766 2.3793438095079535 0.8692616966959869 -0.8748746720073901 0.27884642225410045
Ni 7.566966216207647 3.887983528691334 3.827570229421002 0.24271470952854973 -1.035610014348655 0.7116852116986776
Ni 7.551036467646367 3.6683326164394665 12.487888708412749 -1.541660709200532 0.9939545435913979 0.4086994731942123
Ni 8.444644560913721 8.997005870792874 6.815196386411274 -1.189262738811526 -0.16778350743729814 0.26607086775598693
Ni 7.028303038633466 0.6198822162097145 0.6735344439522998 -1.1760740080353937 0.8683121882985239 -2.8461986011379947
Ni 2.044106061112346 6.354554504666335 8.90261485327865 -0.40610111633941676 0.9023206840334846 2.1420251244353303
Ni 9.096467011582098 4.894732751831288 1.2619236561156928 0.11288891228194751 0.6358212133805115 -0.2165740465774399
Ni 6.557368507277121 1.9681403922899312 7.095067372623475 -1.399134433668126 -0.6462079559314743 -0.4919821325739527
Ni 3.5916502903640097 4.41729387553278 0.6535406137535175 -0.8972530397025902 -0.17765962890042952 -0.5463097994822398
Ni 5.956356148688318 5.511112419111897 4.774886794417888 -0.19582524406586274 0.17785246163752597 0.8162800022926329
Ni 5.200845186598851 2.7612259663046954 9.346485140980255 -0.07953784762532755 0.7184376999311627 0.05009280289133309
P 0.24660176077163232 5.892773228605168 12.417067550073876 -0.7195612720126446 -1.2807171353687814 -0.4767457752401725
P 4.204346883660632 6.054474691079439 12.573181807457663 -0.7735786067693645 1.27492006907103 -0.26848384807285375
P 2.3820598497808736 8.502675655188497 1.3778035052882085 0.5608146779666342 0.08560128021058806 0.3264853642883022
P 6.723632989982785 7.803272605884634 6.045967334473079 -0.9313286412300605 -0.09230003238700234 -1.1446232457252803
P 4.693542567553342 1.0348530733921448 12.705197330756574 -0.3110312345167611 0.03549562180344855 0.20446106536398984
P 4.1883717770453615 6.134177863550628 8.253318846217514 -0.23221278155596137 -0.012469593221920459 -0.6085988873294487
P 4.68087859887934 1.07809744206619 3.8771601898482455 0.6082864982953523 -0.6434738448297629 -0.5263798933275321
P 0.14843060303788363 5.573543244623702 3.5892708068516956 0.36659945870036864 0.25881367197294136 0.3638483783177927
Ni 1.3512708580262311 1.1623454915471747 2.681334104328908 -0.0704561970390335 0.1831659034306394 -1.2083446951436416
Ni 1.877905079682269 6.606219131424329 4.675970857437624 0.12874002038159119 0.11838695928204127 1.0033624671688592
Ni 6.062149273814543 5.801159031156209 9.374818502985635 0.1345216600603748 -1.381957407668207 -0.24038091918905052
Ni 8.693351842551568 2.4385124837768006 10.225755553381378 -0.748106687750505 0.1317914056134053 0.416074939722677
Ni 2.580510407597825 5.311419050615619 6.930947418710458 -0.1823719467744343 -0.6308643835958684 -0.7289002900253834
Ni 0.7809940239821161 -0.329941742011738 9.015245251463323 0.022290693077400323 0.4244096848406174 -0.4447496819495501
Ni 1.3902424980144201 1.3373912935052978 11.532632669645455 0.4590956662585771 -1.5844919454334456 -0.5215284787725019
Ni 4.342743377994852 6.7929582397010675 1.4129614400969202 -1.5796500439601118 0.803873401098164 1.4868784712533296
Ni 5.8269224058225175 7.882059545665225 7.982636494582603 -0.35500018389854343 0.17573361552231026 0.5183349115358686
Ni 5.231507231096077 2.8477237752635833 5.040709484148314 0.1617247028377279 -0.26059801756687373 -0.3886713508987435
Ni 0.7265199083012324 7.13736194364697 6.81864904148099 0.680068613234661 0.09775205664050907 0.047343265170653945
Ni 4.9362898008969065 4.264192300095009 7.113030976325666 0.8907692317504595 1.4278487708836827 0.32591997870313544
Ni 8.275096155099183 6.950450474765068 9.136692348182569 -0.521626952023579 1.2425010293103764 0.3603786746016374
Ni 4.567274816856042 0.4989240793124807 10.373265387923263 -0.6228793085078627 -0.6839900597762542 0.11905107522860142
Ni 8.322377390578335 7.4383489183136655 4.656480501638131 -0.2723507872274277 -0.93372285249385 -0.26630483814366396
Ni 7.3120539527839705 5.967604946077833 7.143236718799752 -0.036350513604576105 -0.011622928950909016 -0.9697031272432008
Ni 2.1821578342362433 5.3349598806364185 2.679608683955129 0.6399750876478849 -0.36261270613847874 -1.1039728191937697
Ni 2.3436778644945546 5.521581057972783 11.390925037369968 0.16168536495936026 -0.6897102500894832 -0.21722993499388396
Ni 1.0005533129649236 3.3886911419804546 3.716572721179968 -0.26092351922709256 0.08509502999813086 0.1203880488724701
Ni 3.551807775739213 2.437496463367425 2.454002259214378 -0.8348017152459042 0.6189378073616114 1.711025702192337
Ni 1.0359053802447125 3.3160819691532977 8.208229311907157 -0.5575738024318333 0.5793883272037635 0.34010861149869165
Ni 3.2639655651188133 2.8082985547354946 7.356363328565701 0.44717834599570083 -1.2961386121301743 -1.2127636501469437
Ni 4.427299862242969 7.033664360615082 6.115301655802158 -0.4892377370595961 -0.8267801304930084 -0.7210998201443581
Ni 0.7529582108109106 7.638922233057348 11.173298001487131 0.8322910330089085 -0.3578713347987514 0.31015680233160775
P 0.3143939082650533 5.385978619764345 8.075058972553663 -0.7259975145562916 0.332555224631466 -0.7056850282511846
P 8.693542346378324 1.487208945834195 8.298634263636743 -0.6755843522110623 0.2712210444983587 -0.5833264859159051
P 1.7735724838945215 3.42274596891613 10.52177128533077 0.7322661211738227 -0.3280743060419769 -1.316336684344604
P 4.008427305256321 6.080228994134948 3.8433965616191856 -0.3177477273049883 0.5505415781754002 -0.20620093087323196
P 6.811028888410674 3.8167441690946746 10.409140887146098 0.5537166334692722 0.9597843254675922 -0.5186375303779519
P 6.32380174406113 8.027105530714376 10.13078395277608 -0.7292111363975828 -1.7336449822537496 0.5584163529377867
P 2.567084423616792 8.656475744657715 5.8595956264336575 -0.4007658201694324 -0.7493616432035287 0.13251851358741693
P 6.903142024453522 3.9162325247162917 1.5147049981629197 0.6068055428744518 -0.10022494366103385 0.2849088263980964
Ni 5.225483681526208 2.6456536447382315 0.9092448287998586 0.21372140761999325 0.05664757329071534 -2.3469063080558743
Ni 1.450142344113585 1.1769144984887556 7.0218431445842135 0.596176859516012 -0.5841446109418262 -0.27672731902856856
Ni 6.643476236971696 0.8785818771415536 9.166592377372764 1.748279444337473 -0.4913118459798055 0.29648161883736035
Ni 2.4694466765979652 1.5470090042145817 9.24670740097418 0.6883699340115048 0.16277525558942935 0.5555932816666947
Ni 6.499228553672768 1.7611715919336617 2.642180124963679 -0.9415598320397656 1.4351447903244638 0.7981377841659674
Ni 4.207667093212699 6.994493145189337 10.355075901112203 -0.373706244948479 0.6868103028338688 0.5615865231356522
Ni 8.222508027303203 7.484478059221473 0.11484296405830496 -0.5440719112906566 -0.36853421382923623 1.226514681184449
Ni 7.509062124484041 3.7794961351581047 8.1900262176799 1.0340251863600385 0.19031177044680125 1.4406963162703124
Ni 3.1686773652966673 8.331548789095109 12.454602246911664 -0.032395642721886136 0.17603880546755488 -0.03842230853194028
Ni 0.014326794933274435 5.033219962273488 10.276063078222741 0.2959820534931225 -0.9448768122281406 0.4234504062511417
Ni 8.580065566906198 2.301630948445845 6.032769955084154 0.6095530237126019 1.106766836999139 -1.3282684027851834
Ni 3.6545346964157153 2.7711503085177025 11.552084017518519 -0.9270297567443906 -0.9734993610608393 -0.5331663201217463
Ni 0.6980132785296109 3.4329878175070667 12.313944200005503 1.6481357475363356 1.4864246715453626 1.4350195776005092
Ni 3.2634756981357214 8.285537579127675 8.043140509960914 -0.055436583701749684 0.6906484456330363 -0.042872888104126164
Ni 5.706805207246257 7.703457672274289 3.662029661257019 -0.7606135619682644 0.737647182980078 0.8575048132703749
Ni 3.025019336699609 8.379818830151244 3.5472882992396517 0.8562226041238415 0.3402623634677366 0.09089003941335314
Ni 3.4288874494263726 4.1760343863600875 9.174651596405702 -0.9023304542254976 1.3649115079295138 1.372399845886759
Ni 7.224884844626032 6.2493601058527775 11.529737918639816 0.05090167194587363 -0.1845697257567015 -0.34994308109061023
Ni 0.6501641602145035 0.24776836992025453 0.3842707119198538 -0.347677167874569 -0.44952524896132257 0.1003308731112788
Ni 4.553186605286754 0.3116960112137295 1.6651222839655642 0.15695247826006517 -0.7632137185952726 0.14304820947414718
Ni 6.05908306936482 5.5994336218411815 0.45439517054943945 1.1774703741622883 0.10224608785612069 -0.23343097023377862
Ni 7.809078436795351 8.802528678505444 11.342781998865005 0.3132094731150025 0.6994776138888921 0.47189153247166477
Ni 9.326160196987345 4.8219965764529595 5.84152497772405 -0.77751650837119 0.2818993501478113 -0.2751571463279713
Ni 8.032811573906317 9.046745512798283 2.480064997037019 1.1686841433292259 -0.7052944776809853 1.9290326245615619
P 8.390405399952504 1.820626929103725 3.6084291416959826 1.5083667230340925 -0.48556800151749274 1.0905182363507606
P 1.7035759349771875 3.3472157374120184 1.4620479261248742 0.517467935549883 0.06574773581977064 0.05989667635563233
P 4.649935334447377 1.1246892351246953 8.083356774950587 -0.28686672145541564 -0.0436079664979378 0.436721412328435
P 8.394288049374047 1.5454305439357308 12.459169802948455 0.003272500103684686 0.09707714206067153 -1.2585210588877165
P 6.4447081727768145 7.743191327569509 1.669703447418552 0.0747450542223745 -0.6534852063191777 -1.283641250994112
P 1.669956545359816 3.2238055441160864 5.946879944048732 -0.21985554554218908 -0.088614356005299 0.27664710060993647
P 6.8138138729256585 3.9886239788842968 6.088627491411732 1.3119012742810696 -0.3230840519162371 -0.5025604223104312
P 2.534154476420068 8.720575746556353 10.34341888123678 -0.5114975768990611 -0.7573361767685731 -0.1690646881425669
