# total energy = -340868.71702592593 ev
CRYSTAL
PRIMVEC
9.31867405743566 0.00000000000000 0.00000000000000

0.00000000000000 9.31867405743566 0.00000000000000

0.00000000000000 0.00000000000000 13.63882142906495

PRIMCOORD
 96 1
Ni 8.264107718222876 5.957866337092374 7.979406382374041 0.10473877237098735 -0.041724633432295884 0.623771481304829
Ni 3.526586986735292 2.8226450256870748 10.157907378785662 0.12532713804530027 -0.7238938379497275 -1.5063286095581412
Ni 4.014456851162801 7.758756021162407 8.42341790709631 -1.042965940493094 -2.551769493954289 2.1927658453233074
Ni 6.504984331520075 0.480943293960515 5.277296542582923 -1.206270329113116 0.01480621177489708 1.74153544074542
Ni 7.474443274024016 0.24917016332953085 3.386491903879536 0.7301580736918845 -1.3180179287017688 -1.1489990061954727
Ni 1.1309981582248205 2.5516579825279666 9.97994865928052 -0.29375496393481665 0.2723482161242664 -0.7987278523414825
Ni 6.156074535441556 5.897248361997807 7.218291560050235 -1.3650794009659457 -0.29155332829780756 -0.30073396635581107
Ni 0.03332730609196127 7.429564539503581 3.2584784820091914 -0.33895521462053885 1.2513546230462642 -0.26601816014118057
Ni 6.000946567509311 8.013323560537254 9.796901943710564 1.0015110157824172 -0.761872631186346 0.6485327474099088
Ni 3.3228434959639466 8.225985022433195 3.5285951610062964 -0.9126973992821185 -0.2227254108908164 0.6461825020101774
Ni 6.514890082100478 0.47051383389505164 7.692241189090155 0.20163953675479465 0.5045064902932085 0.7801251496386307
Ni 2.165631907463797 8.813546062504312 12.743405194481717 0.04232010092444969 0.4561568953452273 -0.7033898044591047
Ni 8.921260616557824 0.8384253383540977 8.908741909756587 -1.8254235949196431 2.0781530083717175 0.9681933754668938
Ni 3.9364222741540535 0.5488820194369864 7.557284423139417 -1.2088730568432857 1.482914601509575 -0.3044654083737853
Ni 5.552056716889731 2.0713176067824586 11.1637166052633 0.7781094047601825 0.6210926489210852 -0.3740320037190139
Ni 0.848982464254887 5.121263731394463 2.9182713956832966 1.228322423817149 -0.24492791512978468 -0.3348321935911008
Ni 0.207038573937132 2.8486348077837302 2.1208500871541203 -0.9681985176732164 2.0226991982787874 -0.8023500224751021
Ni 5.30868090512266 6.093359858671928 2.3201681395899687 -0.4933651289644084 -0.1753906303605947 1.192481759969456
Ni 6.571659444787042 9.3233334484418 0.5217665415076752 1.5049589829041243 -0.8071050206615842 0.2802337895199303
Ni 4.17889417453232 4.684963409499366 0.5705498004807815 0.03191690331325471 0.3434502742774149 -0.9346631049199323
Ni 0.4339790401739512 0.8134093577020816 3.184392227221439 -0.8916086969326192 -1.5938939554736355 0.8807277883540573
Ni 2.762343885512295 4.809199972752365 9.330181742046259 -0.9222325924660634 2.208285281115145 0.3536490691872877
Ni 7.075026264261785 2.011771279210701 2.0188460165960653 0.2401574903243348 1.282186006604824 -0.8130992905718061
Ni 5.079646532813013 8.007322334409519 6.703603483397569 1.9307670907541652 0.08675313442684415 -4.276472950744035
P 6.074508180944593 3.8637179787370193 2.6472545327670325 0.05800897241461622 0.3990133562546999 0.9094480391068852
P 2.7201302917877164 4.478228624338265 11.506596287324339 0.23624170020969637 0.1526286540737307 0.12873050729989444
P 4.1608439027785655 0.15266224676237175 5.1337749832564095 0.9086342849563382 0.6282174328913246 0.5735485805935348
P 9.089742244491685 5.105272886619324 0.7981080948111857 -1.7961649551648422 -1.2992126230698076 1.6913698756346227
P 5.4083161687216 3.9119327985893304 12.373083880897466 0.2426275491313821 0.815600459727105 1.2806135199113817
P 7.04406031018965 7.78230431064188 2.127342407407523 0.28215080403698506 -0.49946327144234626 0.1310252168713421
P 0.5298504912993026 7.509351027245269 12.211600577221255 -1.8530341575480604 -0.931393175919409 0.8341224297906925
P 1.4901212211294181 1.0750208828377241 7.743999900707027 0.9583532494480205 2.04661020056843 -0.2671054796680884
Ni 7.298516025475158 3.6355968364902873 8.56322970225908 -2.0741881101866984 -1.031830749811881 -0.4910344239487027
Ni 2.5628310727875188 3.148118356375457 7.707802442988759 -0.10837019847598757 -1.0675685695331227 -0.6906168210641526
Ni 0.11182874867368899 3.2690188342965802 7.956533696767643 0.6417131533849142 -0.5532098690361827 -0.4100194775572165
Ni 0.06864974031117031 3.4170366538818375 5.444740070220776 -0.9090497752272021 2.074189395738279 -0.03574141926566747
Ni 5.677933366786335 2.0431938483142953 13.529943223516206 -0.49570971793718493 0.9671847316967214 0.9134977836962267
Ni 8.098309868433093 5.730695699605003 12.494646916547907 -0.48352963093122536 0.27869678405011356 1.346958522995519
Ni 5.121617841010695 0.8228324009635153 2.626428227995495 -0.28003889990030484 0.4336240043500339 0.29745966647991345
Ni 0.33972158340469194 8.58131538497446 7.656833954936532 2.445254860629802 -1.4794847498924197 -0.7548704888368999
Ni 8.247604346371611 3.5144913477387134 13.18163448191787 -0.32711425612155276 -1.1472969359027017 0.41270345214728277
Ni 1.7109551602210462 6.596428480575106 4.87488264722647 -0.8949125644948717 0.0827535263491478 -0.48082894417061056
Ni 8.237512222308979 6.665153702146578 10.445250558745075 -0.23800136321328041 0.9570720687427517 -1.504598771351228
Ni 7.563129095542079 7.9815562004915375 12.21330589458364 0.8484691854306677 -0.005729703394925616 0.9957257765592078
Ni 1.3935890760095695 6.629817289916202 10.353761680054308 0.14509994979685334 0.4576910726015666 0.37440147124329065
Ni 5.511650945942761 6.199480919452392 12.269633552117325 -0.02155432913200804 0.12348519974055508 0.3535418541854621
Ni 2.306651402791403 4.225049567406016 5.3005643399716424 0.6482985199119157 -0.3122514800771074 -1.124871774129966
Ni 0.6101690753327507 4.677238228661026 11.537229564730698 -0.440132494892513 -0.8257293206309908 -0.6000021467993731
Ni 1.8865189804795606 3.809716262261537 13.477583457419149 -1.4893529009357513 1.2885034641824198 -0.02566320909405903
Ni 1.382350755031238 6.195520482955054 0.27675902990370055 1.6421000828652172 1.635105910935571 -0.8016229145010904
Ni 8.019827995067 2.603367305172048 10.914930371307157 0.4287630767133067 -0.06904723250664882 -0.666210110085014
Ni 6.204671420932434 4.90362609752304 4.816426604525745 0.8925486922483854 0.2389886668272142 -0.6212718548114268
Ni 4.614141486252831 8.227308274157012 1.5219966777948255 0.03187936520709994 -0.7143635298617892 -1.7420884850354126
Ni 9.066408284516774 1.241526951859971 5.875263746034225 0.5452972990573253 -2.164072076933041 0.22672579029946113
Ni 0.9390800649008236 5.27217033995425 6.9838271963358824 -0.1261126100610731 -0.07756324039745997 -0.5005775875524476
Ni 3.237102375465083 5.82674327367106 6.869819741654952 1.114194496921778 -0.2504830406200589 1.0130660676098682
P 7.743054055284722 8.096492726981374 8.613720142329393 0.5482908344680105 0.20217381199170986 0.06086932468154679
P 5.04513948257855 5.9501504749281455 9.557485636573421 0.14687246831624381 -0.18630984837625977 -0.05703349587522436
P 5.185394846629022 2.01862050468257 8.998253365800919 1.0513369381656088 0.9343154917725263 -2.03563621805543
P 1.7928197122895733 6.803638518115887 8.248431844632702 0.10155009023036059 -0.17473474194415067 0.7223923137035366
P 3.665547055084282 7.186785122879639 13.08884937565821 0.454662827298204 -0.08004795449252665 0.8977348644350153
P 3.6075849021114608 1.4359610871940423 0.9379133669020779 1.3967641336637364 0.19763864312551768 -0.12567089453796423
P 2.4259397500912563 0.9223642272798191 10.837898483632795 0.005822520219048037 0.8699186135536955 1.9040710695202174
P 7.416499758399418 2.3487438537525342 6.633432003604009 -0.7238629847117921 0.5013854281657236 0.3910488499919846
Ni 4.394556249492129 0.28469481277695696 9.954280371440708 -0.6734513650284595 0.9220891249096637 0.9533866494713644
Ni 0.42440689812673543 9.256266950862155 10.946245775658472 -0.759601318653666 0.044931570405367785 0.411354394318556
Ni 7.1952371602986664 2.6520853334263745 4.439395845581296 -0.28167437862119876 0.09346217101590355 -0.3401446069429497
Ni 7.858316735368456 5.534080994528868 2.8853746123352813 -0.8217320265461397 -0.009349302425383897 -0.013785226709550452
Ni 6.527582116240186 4.651220490542036 10.669008697772854 0.4982813353191032 0.09235376844307322 -0.3271808476934301
Ni 6.636172625660168 4.932914690255127 0.8332665203660343 0.5933671579813588 -0.8323838498330309 -1.4550471856753457
Ni 2.132830174591718 8.84828607959156 9.326198940731052 -0.24640090013088536 -0.48130896913082266 -1.1964636274353393
Ni 5.624304397275307 7.9155893064570355 3.9594179662587212 1.1941280373236274 0.6298012324386766 -0.1993052321946632
Ni 3.8803238560035096 7.398868826980675 10.705070102849099 -1.0728930670698296 -0.6265621566760887 2.0305783439165483
Ni 4.7772089645279765 4.157507817446689 8.324877587705458 0.7418733052462836 -0.8481033174508169 -0.9117116383300815
Ni 2.23046192325671 8.242656130418464 1.408208211955512 -0.13415090698451734 -0.12214025567688644 0.3620506629874216
Ni 4.636580853513049 9.302897596115532 12.591032758484209 -0.8236708954400653 -0.4680947844333938 0.5101102096332312
Ni 1.4821817107865174 1.3258702712421266 0.7615416175981067 0.008328060249721141 -0.8113123738747123 0.0981372078940697
Ni 0.8091609741747007 2.1086295779244484 12.181118262335502 -0.7404908230764602 -0.7523937451616333 0.6883632491432855
Ni 3.276799927179588 2.432639876777343 12.325362018905647 1.06645168231986 -1.3811428821867118 1.99021330983594
Ni 8.175412578030702 7.6328700525916915 6.461568628835127 -2.290356693795604 0.3507874313687765 -3.215754571363526
Ni 4.890859513990441 2.2451388349821433 6.236828301556005 0.6159090478376166 0.8533126295658982 -0.19075502863180696
Ni 2.4477547661860117 7.9964753977438665 6.593837889172141 0.1537385993084578 1.94574479510992 -1.248011417605644
Ni 4.393177085723644 2.8361571031485844 3.680095369106978 0.22110407323730957 0.8798171036143299 0.8538762153788519
Ni 2.6337089080787215 1.1161348730171596 2.955013995837081 1.504714470993486 -0.013779056061963365 0.18829602556835312
Ni 2.6436612520296814 3.364982540295635 1.8659275062956306 0.6878258885825766 -0.26883917452974343 1.8297911278597196
Ni 2.3730749118573633 1.728446311528118 5.594685923479678 0.3661520867503049 -0.9848898622859683 0.4421037596862709
Ni 4.159725661885199 6.328852072140766 4.743145483181216 0.29413702986458373 -0.6157282992853783 0.8049589208528589
Ni 9.239474700113437 8.557049557588408 0.8047951753535163 -0.7317524147621978 0.42428832877140477 -0.22286862133690005
P 8.317205523309553 5.5658390359004715 5.690061621142304 -0.34068890948219394 -0.48866900904031974 -0.4482630944194474
P 2.929325206914223 6.01068458195571 3.0441853202763456 -0.4574583877654702 0.18432907050080513 -1.085078296282112
P 8.83618112192087 4.790646492596595 9.61576462446603 0.3202509533428162 -2.2518068585468636 1.0043613407470184
P 0.5662846433400001 8.669880063729073 5.039599530819331 0.10946934507743727 -0.8656827210954767 -0.2564996791277841
P 8.62637117430301 1.6016471128944871 0.5530707634500546 -0.2317533254210396 -1.3863082284377348 -0.7335439594449819
P 1.3680838649667058 2.696842925183362 3.9286896383764254 0.6017679804505442 0.6821396368310768 -0.9437259864531489
P 6.4699554355353746 0.2007913348128587 11.525063103810872 0.06910328255556486 1.0068126305009886 -0.4321523049005139
P 4.407155096890723 4.379441360083461 5.815075361816192 0.5951643590910976 -1.2082109977792548 0.7850331284632093
