# total energy = -340896.8463028315 ev
CRYSTAL
PRIMVEC
9.04012034090073 0.00000000000000 0.00000000000000

0.00000000000000 9.04012034090073 0.00000000000000

0.00000000000000 0.00000000000000 13.23112990828377

PRIMCOORD
 96 1
Ni 6.617015656438102 1.7893562552609714 11.421548621299229 -0.5990014734490007 0.29423421756408036 0.05918628055216903
Ni 4.600761416228562 0.32203530929616314 5.946149216610427 -0.0455100686166571 -0.431684878345792 -0.22223972950364954
Ni 2.605380814301273 1.492957823749407 5.000070771723453 0.8469766600455414 0.4491179862205749 -0.2658564377523357
Ni 3.403849459290412 4.306044447133845 5.1773809835799325 -0.04443380483334283 0.2666498801879085 -0.9191133301107913
Ni 5.330769228514584 4.253042220521092 2.89191466630067 -0.30634976988069174 1.437678355379595 -1.4973364333618602
Ni 7.138892773976489 5.975085738385073 2.3307166405455297 1.1727531711922772 -0.28999215445827475 1.6687313122995002
Ni 4.981739215331616 4.498924458563091 11.46210169794295 0.2936510913671007 0.6235215700775519 0.4880812548576498
Ni 5.590076045529795 7.900522927843855 12.319346494521401 0.6307034325379719 -0.1313381201260706 0.20170072901003328
Ni 1.795910342638465 6.595210885742221 0.331499411469264 0.6098391874944529 0.07299130475606139 0.08829348233077053
Ni 2.861198144795501 1.6852140668627276 0.4796407704537137 0.2032040530284371 -0.014267822772923816 -0.4955032583533337
Ni 0.5571616119426565 0.058297929213766905 4.474609246398616 -0.638659711270571 -0.5040763447343254 0.7006374385249482
Ni 8.753286536680204 2.3320075697558833 1.371684606964473 -0.015281865859734971 -0.20180151625395565 0.016432691634726538
Ni 6.880462848651785 0.7144054682793799 4.815615248607428 0.07976307626225619 0.01579840048483731 -0.30849869790289447
Ni 0.7211539182480681 7.570784531852019 2.4134509195387492 0.6184868358671218 -0.8226861629292929 0.4148845189590016
Ni 7.488374793185492 3.98043738621996 3.904228266218568 1.9180869241833356 -0.28036645844305264 -0.19727637469009252
Ni 7.384811172500571 3.9874977203466115 12.544117339111454 1.264408628016745 -0.8405895255722748 0.002449489981757072
Ni 7.784637622889246 8.939440698442064 7.0208080076992 0.10633182788972009 -0.10599578470654003 -0.5056485743174518
Ni 6.967238965529801 0.5859390275961399 0.4423683535469465 -0.43377235700244005 0.46461351075301277 -0.9693035778119372
Ni 1.7596775395915758 6.420239353064441 9.267215580256808 0.23007233817419087 -0.22564027054476626 -0.8953905325725547
Ni 0.10825544323515361 4.963216008384741 1.1803585922527304 -0.3064749826046464 -0.8416843012983504 0.39386523639485715
Ni 6.300602398093751 2.141468949541492 6.8644428510770865 0.3517685643351232 -0.4099559713091327 0.9989483972615634
Ni 3.4906978971325935 4.401065153926721 0.46462061020860246 -0.5102742460149212 0.04926799299719257 0.5956017037388324
Ni 5.985744040478957 5.701902336370618 4.754871062780765 -0.34586659702839145 0.3842662798525124 0.5228279143102157
Ni 5.356162927057177 2.921983915176559 9.100887306808852 0.08775869287322305 -0.05497121402955694 0.37144110306338607
P 0.1917924849306095 5.475772761666306 12.279639573158414 0.31814984783941336 0.698919427392577 0.5470366503459353
P 3.8679602067016483 6.326728346398518 12.71444134582955 0.6245189009938148 -0.3447167996946644 0.018458206705187566
P 2.6084906157603873 8.79348795263567 1.5869416287185616 -0.4505981703105272 -1.569367431087181 -1.0396774995498093
P 6.357645558579247 7.756559008552011 5.72561276447226 -0.7667423005738213 -0.0863985793009028 0.8167908804907804
P 4.755193795083353 1.090943664194728 12.537779310614404 1.0573232376560306 0.11530857746703367 -0.12607044396922804
P 4.024083088093807 6.247247606780692 8.2194692279581 -0.9717291565342941 -0.292583826444851 0.24611113680460842
P 4.741407611289315 1.1512503081881902 3.8017928525746285 -0.2742706299579599 -0.3358729761507893 0.38838698688910533
P 0.13394565773082456 5.579616626087367 3.5024916383638742 0.33990600856958236 0.21993447840924057 -0.25877664808741885
Ni 1.7501492525627782 1.2627782750518304 2.766563451148857 -1.1144498074656937 0.18586453330872507 -0.7918743197547587
Ni 1.9010831047760666 6.377705586014638 4.796800949779787 0.08131293724787932 0.36358458313344477 -0.3091247615226676
Ni 5.857311048241644 5.6889840041465645 9.255281717157457 0.08600828584101962 -0.10816322467150404 0.2061973313288062
Ni 8.74168806205217 2.2046322716194893 10.189730046994574 -0.044736680785742305 -0.17773547644368745 0.7783629155318852
Ni 2.2271150513544224 5.1458535632640565 7.121193122009049 0.1662030503240557 0.6381622028088623 0.31182570539359844
Ni 0.4977616920374186 8.796055346863545 8.958004585931281 0.4164852877872182 0.4116444147551492 0.6061234292057626
Ni 1.659395482655663 0.9832577485523774 11.399676953711493 -0.8202829528044389 0.6200698640835256 0.4956325848423464
Ni 4.306487413039357 6.721908174839563 1.7831194761137537 -0.5652760561720974 0.8518568709559782 -0.7608341626195025
Ni 5.687772627996794 7.980564154933963 7.916145160115643 -1.0160837713902695 -0.1021499285978886 0.15529051717661
Ni 5.298125353314406 2.947205851429259 4.855242616909833 -0.04446851472602019 -0.2867286532156546 0.4467654268279983
Ni 0.5069789989203048 7.42795062762526 6.729472043679217 0.49524949047131483 -0.7307715389061673 0.058033912115280695
Ni 5.061916044229535 4.6724314917165195 7.025597463551056 0.04383345224518257 -0.691995446579234 0.11804423123064187
Ni 8.109864998741262 6.969697878311426 9.232193249347638 0.9270688375124421 -0.28775040961194964 -0.16614931426798482
Ni 4.761277796193772 0.24790089695426748 10.281143745699698 -0.9764291331131248 -0.08076632071578993 0.056439828155283436
Ni 8.045146775933707 7.2043251663051775 4.532204758247926 0.7756943675607867 0.0262645901234838 -0.26592945708211624
Ni 7.215851319969046 6.141206993073106 7.095670149743009 -0.03711207436094899 0.011687206529941162 -1.00875047095365
Ni 2.1879984498614364 5.424108472890615 2.536394750595905 0.07822607079243947 -0.9537718007249252 -0.0937233950970902
Ni 2.473431215181415 5.1281710875256055 11.479672980198997 -1.536790011371792 -0.7661861709600353 0.31824060778100677
Ni 1.1474534575695041 3.3003219990875747 3.9285082219130127 -0.4038069209886013 1.1566853190961368 -0.3857341226472905
Ni 3.5181708233949425 2.892160557578833 2.911298492721114 -0.1600228896552728 -0.21327480700087784 -0.1034010273961703
Ni 1.0779168505244268 3.33013631656478 8.426854112762781 -0.12633218227104695 -0.17436398886829324 -1.0186880417823359
Ni 3.453660523359364 2.7771521443147305 7.309842357034618 0.07994331059386232 0.3060072989396085 -0.9179645612183288
Ni 4.076054740967201 6.795594197203633 6.091374232714903 -0.09513750183579744 0.5411709355937776 -0.771410138363136
Ni 0.9787919290151609 7.320373193429158 11.295839417374795 -0.29520635166936254 0.07663172972212609 0.8354876855693353
P 0.17824676834242126 5.517303075338314 7.952107663558964 0.5717056138475252 0.35165260758254924 0.5081769971662603
P 8.534895305141594 1.5970005708219235 8.131852379871662 -0.05643751416243828 0.7475135342511965 -0.7562216035481557
P 1.8221086119073981 3.1632104911504078 10.498438410619148 0.16697772370655115 -0.2832581781685509 -0.31961949040640436
P 4.009763537189048 5.980310928046027 3.755060853555021 -0.5825898648601967 -0.22107476266127088 0.9766813583332468
P 6.825227712270425 3.91419138304441 10.419396116846574 0.18129722565301679 -0.19239436400744286 -0.5825960355077837
P 6.372760640089825 7.741480087523515 10.118043699289679 -1.153993888306903 0.4323119704068297 0.6959166360105111
P 2.228416828709401 8.369370698407927 5.6950752373534 0.9206526495734532 0.25929986758074053 0.6443266797483613
P 7.051556169626191 3.83983639176181 1.451667073271197 -0.5886358139439605 0.6015918598839962 0.643896277079162
Ni 5.259614439896305 2.8965359759108424 0.5119573932910437 0.44808414563942184 -0.5806900767343226 -0.12778794088096704
Ni 1.2842395211679267 0.9673832969180617 6.961863709868204 0.05905361162904669 0.6237470558247967 0.11850394447587978
Ni 6.772885414455682 0.802992321297688 9.109672495930848 0.3983289285931656 0.05254126443182564 0.14548741504325913
Ni 2.650653737868843 1.4484171499440124 9.131490826807513 0.07452522490208456 -0.28551200719973413 0.30545708286309325
Ni 6.492243913011665 2.0769224890238305 2.74708651148705 0.45848502925777174 -0.32930612156654904 -0.8543474985883157
Ni 3.844157569370696 6.848153457910872 10.56411759823805 0.8360235034681472 0.6003849840600886 -0.5970656898788684
Ni 8.12057754155827 7.183135123804702 0.20898950619710074 0.0686628525840366 -0.23772908338850024 0.14527787013561433
Ni 7.622268018217297 4.000000207026713 8.257111385794163 -0.09936233855042242 -0.9451331512133206 -0.11883998765905986
Ni 3.293659430263833 8.535012826708362 12.613144083359165 -0.9683921217412612 -0.7309034364983412 0.14639064358381887
Ni 0.03338245304671831 4.638946885307918 10.271762812635389 -0.24881336622711986 0.6006382377214752 0.250925013253484
Ni 8.555660461977597 2.317859781141017 5.7714986082111315 0.3890459606293428 0.6472996463337561 0.32802031287558997
Ni 3.7585024274372443 2.5055688436324353 11.149158941866489 0.3567475056069534 -0.22244850308034594 0.5987050252545044
Ni 0.9514726848016632 3.182212824484879 12.56474418210349 -0.13857988929014844 0.39755656920351534 -0.21368129841067715
Ni 2.9624384545066063 8.30235628498812 7.906221819820091 0.5851283150113342 -0.2680107650911771 -0.27418912598774714
Ni 5.752355248996539 7.928212816998699 3.547067568639299 -0.32233894622009646 0.0948996747933785 -0.09681180421442682
Ni 3.310998381422499 8.338055720924288 3.6504820273356278 -0.38589533081550315 -0.13540894776133452 0.2412270692394297
Ni 3.4991413696989095 4.359109954590241 9.393387638351898 -0.5956821792677806 0.4959508874137137 -0.6440194329205877
Ni 7.152868800301462 6.07925504714488 11.440177597656195 0.28055594874603945 0.21551218097182884 -0.665094508423332
Ni 0.6816630557655258 8.914499005925505 0.3144018315285002 0.8009292308681755 0.22889425870568966 0.46836423604469657
Ni 4.855313129849894 0.5430870483040084 1.6909644875259326 -0.8257352341682617 -0.8173410965672956 -0.3299527540116124
Ni 5.909490623887013 5.556727040929004 0.38272615841175434 -0.8496009850422658 0.29986030550160614 -0.6442194647465357
Ni 8.126525940860876 8.685169228556873 11.16801301722442 -0.5658717807745673 -0.17868498484115033 -0.06593054125453807
Ni 0.12055904726380032 4.969589293351822 5.73692557129184 -0.7936627791137494 -0.5731138070489614 -0.05956860359225225
Ni 7.895813025052579 8.972364817378383 2.4495851852719626 0.2592695285634373 0.05922973219559476 0.900711687675152
P 8.585574220780531 1.7881991198343243 3.5726565337851386 -0.5280675654426003 -0.38013785950643564 0.19276254598013898
P 1.810609578605092 3.2593612130083693 1.5300476302216568 -0.11857644958502807 1.1187083256317314 0.19912756896621836
P 4.64547385232385 1.1050914528095936 8.047728634354414 0.3651388149944421 -0.6987857300281901 0.49649236173948047
P 8.627502299755449 1.3169376370912296 12.416992452313483 -0.17287454880696035 1.4029833751005707 -0.24308237728061363
P 6.302265780269556 7.683975880891464 1.375720116764905 0.12457971835631448 0.6649849794286611 -0.6487556620539924
P 1.6393987360639168 3.2422392247422 6.093597198350939 0.28560970911986294 -0.6465429706733897 0.07857368393984533
P 6.946139324234532 4.064998673570409 6.003280970277025 0.024825286573795957 0.2637494187116619 0.5941287187377315
P 2.4062721598332764 8.507133095022583 10.107935036523452 0.3808554543987505 -0.357118772903443 -0.06940358740480304
