# total energy = -340890.15962920175 ev
CRYSTAL
PRIMVEC
9.09377476282003 0.00000000000000 0.00000000000000

0.00000000000000 9.09377476282003 0.00000000000000

0.00000000000000 0.00000000000000 13.30965857822541

PRIMCOORD
 96 1
Ni 6.800252087260233 1.7901004866661983 11.540951501355408 -2.1135568417923087 0.5444480636831526 0.2049917410564792
Ni 4.665488439769568 -0.008823689742961417 6.045992575628158 0.8804819908918384 0.7841671809184881 -0.26611226251688364
Ni 2.851462231456733 1.357173147087548 4.797586432085559 -0.17423620504117734 0.2077829306483712 0.9842877099255952
Ni 3.4012536717122845 4.489051020009764 4.6898442969669025 -0.6409456790912703 0.18313942106807812 0.07513791878541899
Ni 4.989654232068182 4.626176051066258 2.4529166358543675 0.7102963017709509 -0.8416177097264731 0.6367856341763097
Ni 7.4857863047941375 6.153775632733668 2.5351707388060936 -1.1069876947606934 -0.612234684309823 -0.31209284301205603
Ni 5.124496725635772 4.677837786024274 11.64664389962148 -0.8667137334631525 -0.77151812469591 -1.746519781333889
Ni 5.6393680704435525 7.940847892372754 12.432085965235432 -0.17239863761180632 1.3131246051652095 0.5828091799598544
Ni 1.8302585964311344 6.427434599481001 0.3399753198861013 0.40943249470549486 1.6401121059009107 0.6486571888029152
Ni 2.8512076057607594 1.647182721026312 0.332600268477731 -0.5182564928894494 0.026013393344626167 0.38059165921440263
Ni 0.6289245596766333 9.351310560117577 4.703713213000078 -0.19618108474338472 -0.4668300587883573 0.7531457928363093
Ni 8.646270195517145 2.4151338200818677 1.4420744478999117 0.31523190286167 0.7808910812703778 0.7507646941986424
Ni 7.241791231627696 0.8519030097729331 5.142093179982499 -1.6097232091964082 0.08620703211538702 -0.7423453597866958
Ni 0.41709507755402286 7.475073838013545 2.4328193934221862 1.2023745936031358 -0.11997358704287081 -0.3300494274904768
Ni 7.455876879292126 3.8747847160238242 3.684872140682118 1.3623231783770473 0.09745895088012248 1.0195897276609989
Ni 7.798011970706574 3.9846375162866026 12.667773875070743 -0.23428226249048037 -0.7275208931793535 -0.14522516252080797
Ni 7.891677851725333 -0.2927768096275026 7.061945465051791 0.3924282468380145 -0.17047211001305482 0.5684218008899308
Ni 7.0303336848967035 0.8499014699270857 0.5656473460948046 -1.0439987526329826 -0.9953858767212856 -0.537150758690791
Ni 1.7477598709357762 6.207774467829725 9.348890706628344 0.0029732236957110084 1.9016136091186606 -1.1870377061357493
Ni 0.24600297865468793 4.82770319565429 1.2520500191274742 -0.7795265968226832 0.25863909406829 0.9673084017587792
Ni 6.352110862347177 2.0469086886050114 7.3188346015868255 0.25500766796328983 -0.503987384564945 -1.1655162871242057
Ni 3.428425870982581 4.512121926819919 0.25204942955656884 -0.36976962889823417 0.38452647549243457 0.08124943099979555
Ni 6.251833807007967 5.6099588025586336 4.838327452818778 -0.9833644267803775 0.5902635793553705 -0.08283785853283798
Ni 5.289639677024187 3.1083068084949708 9.407412785337872 -0.7336118365684398 -1.5058555265764648 -0.29909128854606554
P 0.20480272229123228 5.637276502226629 12.365990590825671 0.20950505554580048 -0.22487973822965784 0.8211586705411729
P 4.133702673729274 6.50711425477094 12.539149704749816 -2.350928027620758 -1.501813495296607 -0.35712880020577203
P 2.3238777893999982 8.256629224253961 1.7158143492434654 -0.12755628448613518 0.6208627922984663 -1.5261638991165136
P 6.597279032470067 7.65439398440276 5.701897775732203 -1.477818160823274 0.9250834316512972 1.3661376670271312
P 4.748696479703709 1.19685899014777 12.648887014071923 0.8549429660804696 -0.5977403473483899 -0.13103010196734852
P 3.849176646028792 6.175200566294852 7.8728628315478755 0.908337579651526 0.8260566220634226 2.3594887727065754
P 4.870298437080685 0.9672684563535341 3.9562958575697995 0.6568402388343397 0.39965690337596976 -0.5036623971253583
P 0.23796408168181574 5.560761480586644 3.6365314523015813 0.19536398815872805 -0.5804118833722713 -1.1570133918595171
Ni 1.4251945830118513 1.180572039380333 2.6093723041226635 0.36827787484405605 -1.455973811254673 -0.9238662714147444
Ni 1.83377788730048 6.518526942215459 4.680966953952289 0.20924820233998803 1.0860275475692587 0.16394407908654993
Ni 5.922202656020781 5.60867658030391 9.34469847641964 1.2343632306945902 -0.48050678494450144 0.17812191324882873
Ni 8.598200501627323 2.1350910233854883 10.153712515838324 1.163221834663074 1.502793342711373 -0.2163290204461694
Ni 2.2923951408478676 5.238432630808979 6.889997641938489 -0.6720053766105523 -0.7331438957930857 -0.4212443997387584
Ni 0.2190408455835694 9.056626785902731 9.403499734017254 0.7086837058681924 0.461094956076793 -0.606434275577962
Ni 1.4387806826469995 1.1934488245766983 11.670307720552257 -0.4223306908244017 0.86981602653756 -1.0642652161915025
Ni 4.243364504720072 6.767378091155106 1.5959083808771688 -0.25208586633080454 1.9257184725866645 -1.0745079769654335
Ni 5.5843143574641765 7.750787997878378 8.110041211082116 0.17010675625383606 -0.663091104840058 -0.3904664951259534
Ni 5.109992154740149 2.9995179798903666 4.886534462708927 1.3048644220389463 -0.9624107073468456 0.2885266256563418
Ni 0.8220508750525173 7.486386493934645 7.191075249254723 0.38448610917280235 -0.24292965375283324 -0.7090454600829854
Ni 5.2700971548582345 4.595511842251184 7.297778875284802 -1.0691284578210747 -0.15758728363058663 -0.6448565841099023
Ni 8.2659412497067 7.0762663416953195 9.004423061963285 -0.2821073523935593 -0.7285524197676614 0.9968989709317025
Ni 4.6467370760161035 0.42484933937389635 10.537668968438904 0.18584139338027347 -0.6775666727484138 -0.07284449476555198
Ni 8.343029179162626 7.302073865149381 4.600936278952901 0.5839029272446654 0.4164091831336441 0.32128916479934344
Ni 7.548051381234472 6.242239874534686 6.9698027913214435 -0.7362611012658288 -0.8975960248643057 -0.00872221036434627
Ni 2.3942272316874864 5.263313198815516 2.4459026073077874 -0.42550806011111875 -0.5351884927580977 0.6028298460561554
Ni 2.2486995526638736 5.445970760576953 11.53972656988228 0.6644761581130427 -0.8433280075493604 -0.7146718051308273
Ni 1.0989645038208815 3.145964130174455 3.816478159778389 0.278021869470276 1.7225990088522336 0.7529028235875678
Ni 3.5929140705813505 2.5425830746913745 2.866048646326062 0.6130450960262603 0.5873770018361949 -0.5296163979869589
Ni 1.1874833082710377 3.332322858302362 8.181792913452428 -0.44158593950958785 0.01776323752069199 0.2702969900221926
Ni 3.8909716352678423 2.3945637013571655 7.089562349912556 0.20442429858878344 0.004612044850714638 0.1547600985944367
Ni 3.962894300605451 6.809682331786102 5.822110204311153 0.6856517637493934 0.03306130133034306 -0.443675475048765
Ni 0.6683960894399271 7.4951347053463 11.316510772262232 0.5734922734343026 -0.2876614494425691 0.2946921310371054
P 0.28463060611132734 5.387034005733985 7.937481376920992 -0.30003102675151555 0.42947038719297653 0.74471334579824
P 8.63133821720328 1.6111168099466613 8.000901362768063 -0.9862278643711017 -0.08151554017698864 0.7432203061924813
P 1.758881557584897 3.269912281464328 10.445260756482755 -0.1805030118864956 0.13928154334286336 0.1340046112146402
P 4.252039965932878 6.227207864697403 3.6381556004908973 -0.5862837687720162 -0.2991643078758461 1.5024480435568124
P 6.83747290774662 3.8800500116655585 10.544323792878664 1.636331555812556 0.09269263983973068 0.37791308394097495
P 6.596369654984448 7.4897330030817235 10.327696435141927 -2.5021379469700906 2.1150108006300155 -2.693985180224812
P 2.4249005342774157 8.501524581131164 5.882709301197834 -0.7566082974636131 -0.2290456966818894 -0.4870731253081096
P 7.037699642530217 4.101019646896125 1.579776933659773 -0.6814834913043166 0.268500303133086 -1.2423020259256927
Ni 5.052519497649026 2.998081163463089 0.6574289969633618 0.8901002307078928 -0.7681623208497996 -1.1104463427332552
Ni 1.4910244191958126 1.077994259002507 7.192605731563019 0.37884742282978623 -0.2924593850518447 -0.6298729662168765
Ni 6.940441720443262 0.5569191409878332 9.16573662475976 -0.9574500209074609 -0.36548051460457703 0.9955332009324274
Ni 2.933297111387589 1.6902326511955168 9.288065174747745 -0.4665143273201514 -0.38898451126378814 -0.09823156738008888
Ni 6.2070378720663735 2.1643093219984277 2.5309512272728214 0.3870749529459011 -0.6047401757049908 1.088043549558023
Ni 4.143369356401403 6.714515977916072 10.13040698963688 -1.083370826672702 1.601486937329545 0.920258756569144
Ni 7.989454118979091 7.259424061073849 0.35809466628706044 0.44880611140711096 0.38445911258960885 0.326154977532077
Ni 7.394603024311118 3.929892991652337 8.301007754929655 1.8381305009633504 0.3056596857922026 0.19332381780024768
Ni 2.8842816649127236 8.555123290133551 12.423767889374474 1.1898234964110026 -1.0542296863323715 -0.028941365624698543
Ni -0.012219305274262864 4.767493312331454 10.176685209880032 -0.5331794327478688 -0.6457955509844039 0.5734143690085157
Ni 8.930414284673667 2.5675363928967605 6.089847304872135 -0.5902877477250866 0.16928734567633427 -0.8687173941567425
Ni 3.7021121190544832 2.6889110059023316 11.403875576683138 -0.2941930799134998 0.564235530722725 0.33828749912955286
Ni 1.2071531432849771 3.4330909774838063 12.833758910010843 -0.08454301414940278 -0.19847476587356785 -0.8168273901556706
Ni 2.967926206039962 8.436404059385987 8.084818717140987 0.6879971240531184 -0.925543144896535 0.6632934506588513
Ni 5.897367556888526 7.877846220169068 3.676779590437594 -0.875262651474428 0.4826006913590528 -0.13527576461757995
Ni 3.3550936705422623 8.36889187485363 3.5884699428091302 0.13861871294788386 -0.4858852756475954 0.5746104461991459
Ni 3.3158813133623704 4.499963549837193 9.217670263585976 0.7306262715775546 -1.285634627275057 0.45339990142538045
Ni 7.278511894496992 6.197853159461621 11.66696757704758 1.0682779368953215 -2.3512363028897956 -0.03757821536409012
Ni 0.6840819416893698 9.091947007444174 0.3902511635560348 -0.4022732579528943 -0.3404346273795427 0.257955180627388
Ni 4.636015515460655 0.4258378327007642 1.4500742416409023 -0.25787110555401394 -0.6129833895503894 0.6206429629781763
Ni 5.925749228214696 5.530179115745276 0.20539836454431276 0.7134513024601649 0.8947750104757429 2.4760865012986777
Ni 7.779560701523363 8.660802047737338 11.566333136356521 0.9141804115855481 1.6571202104231333 0.36408646247052784
Ni 9.222724583651047 4.9975294410936435 5.7646930192466534 -0.4644404755102582 -0.8412520988569383 -0.7680947008366578
Ni 7.893351106298872 9.19417013060261 2.8165630516911317 -0.0919642463141384 -1.004994089235011 -0.7485255204554787
P 8.42651003234245 1.9124754149059506 3.6778981247449054 0.3931000760940585 -0.1951780974001671 0.5819015805439204
P 1.940393303714455 3.129067896491653 1.6342268199886976 -0.5709070292056296 1.2338320407814687 -0.3649344122931199
P 4.782488947069313 0.6410438334274782 8.281043281610376 0.5582656862925354 2.183828433624362 -0.022341343809677654
P 8.637767516026608 1.7270351580385186 12.695231618871524 0.45351405840574155 -0.3775122489581305 -0.930251863226114
P 6.272394831957813 8.019563607527937 1.4939289708848797 1.1182804940656934 -0.4526776785473753 -0.5054575413525682
P 2.144139329367398 3.0646294078606893 6.031205188334506 -1.019919857306908 0.5856587335935075 -0.2186234729073009
P 6.8718564704778755 3.918080178114146 6.048175081593643 0.7132528132961136 -0.5300604275029129 -0.317253304167073
P 2.136173182593375 8.74701103337402 10.221618460821954 1.539994891462335 -0.6879973811634345 0.18017622467469616
