# total energy = -340889.94015306403 ev
CRYSTAL
PRIMVEC
9.06830815774287 0.00000000000000 0.00000000000000
0.00000000000000 9.06830815774287 0.00000000000000
0.00000000000000 0.00000000000000 13.27238562749460
PRIMCOORD
 96 1
Ni 6.246885471826962 2.1011088740275574 11.452370056940293 0.35178656205725223 -0.3292593274890136 0.12135555499206198
Ni 4.650001738812941 0.17831830567372395 5.776792536058842 -1.068962878777488 0.22487896689870948 0.8494006961060017
Ni 2.4615741250983283 1.56097323252999 4.704012582470237 2.226052118180263 0.23330421484792724 1.1707060588552611
Ni 3.2332871531768834 4.300137340031522 4.7561199882357155 -0.2378928626598742 0.30979504811681485 0.6652639441216608
Ni 5.361573746888946 4.498760494602669 2.862906613916911 -0.10756724295871797 1.575593357392235 -0.6486091091737991
Ni 7.332742832675169 6.15282897914505 2.722338768461615 0.46312124247820236 -0.18507931840326836 -0.6231960684173332
Ni 5.428878730371896 4.908847528160465 11.488258793484638 0.2471699170864259 -0.864017417577912 0.00653831533915003
Ni 5.456881666102879 8.008114154404646 12.280115254574602 0.0698707568492087 -0.04688175215320312 0.4432522714684173
Ni 2.135069688247936 6.489907063360184 0.19158252008230797 -2.264687314053958 0.4225407499526787 -0.43985353019951345
Ni 2.8115654801945897 1.7763274157357425 0.30056635489724204 -1.6012200568214037 -0.8068414825875524 1.094148119793864
Ni 0.20050120119999612 0.1263242537607838 4.960540512241065 0.16960359136517242 -0.5948630258005949 0.19175210243775365
Ni 8.639150517329469 2.5031885914420706 1.4289976090970729 0.3311102646548233 -0.1161362155746516 0.5164317809758848
Ni 6.715154770815452 0.6600558560053656 4.851773409992183 1.031488535981114 0.7084404795091347 -0.7862932261225555
Ni 0.8306552177366635 7.433654966358579 2.7650359908048006 0.14158807998885295 -0.07581180492399202 -0.5847609043695865
Ni 7.577124670438847 3.990509024746984 3.999938251616503 0.218181757384192 0.2931875214671209 -0.8303274815246345
Ni 7.8952953320506465 3.906128416917713 12.586083600668394 -1.2065528933505414 -0.6615666977757316 0.12788718546299266
Ni 7.839080889500013 8.875407150943225 7.02645437530181 0.5109748716263717 0.32977174834905787 0.16256571068178455
Ni 6.835944636079922 0.780812168529484 0.5607315830883081 0.0953241639253068 0.7239786843540499 -1.1363700045775527
Ni 2.002871891264044 6.331093781800376 9.275526300124241 -0.13898638069994776 0.6862112357972892 0.10431274057716228
Ni 0.516498189335528 4.879221365261139 1.188010039093792 -0.4411272547056145 -0.8870861264719173 1.7770819703914622
Ni 6.224804141352564 1.8702116105617974 6.9800273577947145 1.043095524092423 0.007450028520142009 -0.1992052162816892
Ni 3.3380261129219755 4.301905660131115 0.6111414015581774 0.36282225104612353 0.32095569271932467 -0.257967264812246
Ni 5.949417757842698 5.603815463916707 4.860095396430111 -0.1498775736911548 0.6736483115306139 0.7052631102224176
Ni 5.411313417382612 2.813950445251989 9.10989999861149 0.6656197847991827 -0.07051353263953017 0.32759222419923584
P 0.5029465095569077 5.395443878027295 12.467216216742967 -0.3756320012162821 2.011907249869606 -1.207715803310391
P 4.223736843420925 6.235876545668474 12.954976937383067 0.13678937304862895 -0.13172121449710217 -1.570716746026224
P 2.2575009172971554 8.685108703302467 1.4451772845929336 0.3363707417228143 -0.5592486190310949 -0.9370192638569346
P 6.523840672655954 7.7437276287450665 5.804704788707793 -1.696529822569007 0.20242732276341266 -1.4293364111728026
P 4.489474547002758 1.074594522060033 12.386294261662336 1.7060256778745844 -0.39406526822080523 0.03571827933721591
P 4.003268134388659 6.235849340743864 8.157314122438414 0.22957225860932076 0.18768538856754774 0.8897590453183901
P 4.700194824716759 1.0195861645004032 3.668712853515609 0.10492594868112896 -0.194222161244801 0.7404031484586603
P 0.2866682657452656 5.443560321352616 3.544655676805585 0.12665948370347863 -0.11437680968138365 0.22490339237874168
Ni 1.3261403233041114 0.8087706695502713 2.9574727455198344 -0.7526619112213553 0.7625979393881448 -2.2023352341792974
Ni 1.8493454333866066 6.519614841033338 4.889108541694911 -0.029798314308355132 0.381472262047143 -0.5143833830872884
Ni 5.985065277388842 5.523152862450682 9.071834868098415 0.49864617485768964 0.30881751469489394 0.5272021321185114
Ni 8.552756745079124 2.19179195605794 10.271963794274749 0.014858919389703443 0.701722958279643 0.2517140848136826
Ni 2.4505289257070277 5.407323361773275 6.968745475559315 -1.33196050692479 -1.0350142897461851 0.17894955135644666
Ni 0.2114938044037191 9.113105645561264 9.075259061275883 0.535897088789348 0.9601033993699079 -0.003136488746452663
Ni 1.4916097430849502 1.1517295516350767 11.457864544880513 -0.7032810467953823 -0.09094866056543047 -0.2667591520722632
Ni 3.6997427905247657 6.9518013416819375 1.6479791155840404 2.088713300386067 1.432945725790616 1.101709991301522
Ni 5.653917866738493 7.868951896720821 7.9494285978686845 -0.8562652844363189 0.03963484078280271 -0.09605898520880231
Ni 5.129896608917725 2.9718659642996967 4.951130328818771 -0.7599090797020719 -1.3629173603176206 -0.7758614892662702
Ni 0.8486295114259056 7.642443694425332 7.004435616154013 -0.693463032263696 -0.9023088569589428 -0.08433501190365476
Ni 4.837697581999427 4.574988693357409 7.112007515381734 0.5787298676841581 -0.6536070766090227 -1.3426344416988685
Ni 8.31235589461658 7.088161492131024 9.296854961017788 -0.8137958024181984 -0.1646783861494132 0.858702947343534
Ni 4.508182466825626 0.20940990717866087 10.159042500038057 0.04628834154357834 -0.07186824689521171 0.7057117677240621
Ni 8.390443096552943 6.796833022800218 4.96124421295762 -0.0529410709734056 1.7546676072520038 -1.6992631623397703
Ni 7.401181354683499 6.210059072214424 6.895375607550173 -0.5389803557003621 -1.620509758288951 2.3689023527109914
Ni 2.426416294195149 5.246714555189264 2.6845393393788908 -1.0446520699462654 -0.7909906315982248 0.1573692540825096
Ni 3.010233976306752 5.109365959146047 11.532416013448513 -1.8495533980883114 0.9408268105284829 -0.6504965560044991
Ni 0.9556545916689835 3.2160301626665015 3.9155132090770373 0.09954951486056404 1.0842244329222488 -1.2623059798514455
Ni 3.948386733143871 2.804183877317316 2.7258962657696673 -1.761437836096302 -0.8057693325692963 -0.13432239956537514
Ni 1.2569128584821174 3.1954088298127927 8.095372136426741 -0.9578680822814858 1.3915345098336809 2.7468822853341592
Ni 3.6092592112748494 2.4306783990505765 6.963038789207142 -0.25069078575549086 0.46515678485099243 -0.0865271344589671
Ni 4.0661749883931355 6.85954944233243 5.9208643758037915 0.6169909680478857 0.45866217826558425 0.005158918493120147
Ni 0.7103269293597286 7.442242654226857 11.52455832439058 -0.3014507899171776 -0.4404561967805189 0.38912437927576216
P 0.21203518240344046 5.723571542046031 8.085298152843986 1.0917492805443842 -1.4740283547635387 -0.9106320321126574
P 8.345119692154157 1.7395644942806254 7.995099318471646 0.7829860161261935 -0.534283464445325 -0.2502081896921175
P 2.0657243354193024 3.301852631500056 10.454406366519214 0.21056563559983088 -1.847601416568263 -1.8692087104253938
P 4.0031955879230345 6.324682487900827 3.7226384550757965 0.9519095507052058 -1.955598290865232 1.0156495120663283
P 7.042747404650209 3.8806646074835816 10.240335348924193 -0.36139991677730016 0.3090648548190097 1.080447739488636
P 6.3782580527643775 7.662248879540767 10.083880734327993 -0.5857795754420879 -0.1492988183695493 1.1383692943957686
P 2.364289314696134 8.642034239338034 5.682757807316617 -0.46689510769833786 -0.39264087706945283 0.563235628703301
P 7.020430298162531 4.055873390274484 1.515467555136324 0.002815100851291926 0.10819407790943947 -0.1353554688155798
Ni 5.307327127218373 2.922561572599778 0.4007394214621041 0.5445215972335654 0.1048354458498517 0.3572272734568493
Ni 1.4005548604182432 1.157297492871742 6.941284824658874 -0.8304593791168084 -0.9160730006225707 0.2650010317305759
Ni 6.753740422219379 0.6781770562874971 9.147580632856755 0.1892640459085773 -0.2814578917350185 0.7841710375732301
Ni 2.5240366320008554 1.4140303664079579 9.231023577617831 0.39819266012561744 0.066642222609582 -0.40050202498508447
Ni 6.282288147051624 2.187756558907588 2.747556826743444 1.599203540612007 -0.5764246165897492 -0.6391371651276218
Ni 4.178286482707297 6.805747169763804 10.326991195281604 0.5513795006956633 0.5483060039766622 -0.03895324133474582
Ni 8.397743084656389 7.128279687621266 0.6201081447093416 -0.13775636494758856 -0.6078843777609274 -0.040403343517711056
Ni 7.892883162068639 3.834243937792229 8.196666952716319 -0.545148432184287 0.822698504224467 -0.7596938783674723
Ni 2.953393820490108 8.601598653060687 12.384025370949937 0.05759579613659758 -1.080581693963339 0.12181321135477084
Ni 0.5305694831741825 4.705091711146399 10.363211831906181 -1.7461030055114444 0.7312340803648826 -0.8312880456656909
Ni 8.427441794021338 2.469291255379114 5.582352592061756 0.08913294751293036 -0.6992510997003828 2.1067398188704747
Ni 3.673290535496503 2.9474178053843056 11.780264665438212 1.4233413699316324 -0.3115904494543408 -1.0920963794711578
Ni 1.155882836792068 3.3158178261327347 12.333736160979168 0.053049828637127996 0.24251519192323395 1.9334274111951477
Ni 2.9848608499546505 8.255697104963996 7.832472813312459 1.04742449048508 0.5812423496933666 0.7234757765757024
Ni 5.721531172700347 7.945062207468921 3.537011092990424 -0.3167611950220029 -0.47464209863360834 -0.37524170775639887
Ni 3.3106398221488003 8.326765436351208 3.7311064412757933 -0.9403863805569546 1.0359560848341642 -0.6474888795264268
Ni 3.540920440656753 4.012309237667088 9.083302650651978 -1.0371645033199686 1.542514572560395 0.28805739932940716
Ni 7.56238866960891 6.166558397764449 11.711367287034808 0.2097557381040258 0.6065430332416845 -1.3582050424436158
Ni 0.3421681256095004 9.129428600326733 0.2701358330603066 1.5692239635307812 -0.3339477341036184 0.915165658316953
Ni 4.471637184767381 0.5108504469866758 1.4046827543122662 0.5882277798722644 -1.1430559012381603 0.5657036306278193
Ni 6.238796540909852 5.839645887044921 0.42130362397413396 -0.4118444465810972 -0.17838236599906698 0.43001854638696263
Ni 7.648310889832698 8.831616290630754 11.551461274336532 0.7424451185893536 0.3648719344863007 -0.37555512523175966
Ni 9.253483056544297 4.914324786315101 5.935224948674123 0.321062393500518 -1.4405808737383705 0.5054056050687102
Ni 7.85721750590609 8.878599195430693 2.615483265581934 0.4017852625728822 -0.8257642876339844 -0.049685797260901526
P 8.388602229987725 1.6167342596704721 3.5320733991738695 -0.31776058282079467 0.9153227527201075 0.6453404657248564
P 2.035753576808261 3.076704675435022 1.8455521600652756 -1.6897727063508317 0.41643643682715376 0.2501274570528531
P 4.654200365510947 0.9608688688857304 8.10357442119639 -0.7363348919265577 -1.1117761172882723 0.586121532162539
P 8.588086873838161 1.6791514250319846 12.590450897898977 -0.9776084981332067 0.7582070094093006 -1.6498681568464104
P 6.365707514211373 7.912552322561029 1.2770689871250105 -0.04873346064996124 -0.9090109515694668 0.5552356412169599
P 1.6596726990118582 3.205420242068947 6.13504058577397 1.0369603577289626 0.48093821605496523 -3.1500669993577297
P 6.608067119245773 3.7787005500486193 6.087193471202279 2.090482476471348 1.9980731721999911 0.3027026600464077
P 1.9378793263728689 8.468566571722118 10.142452030180596 2.136751791851533 -0.01310414148212582 -0.2358192679602971
