# total energy = -381164.8699335367 ev
CRYSTAL
PRIMVEC
9.35322351950608 0.00000000000000 0.00000000000000
0.00000000000000 9.35322351950608 0.00000000000000
0.00000000000000 0.00000000000000 13.68938805912371
PRIMCOORD
 96 1
Ni 0.25150444029658164 6.152849762331194 2.5244874174741554 -0.9652551187741764 -0.16261764696564251 0.16728008543831838
Ni 7.897244663117859 1.9277461422753392 2.345485424941876 0.40155797705342455 0.8656505823059608 1.3783084980617102
Ni 2.083299603337328 7.309852870191761 6.245564526213287 0.49391585926155585 0.5015828888885103 -0.624427369721273
Ni 5.6769671007129565 7.191731009825465 10.717339775951165 1.3441940728765045 -0.46385786353391084 0.08790293176057119
Ni 5.10683200525901 0.4204535881442705 0.10009445727262206 -2.108927570550413 0.0577019826971587 -0.4549050252159972
Ni 6.7978012930587175 0.31995226564669527 6.274393967198878 0.38272413217637313 0.30061749538260485 1.261739308714698
Ni 7.790739506415744 2.3563482587869484 8.225295885047013 -0.892015959673367 -1.8468979627433355 1.0851135203954214
Ni 2.2350369491859623 3.4396760246485183 13.16156624671622 -0.3463787607781196 -0.9122238020798097 1.9442414710915163
Ni 3.1269697012954145 5.608024489836406 13.576094567733875 0.5542151703722455 0.8871843426126785 0.9784839587596247
Ni 8.433998103678519 6.774128284222935 9.082553431444534 -0.6968651159667095 1.009246950974094 -0.062318398423247504
Ni 7.790533735497378 3.7021368310257934 6.306345514209513 -1.9477127174695685 1.8159768476844467 -1.082423375157768
Ni 0.7869334644008427 1.6211287674611903 8.871381026470267 0.07675822799766135 -2.359220092426221 1.8575924663427041
Ni 1.1138099214505917 6.056932454701426 12.431976460652518 -0.5378578120601447 0.580225221282762 -0.6060907761956142
Ni 0.5918616984664465 0.09198053583246361 5.981714766137034 -0.2594942429797337 0.19601601992043016 0.23072488415652526
Ni 2.7082258824183034 0.3173960296471618 1.299665956209209 0.2299448114573911 1.1525936655252667 -0.3326655249570851
Ni 3.5178502671809033 1.6907541636577776 3.33970409460456 -1.1291094663603973 -0.6239380887896803 1.3801144409221973
Ni 8.815684450802422 2.1875786928316523 5.13538272018245 0.0299374109893807 -1.9787970975791984 -0.8773241619891471
Ni 6.06781960692776 6.1183083077162035 8.407255366869641 0.18320935507406513 0.03238921496398293 -0.3056974810086735
Ni 3.137089889189652 0.3624402190000829 9.389058567575939 -0.4799974494082508 0.8352382885626907 -0.9546148654515108
Ni 2.7265488473765407 8.250693628307655 13.084193575443113 0.24277590178378833 -1.1823613837060023 1.4566636382328464
Ni 3.514988180770888 7.011148322511183 11.283409960445004 -0.9483472872752442 -0.7451578895348263 -0.5113661935275193
Ni 8.664517651591078 5.812598195587582 4.725686274456999 -0.042650487680674934 -1.593062974931908 -0.21422071585391494
Ni 7.282008323647262 0.8820361062583493 0.42954679209138524 0.3245313258857249 0.19074165889536826 -1.2078824107952424
Ni 8.901893112374687 9.018527810194602 10.055499129437482 0.05423279320163563 0.25092912701854203 -1.353464956655469
P 4.938661045611692 6.799484873299903 0.5631089539140649 -0.7956772384406168 1.161262396943858 -1.1308465036561621
Ni 5.210147712726434 5.900462377730347 2.425759466163962 -1.4390114723687217 -0.8636446076195254 1.3567148310513344
P 3.4869752762022714 3.5367063658821825 9.614974458851211 -0.770912372791111 1.2656211602676075 0.4611594907661413
Ni 4.0409854142350845 9.262628238719392 11.378208622536741 2.102466902526734 0.5715600894085964 0.6264461999235147
P 1.6975446039638928 0.9726136585564915 13.25015062707327 -1.0776550072348472 1.0351078779012561 -0.293815641969423
P 5.966898324692244 2.5050925730956974 5.71388240346802 0.4027874785851515 -0.24157159706304204 0.7835071787369862
P 8.400232966619186 0.10190150006482795 7.72329247598678 0.8556608180831006 -0.15555096992684822 1.2007373151100287
Ni 4.298011997722755 8.69984477698529 2.4021865368202953 1.355234646961382 -0.5578782210461295 1.434087295594227
Ni 1.5392038822803857 8.138146289184396 8.540754862094454 0.023629209383165758 1.717993905980054 -1.8990859576008001
Ni 6.1740815798172575 4.245184991043775 9.892650153997023 0.4715475188686847 0.47410216696973834 -0.2872004506457505
Ni 1.2052189753234086 6.622325465809366 9.965792362252975 0.22848519619272906 -1.3086460005685656 2.490360751829505
Ni 6.855108493823963 3.6283866632383015 12.097709086343963 0.9723037980908416 -0.4669560428432603 -0.9668756850967347
Ni 3.9543839172732094 4.1124533954734135 3.7645265734747073 -0.32711348479060437 0.21280352379141412 -0.3197619295215396
Ni 3.809137708576701 2.814590740766986 6.05499446677935 3.8806932709352844 0.4117937958488198 -1.4906677630924328
Ni 0.3788532557069302 3.76398969844224 11.89465434409928 -0.5348599057740853 0.0197211325780112 -0.5557310927961396
Ni 3.1968476345281798 6.139867488026942 8.876910652240205 0.8273979665826653 -0.5920106439534643 -0.4958367304333525
Ni 6.550221465368811 0.2813271936244724 9.638396801295528 -0.5290756949921404 0.15682597998452993 0.06259556334403414
Ni 0.5182789533807168 2.9999809849922086 7.239112569746566 -2.806007116520774 0.3445969862873484 -1.0127827320414946
Ni 8.133675448321693 1.6640039442700507 11.022709430742125 -0.16168973583473445 0.463890259433743 0.4055215896868629
Ni 9.112321936075766 2.272814619153455 0.07939016159546387 -0.5101564894901344 0.2701576362308509 -1.635757428476641
Ni 4.905335510059778 7.341232935242748 6.5554920068460785 -0.3829326486427534 -0.6453592347779338 0.23661836682282475
Ni 9.093503250268734 4.896870842736041 0.34606178922041547 -0.283966259979169 -1.3341030071890894 0.8351200178172715
Ni 6.492231479283529 3.2180233326728698 0.5452377496538796 0.9008081040437003 -0.7439240171277253 0.9668821128546379
Ni 6.558405535985686 5.4300139390017135 0.7434568753169365 2.085186261069415 -0.04216249230066287 -0.16575516415335967
Ni 6.52088040305437 3.9239859406962463 3.9400388782959515 1.1301674753112665 -1.179903409083813 -1.9138998826851812
Ni 0.5929214186960372 3.379618976156002 3.527891887997219 -0.7217418246037312 0.752331267354814 0.2486768406492556
Ni 7.201608013907087 6.791777817084697 2.909200467742768 1.4296516284203764 -0.06320979988926533 0.5138251965909731
Ni 2.6690639353636136 4.733376494869793 6.2618821600398 1.6728875005597188 2.0611590449168826 -0.16316117817393835
Ni 7.643837777148737 6.023008312841536 12.503667983933981 0.9256315908452832 -0.824762071621715 -2.121162164943392
Ni 6.124921036774638 0.9925734376381032 4.145639567994251 -0.29446124597322193 1.8495649680525372 -1.2978247415833455
Ni 8.570115566178377 7.251862884106478 0.7000382762191157 -0.24465820640816577 0.8382999582071498 -0.2881864687081037
Ni 1.607968781909256 9.325715731646042 11.379208482135535 -0.7702870805022862 -1.130666783545188 -1.384420781607035
P 8.00325409897118 4.335677429007502 2.3552314838936286 0.21501364406885554 0.12600925171398944 -0.3375475356397348
Ni 1.7185238844137782 4.500817944220686 1.8203056632170107 1.6042729847151145 1.468982307699199 -0.9644989573344421
P 8.368665837096955 3.7459940963086784 10.272092662788367 -1.4052076364453994 -0.45493870666741004 -0.34724882208789876
Ni 5.3091048180139 2.0726462817000475 2.166851949417945 1.2480026758548959 -0.0572119304346176 -1.4982311772619874
P 7.5462368892777825 9.058428661910702 3.344358258649082 0.8363662315195466 -0.7002142349446006 -1.2441385649137993
P 1.3800587833705347 6.765336254074521 0.7780170363790523 0.5572331312629628 0.1102149649942102 0.34861947718318026
P 2.5968851091345617 8.90959081536633 4.671462831500191 -0.78342721742867 -0.40523079791932143 -0.1053380965178831
Ni 2.5171582314908605 2.9280640490228964 7.8093168790548715 2.0588653637866994 -0.2802214482247561 2.482663897405879
Ni 8.632613806020611 7.499433358572823 6.179389534188774 -0.2962365927060898 1.0249090829913834 1.4949306521338448
Ni 2.645316100739335 0.6761641730767475 7.0068037501665685 0.5868219006636731 -2.219673468347429 2.859674267026927
Ni 4.95079217657179 2.2509467824651668 10.378418237598089 0.51673028605291 -1.1079770552571562 0.08844029232127995
Ni 1.390740164678501 2.3310664954984777 1.5317334626213028 1.510694856946637 0.1882320050996371 0.46706634316887946
Ni 6.383116773207576 8.424579407551441 1.3979196990848015 0.6220537272827739 -0.7121369545241154 2.22875331916151
Ni 2.847074486198306 4.749950407021909 11.400673194888293 0.39058785119516604 -0.8217644224459717 -2.1303870259757693
Ni 5.478145627452498 4.736313407068306 5.642615516536277 -1.3819386386151298 1.4409169169215508 1.3729145807396486
Ni 4.071458216600544 6.730448730187731 4.103695036929824 -1.3804772235782548 0.40074730822667115 1.45801886670916
Ni 4.636327447189005 4.142205999624588 7.835094363192136 0.43326353568682163 0.34768231008089157 1.1627045287070232
Ni 1.0112424718681394 4.1484633061876615 9.427142087953913 1.2129945352108271 -0.6823561237172571 1.2468870741932139
Ni 0.3504961525112271 0.3561707532463789 1.611309753365653 -2.25730207733348 -2.41601087616302 -1.6355103454628415
Ni 2.558845548907329 2.0063786927622695 11.215976024529027 0.25722678710179564 1.3631351327553813 -0.3542972442942479
Ni 0.09956974143078588 8.213841927472814 3.874302552456503 -1.1618195549989088 -0.22914134171948924 0.6810685152540851
Ni 1.044081639794821 5.6685959656248395 7.716214891717307 -0.3255260856988265 0.9245329584644658 -0.6691277979524413
Ni 4.257297415556749 0.6040788790833169 5.445378479347245 1.1525674402730215 -1.1463296868934258 0.02400613310661027
Ni 8.348752824133154 4.63194078533836 8.261874471753838 -1.0805187019358875 0.9285140545994008 0.9898382074301791
Ni 4.444792135083454 2.6044612202198967 12.941865572497992 0.6804496507231637 0.45446459524446897 -0.25227355686157843
Ni 4.745442153264956 8.047597731879296 8.849450523184112 -0.596746873086869 0.7502193632181338 -0.3158919050431721
Ni 5.282466837308919 1.679605121171704 7.779213529020117 -0.3840402798846354 -0.10978404810437867 0.07707087414207371
Ni 8.932562332434953 9.085431418334606 12.72096020308496 -0.02837135205384146 0.5159489278021953 -0.021541987836833868
Ni 6.554626833666579 7.943122224690167 12.921372659673338 -0.5575617182469752 0.5038752844671129 -1.2170820750166393
Ni 1.2948602699429803 1.0472336761352627 3.4436614332083466 -0.2262848461073006 -0.8188577903221381 2.33419785935027
Ni 2.0559881905358726 7.8749372249221485 2.7341810778032487 0.5206656165515743 -0.630477946790727 -0.17359342925085586
Ni 1.864303226853328 5.423139319683539 4.020203486802361 0.3770540783747894 0.5774525436336313 1.125994060659867
P 8.975259797996133 7.366664350108212 11.368803956245008 -0.4129811312887016 -0.5686637416974076 -0.2705250468725986
Ni 5.244773346353486 5.296767916135435 12.394276422440589 -0.5129947302698777 0.6139197853217297 -0.2940251868770678
P 3.4863953763414193 3.1562733507156064 1.7055472220436618 -0.019644770814121006 0.3915147338848096 -0.5387939507211688
Ni 1.9283447485833163 2.0224101179477816 5.571964071714922 -2.651591288639634 1.1042091035742918 -3.179291700550802
P 6.983995914510284 6.117008209641066 6.373888882841166 -0.255105884104051 0.0836032759439528 0.44837339474506654
P 0.7524902186332535 4.32728758747226 5.707120022832591 -1.27997871454086 0.8540793325285937 -2.2539354748540923
P 6.102024345494514 1.0512181493727355 11.884593081513481 0.18108151009778492 -0.08682821063915369 0.3296113115117937
Ni 5.981891542062358 8.09546753007034 4.698635816592928 0.45809062203283035 -0.9897477045989018 -0.8577981761410773
