# total energy = -340895.436083203 ev
CRYSTAL
PRIMVEC
9.03962884065558 0.00000000000000 0.00000000000000
0.00000000000000 9.03962884065558 0.00000000000000
0.00000000000000 0.00000000000000 13.23041054799008
PRIMCOORD
 96 1
Ni 6.35635970568309 2.123680021013713 11.34839804999245 0.660281917526037 -0.04506501065943851 0.7766593025772173
Ni 4.636317194984383 0.21916399511970913 6.032895568178593 -0.5023112824141027 -0.2013281761619629 -0.08322069579355346
Ni 2.752512766860552 1.6066042074436904 4.830105143813752 0.3955066286530221 0.024934815568466735 0.4109013659415375
Ni 3.567634185388831 4.399298124831659 5.066506807311578 -0.13676880422333865 -0.9060719235458009 -0.1787217516163567
Ni 5.001924986453755 4.262881084874574 2.777129484322028 0.9563187355164949 0.9410839208446115 -0.7281194459953008
Ni 7.393584806654253 6.0589378351199725 2.753103054628705 -0.9285919590251879 -0.9139220157178389 -0.48959409195775033
Ni 4.964491883116516 4.473802746349537 11.433257566432523 0.022984376710315255 0.467357392046737 0.09754971082171587
Ni 5.687779711496757 7.866547231118812 12.489613234076616 -1.3678659625721474 0.3990125849237516 -0.714963368229317
Ni 1.85865618048215 6.544338788971644 0.2618789536320153 1.1537298360122388 -0.1999919738490427 0.951378360792084
Ni 2.734605261979829 1.3497341121935067 0.46296640281029033 1.0482315597674077 0.6595861770105931 0.12573980010268668
Ni 0.7016487646833848 9.144217421601505 4.666273621245981 -0.7482205876205501 -0.3049618883942296 0.36974083254282775
Ni 8.684868678283019 2.52590734921797 1.2498344611645666 -0.060194924322341484 -1.4188041441829113 0.7847001706038228
Ni 6.755640114861039 0.6792277730853754 4.68195104967336 -0.0109986651033488 -0.2419528916618607 -0.0722575119138304
Ni 0.8708462109751312 7.4636780892615855 2.5410460157620114 0.12075777350706299 -0.5940158473089511 -0.028043279290461378
Ni 7.655643648901679 3.477491005847909 3.652241496182173 0.42463465636723 0.8058498080982445 0.4126214339564378
Ni 7.6797342599602985 4.041319780166592 12.414967594347663 0.7158072042868511 -0.4788934177107945 1.1221114377760095
Ni 7.895031101830147 8.886949582679058 6.652158058893064 -0.6934599469399024 0.7442477190157312 0.9311957151966221
Ni 7.135006221539125 0.4426489328608142 0.38564684084826467 -1.1294501375292678 -0.10561963231404391 0.7971965032986207
Ni 1.7404991909334748 6.847916646825914 9.248030327987772 -0.06870167624177201 -1.2088393753918731 -0.8810340067405666
Ni 0.07882917999083974 4.811993343319549 1.2346234775892049 0.7063028643408416 1.0187147812552133 0.9453198133028301
Ni 6.214717760213104 1.9330252075663021 6.926278478001845 0.41937057975481323 0.009306107892274294 0.8076768340046541
Ni 3.595367766900217 4.269009953278981 0.581795036787354 0.17543562466591722 -0.1767098633926505 -0.7746463859122467
Ni 5.879926063715152 5.587584464602295 4.646466890330206 0.3948065172622039 -0.3717092691231082 0.9929559271235544
Ni 5.437861090882251 3.0660522957792113 9.26460810345509 -0.31767213687204643 -0.36465879003423 -0.4487030101703433
P 0.19516739620180593 5.717592407658607 12.506799376569917 -0.22998132112228137 -0.9468161953426985 -1.4276369119831929
P 3.929788838612652 6.14336796918658 12.624272970172614 0.9929695539703093 0.4837970256599991 -0.3082261609677982
P 2.538228363429189 8.28231592343782 1.425590158234185 0.1390599142503605 0.795369991612843 0.12424418939376666
P 6.280408743538804 7.494159717963148 5.8425363505967045 -0.953815766588983 1.2675530871829974 -0.10412170761227874
P 4.895926297795828 1.0740435095421799 12.737286410868624 -0.46876249992437974 -0.8286454658365213 -0.08934660618563323
P 3.9007716297953277 6.179309533752836 8.25031202122696 -0.03094991141429508 0.42390934816543124 0.34557734792274675
P 4.730962109725002 0.9403564375174412 3.8324401708635407 -0.1041366200106142 -0.19424504406293644 -0.003972868604818964
P 0.20710603410991818 5.614983579843825 3.6302525988463032 0.8763080620198069 -0.8598494022431513 0.202503941637619
Ni 1.4006362626141775 1.1991338944687016 2.641372337275742 0.02758588003806862 0.007087502974400697 -0.6365616910909617
Ni 1.8794925251313501 6.463660100904785 4.800138773960347 -0.4760623760199027 -0.34067579685607136 0.2567303070813514
Ni 5.884509155575085 5.884454917801595 9.208881503082456 0.38385593178797117 -1.067965033640593 0.5576514497473042
Ni 8.775201690031157 2.6430970984727344 10.297572827318588 -0.7468779575497266 -0.4484476996264277 0.2832476366455896
Ni 2.280128878646558 5.2355993939079095 7.03677890185947 -0.7258111095770984 0.15936597279756426 0.351340218548453
Ni 0.3344762134488166 0.08116140425092376 9.239682230684718 0.5406135204284109 0.4439829789868547 -0.17954141930417467
Ni 1.4764968284693134 1.2396856697816354 11.637707757567199 -0.8642976678224922 -0.5026761219526891 -1.11465061062259
Ni 4.285633830853766 6.496428755721857 1.6294970676710654 -1.3167274920251195 1.264870655254828 0.7291039213957572
Ni 5.60267160526152 8.010494281962137 8.071278554712745 -0.21349360787990326 0.22531605443612807 -0.6682993885138748
Ni 5.449956114370593 2.8392480063004983 4.736764647525575 -0.7818719571264083 -0.03547299609562923 -0.08393494825175868
Ni 0.6779812082579895 7.520980296954114 6.870327694832117 0.1980425634321557 -0.8329718611260171 0.5663865156274568
Ni 5.079656755494307 4.5858851052672955 7.079500188112017 -0.4713258897761818 -0.5696757279016899 0.2645752570470669
Ni 7.97700245683186 7.300214479590658 8.819034850640255 0.14347912636397872 -0.11338179275796602 0.36447495615819814
Ni 4.762890079052974 0.337776581965703 10.417149038606926 -0.8776270379415466 0.2706844552685983 0.4486073651327435
Ni 8.174102525695703 7.278193943553585 4.880354633026756 0.334490751091282 -1.0166175324065523 -0.46135283772387004
Ni 7.208534563134176 5.893142001188962 6.916792291418388 0.2749072351006943 0.2657235117188972 0.45293581730476834
Ni 2.305277126288239 5.315744743868782 2.382466517593888 -0.7369645550907566 -0.5561051883061068 1.1174495135239657
Ni 2.473667333717871 5.3260770397186885 11.336014662341718 -1.3727122349208551 -0.8154749898928342 -0.2456822767973059
Ni 1.389897183463093 3.424726691870737 3.858675885863703 -0.9742313541308577 0.5626877266196308 -0.9320238675248722
Ni 3.6583016634068257 2.4193030054227345 2.6269902876718905 0.2952624017182786 -0.0727100260702167 -0.012287816228417549
Ni 1.108376020161556 3.2556675519013907 8.25361962144698 -0.908917363414396 0.9444710921492896 -0.9801155808257764
Ni 3.541572935226729 2.418661191769766 7.071734242911093 0.4176471693058033 1.1922092230343595 -0.6848089561331239
Ni 4.084791355619089 6.774144235250156 6.074994023998892 0.07922134482617324 0.4805060136135531 0.06509210451364274
Ni 0.9015014005518633 7.489820696083922 11.458475419216851 -0.29711822398009474 -0.2878586530550397 0.14508246629535657
P 0.2208209590998386 5.65823820420236 7.939344266734635 -0.1386508517373999 -0.8469352652846446 0.3698619315017243
P 8.413101274580827 1.5929272488952133 7.949505713598048 0.20947703052134245 1.0113909939002905 0.005491619242190542
P 1.8260773578722942 3.3470039624591 10.3945382148017 -0.0620466328190996 -0.3304870292485276 0.8057467068614769
P 3.819740396200781 6.130540735756118 3.8536353887806682 0.6576732762585964 -0.02858963871223463 -1.0717293857790318
P 6.913914977534726 4.230718085194811 10.48320883879236 0.027476865264030096 0.26803159102678353 -1.7545585924779652
P 6.377702269551533 7.979858979569017 10.185947873623933 0.33686336508851666 -1.3491827843403472 0.7787025582594912
P 2.3422763274375566 8.395356483020574 5.90854281697154 1.1974038798614217 0.5997100694802511 -0.1724112360172966
P 7.068962692685738 4.082630884308391 1.6211091960007866 -1.0272693556934436 -0.7383555219010123 0.030753736243088966
Ni 5.60846600739607 2.9565191122154983 0.32439612324563954 -0.3234949142014106 0.11010337911701039 -0.031215249260539788
Ni 1.3250197667397479 1.048135933071634 7.005449355965675 0.015537690624282919 0.2222883233533978 -0.4096700646375977
Ni 6.9442248532869035 0.9194839343525809 9.377939739088909 -0.41661101473180506 0.09562575432612563 -1.1970516387283257
Ni 2.567652355547691 1.6176144754622264 9.06149487343695 0.5216441784147596 -1.0025695389539186 1.8822064082366423
Ni 6.347066967158415 1.8223620703882069 2.326951444537865 0.0546912208952929 -0.024116433432229436 0.958626300603749
Ni 4.000243706376586 6.999872808887978 10.415944960035443 0.2515737025810764 0.29083393363327975 -0.0776408877129308
Ni 7.964012510080927 7.0668383798907 0.4790162639489693 1.9561945296883343 0.6118932418100043 0.0321740136293833
Ni 7.587168459870142 3.8020588820429344 8.230810829768515 0.4777510765762353 -0.11628636799927071 0.13996417123218477
Ni 3.09995994383958 8.431677712001262 12.3287449018672 0.705523562972656 -0.2674078413998556 -0.020894841171138205
Ni 0.08049518359988425 5.198021656508029 10.17905425261331 -0.028413261035370417 -0.6950159785731128 0.0960219613232798
Ni 8.488139234204692 2.2048197301552404 5.702558600809979 0.32084282129054426 0.015318118414309101 -0.028117327061506416
Ni 3.71559483147044 2.38860442562721 11.338554798066848 -0.2778773734726117 0.5088655385928527 0.09873601782033319
Ni 1.1733619124318817 3.4057705900358677 12.609110800593394 -0.10053373315070428 0.5854360760597401 -0.04240340466687536
Ni 3.067643270468261 8.429444923659243 8.000019159975372 0.6309505155517715 -0.09090238070852732 0.12359498584554197
Ni 5.429933336323748 7.823328765275936 3.6776437573963676 -0.05386486833925562 -0.3892951005256715 0.03216090100326074
Ni 2.860518253137621 8.442751257422204 3.709569014835665 1.417047823613437 -0.08850405567967982 -0.3727881040095838
Ni 3.3621091823761553 4.22467057345064 9.184008964122683 0.2646385061848346 0.5107871810955977 -0.17820521699125438
Ni 7.33382381989683 6.399144269338042 11.475197828746808 -0.20244737736807067 -0.652925991381598 -0.9970750914982506
Ni 0.6965449901979451 0.005030553491227733 0.5256164549689658 -1.1065086982417458 -0.32863840607556305 -0.542033283594073
Ni 4.6116751665619455 0.09598729963450435 1.7262509278375662 -0.306408133922453 0.18074238159081132 -0.9321264545410076
Ni 5.975312228026805 5.510946490660465 0.4417729928189455 0.2567251648750289 -0.18143092301740368 -1.0308776418699923
Ni 8.124809429221914 8.85030292705743 11.306219141474807 -0.7380325913439547 0.6416236789949014 0.5266660571093833
Ni -0.020219841957193518 4.641008762391296 5.756922025142225 0.42828999373163007 0.5929948622436045 0.006784884132317348
Ni 7.850492850165675 8.407270713930616 2.768965795448842 -1.2039056855356816 1.4108658631724411 -0.7695584298663779
P 8.407731735005283 1.3801976616372398 3.419386079107723 -0.029546603308865247 0.8337830441734028 -0.2575970259570209
P 1.977943123645207 3.149488070665163 1.4793976453881543 -1.5438214642972765 0.5419355816739441 0.5163068253622464
P 4.680575218152489 1.0730672296193537 8.359197967360357 0.39856932673874584 0.3755453550397468 -0.680508271875241
P 8.3729743618269 1.6642228021482466 12.493132361613247 1.4147351163198603 0.9580814838438726 -1.344931208152845
P 6.162685656178052 7.549816713193138 1.3643991021823991 0.42572249011477004 0.6051857478828416 1.9385174241235452
P 1.7723638828590413 3.324422969429294 5.963541727216513 0.2922935488979418 -0.9124973674561704 0.675989558069281
P 6.863699838911599 3.9124417907246625 5.996670159264404 0.4022079519325976 -0.22722818385717639 -0.43525485508523754
P 2.2095022579332384 8.711318632488467 10.244915180962614 1.513906421905399 0.46383292383324637 -0.14054035545062893
