# total energy = -340893.9784240642 ev
CRYSTAL
PRIMVEC
9.05410052735611 0.00000000000000 0.00000000000000

0.00000000000000 9.05410052735611 0.00000000000000

0.00000000000000 0.00000000000000 13.25159132429543

PRIMCOORD
 96 1
Ni 6.59038003086063 1.9793621423686807 11.386748028728816 -0.9020694872546271 -0.33979185158922126 1.3022141289002929
Ni 4.641195204872412 0.41229475564171786 6.18776410846545 -0.15208795107891226 0.17425137454982892 -0.7886774100840159
Ni 2.774846342750036 1.5464131730674637 4.720561637494031 -0.28460055112905824 -0.21598603528445381 0.5755643254719829
Ni 3.4589832173447337 3.95579075623233 4.675055729264747 -0.11545513034722696 0.5834925791801241 0.055784453959471667
Ni 5.074741744795024 4.549468114488234 2.813140660071118 0.2721564118284345 -0.9325154624493103 -1.6120343738280882
Ni 7.378675275584593 6.07559104872923 2.678517958581114 -0.3785324626925287 -0.04910884171150897 -1.229933734168327
Ni 4.964354153642729 4.467890670567452 11.624454378639607 0.3988788875593647 0.005140663660675018 -0.5095070288315935
Ni 5.478464078249816 7.915746398613779 12.432881415434364 0.36834420930561723 -0.0958098453124737 1.03444813283007
Ni 1.9397232911494595 6.362017512484385 0.42962883071234353 -0.7392415240503915 0.8903442283978988 -1.693704180194754
Ni 2.659089670105507 1.4966337294851706 0.24627696127765036 -0.014845549653264758 -0.40282655935320305 0.027328512611623904
Ni 0.17672426799739985 0.18436411785093548 5.284177571853622 1.41392290483121 -0.13910670832789593 -0.7204074220630238
Ni 8.476457777589374 2.1312084589053555 1.5571277953910878 1.5643923464700928 1.2850844111985418 -0.8129424532789677
Ni 6.809733719414325 0.6691025410064116 4.801011845924454 -0.09126182093047508 0.765851670438752 -0.43755393553205935
Ni 0.7861711527879125 7.35505312783883 2.431163559364887 0.372260770751204 -0.5002909095499641 0.28140235590673474
Ni 7.737127107418529 3.880985779354028 3.7318728957052203 0.5875204693925945 -0.5224232226726293 0.41185241700089714
Ni 7.6689044614759 3.835986900742897 12.703386243769463 -0.25826217034484555 -0.797345370171659 0.3184203278919806
Ni 7.683662645004299 9.009852935886947 7.093404115030802 0.17568219345908453 -0.25827913962571003 -0.19521177885157995
Ni 7.026706179582763 0.5572862128229625 0.5055429348803567 -0.752633114865949 -0.14833645445628005 -1.103363981965177
Ni 1.9030994553381868 6.483650296239301 9.13347400007305 1.0384328285094309 -0.01694485538445469 0.2757937514707057
Ni 0.18558461057463374 4.860784300034536 1.4521753806633928 -0.5921386848908964 -0.8989630804151614 -0.3304800872699921
Ni 6.194380844982355 2.192749178808747 7.1219879097542105 1.6318244119708218 0.5097170879598705 -0.45109310766907473
Ni 3.2798297342303586 4.054715856374224 0.19619148910440026 -0.3331105829143038 -0.08323869351568246 -0.3896851368752386
Ni 6.066066135188202 5.575189032012937 4.6319609279517895 0.3647878594129266 1.0882335540816421 1.5080481633524094
Ni 5.3823638574090635 2.8787421439699 9.387374513823653 -0.20159737066294958 0.11713920291786922 -0.3480358367655684
P 0.16687612307479885 5.407670067815122 12.416105072943708 1.2437976366346128 1.1533174310651686 0.7975091494430331
P 3.964971613961039 6.079620123373486 12.803568053036354 -1.0522039141515942 0.3672895427888578 -0.7993698568008555
P 2.328642170574232 8.523647748478956 1.2919757511676377 0.5312616468998658 -0.6156727634570945 0.6403563822467037
P 6.427197980718093 7.773162426708731 5.7045712202353105 -0.7459611021624121 -0.011230835718812917 0.12095214890605621
P 4.721677102653969 1.0477585977137365 12.79959239758401 0.9466087073175827 0.20741037780030086 -1.0029402920297759
P 3.949470994206058 6.0735900925575885 8.06843021943044 -0.11548649780579466 1.1488290562765118 0.2593991121627662
P 4.737132451907329 1.2756865192744213 3.7562827501791856 0.035497164465345316 -1.6626773927959364 0.789389348549376
P 0.36741629656489855 5.462166697666309 3.683173606291601 -0.10395818545122097 0.7885244294459194 -1.178395199969403
Ni 1.3224509474487656 0.9769917495800144 2.6197994017487662 0.893037973179978 -0.053449892289024074 0.02375647898964941
Ni 1.6564204920061434 6.811408727974297 4.854587673772672 0.8655780771968126 -0.09498992051433963 -0.04613304691263668
Ni 5.8323254812193985 5.712231894519593 9.142021070779068 0.4740648859738997 -0.22682117822674483 0.4184557812500277
Ni 8.703697587525424 2.4736073708645363 10.297652030575044 -0.06787223836194117 0.48677513445171655 -0.6119983999293008
Ni 2.5041559053582905 5.247213301870161 6.6145318434753575 -0.8607366899441112 -0.05570192154799439 0.6199369380500872
Ni 0.5371354071414872 0.05436172375635613 9.102584125997076 -0.3615827222120676 0.4803262935025792 0.5095193701267676
Ni 1.3793559679861813 1.1159540813553936 11.259664676578751 0.407427291350008 0.3120969567771141 0.31933178396265655
Ni 3.9815406175542725 6.911963566174541 1.6703629010953347 0.6788643085139147 0.35856398999040184 0.4460020662994125
Ni 5.645358309525264 7.97789374323889 7.922463635644282 -1.1907249251793492 -0.017382714252821674 0.9628454808914191
Ni 5.611867192426155 2.9687761175934577 4.909728050156907 -0.4443300779136283 -0.27908450640683546 -0.7638858049616327
Ni 0.7264720368904575 7.72013256111006 7.228663319773596 -0.13209710977928218 -0.7037158203399558 -1.121132618802508
Ni 4.932067231886735 4.688720177473986 6.647051455609683 0.3941298029101535 -0.28846903294552895 0.8133882825671347
Ni 8.182878574578124 7.103720356940163 9.289803001680223 -0.6143992960613096 0.6694761824307953 0.2887413127703092
Ni 4.576892984370148 0.42409496459421014 10.573272425593302 1.197648648882376 -1.7644015467103162 -0.7064969826295188
Ni 8.34242993049067 7.1959635310428185 4.6344788732519415 -1.0562225483926844 -0.10763460586154366 0.3189216930084314
Ni 7.235520895359123 6.427324738122631 7.139586364554302 0.8294466215815779 -1.9781892887918708 -0.7836221070482956
Ni 2.4568844475657925 5.029398810371575 2.2065883711542424 0.3855685436037037 -0.2965947473764569 2.524850043855626
Ni 2.3686160235054476 5.20614390279972 11.283385514018047 -0.56358966960861 -0.5605593674227184 0.9797772236497513
Ni 1.2732147498859228 3.440811637994122 3.8166038827689115 -0.9942111396868942 -0.3614320555668163 -0.4344498426854389
Ni 3.5763605739472886 2.5272800775862234 2.4091394603263407 0.8518954375033975 0.3426673733648034 0.3770126836138926
Ni 1.3283632749604495 3.6155467201503013 8.124603668661662 -0.759575350511737 0.10350824239799593 0.6638896894819534
Ni 3.5765416559537724 2.5854798344699956 7.17642568795329 0.8178787142383205 0.9074065831968242 -0.30683339438532964
Ni 4.066803080306992 7.03946340693952 5.892134151730776 0.31096207184172253 0.0006646301671924037 -0.15714042590115518
Ni 0.602490619511452 7.236435359491863 11.29148169052792 1.219488627575603 -0.4106488836110992 0.07218937768005632
P 0.25114535102195723 5.731834021721423 7.997865277733946 -0.2994918664185939 -0.7086515670786763 -0.49402076027053626
P 8.384413793693852 1.7043166827210088 8.074711048825316 0.9712463033606046 1.0287850210070217 0.27105366568255895
P 1.8825466476023183 3.138748742979123 10.3365991485295 -0.015489868105483 0.08077917623159636 -0.2093962978820781
P 3.9105926874140677 5.994873744339244 3.898856762573877 -0.5055459873013164 0.8113661099307833 -0.34880356816952834
P 6.770031489492835 4.049210963377128 10.490529718960797 1.680655574540912 0.1868934887938717 -0.2705515292351599
P 6.341600516253379 7.614951077644164 10.435296990753256 -0.6587721657497301 0.3260757875547094 -0.8521605182393259
P 2.343128731092906 8.632133978563175 5.846296863429627 0.39396576652846343 0.45349091847728995 -0.16502317108334158
P 7.134042538925812 3.914603653857675 1.5922187720174779 -1.5605680876279961 1.1204502480235026 0.1437848305298556
Ni 5.301157631601573 2.9674723271467776 0.6273024760398107 0.435417863025663 -0.3762891751843068 -1.0133715146654287
Ni 1.5804022656844023 1.2865967101650477 7.066331449651498 -1.422965988870085 -0.25406792975783987 -0.25507991596212204
Ni 7.015207472171065 0.5852217339631602 9.383385277220825 -1.0386194905989403 -0.003998579636431823 -0.2158659647668218
Ni 2.809306248583831 1.3461455279971215 9.162879001695861 -0.04874554483481928 2.003336991702092 1.0284505204857384
Ni 6.353379900775126 2.058866197315228 2.5423307085550935 0.12848522405830773 -0.4642147326526973 1.219250800533184
Ni 4.038355097088447 6.664524058415267 10.650463157907023 0.7591068955157506 1.3605352332386893 -0.7598504585499947
Ni 8.190882399264693 7.107821864387013 0.4201446606227742 -0.11267062562355434 0.0260694433935422 0.05775443320164893
Ni 7.863060588827427 3.9156720376959275 8.29963029284828 -0.8232608044858403 -0.009938856380266753 -0.5926094538797277
Ni 2.982855243597544 8.393513164519643 12.243754840812915 0.2586257243318514 -0.46663619760999636 1.156527196251718
Ni 0.16402770311281462 5.01317386259066 10.15168635219892 -0.34452396695756793 -1.0685103646211018 0.09043778236728296
Ni 8.590376467868097 2.481457275845593 5.715292180429162 -0.38947379219538086 0.638183800075417 1.4869915997924263
Ni 3.8330081017362447 2.4299756614023558 11.313241409837001 -1.1826460048259568 0.9904976953910489 0.642172866630152
Ni 1.0606335283747077 3.415867591601031 12.415376217867612 -0.006776656602201233 -0.6315099875996673 0.689064131865052
Ni 2.9603014796900338 8.43702717067761 8.041158363844003 1.514013894017541 -1.4300768888832533 -0.9953969324648793
Ni 5.494861053936891 7.891481409745 3.7289846377018097 0.43304524902842845 -0.24651274311840127 -0.6867658227491785
Ni 3.174720683567055 8.437697174101599 3.627569659970768 -0.4348524774404962 -0.22155761583496036 -0.2784818398258301
Ni 3.505657104515836 4.268781950338603 9.283361914709609 -0.14886661592813719 0.3592417327837168 -0.29314869780938546
Ni 7.277015837144799 5.9592639677642785 11.653303458502513 -0.9190230843898302 0.4540182517356697 -1.2009188349932156
Ni 0.6597931150530989 8.882561339429424 -0.1027586062191483 -0.16001234813231152 -0.009453946324048234 1.3323114625063053
Ni 4.7685049095305825 0.2675966513109762 1.5938086720344025 -0.579347189553183 0.1798026433853613 0.3193122435786307
Ni 5.810396450234256 5.539678850541538 0.42402977507187606 1.2632457180568955 0.37210521900994625 1.2421012227687964
Ni 8.02196004951663 8.81013759093638 11.384574139240984 -0.5981766635548602 0.5225492067275324 0.3744606066160003
Ni 9.10371679394763 5.032268960174337 5.824272764391081 -0.31876485571559293 -0.6911634375962419 0.7816788672789957
Ni 8.074238424788396 8.85257415915577 2.6073038378913775 -0.7299539281008783 -0.055000267495279476 0.3608065061676754
P 8.654533822765174 1.6436270482480895 3.750385814638053 -1.0554640729601048 -0.25893348538025734 -0.3815594224443106
P 1.7240274591267295 2.9807094218207153 1.5714794498149316 -1.0957211207079387 0.8842234602121418 -0.8627267237909464
P 4.932329800796135 1.0689361383719727 8.34283102713503 -1.382141241544239 -1.69350389125849 0.2488629885181327
P 8.597538261224516 1.674899910767777 12.537316841033551 -0.47107700699016936 -0.35086764978740864 -0.6600816285897728
P 6.34568391549958 7.736357508890975 1.5378208318598252 -0.019153175889683145 -0.655391165092639 -0.007954736070702429
P 1.6812015645933998 3.2145587249934087 5.984763030507241 1.22352937330388 -0.011730401063050766 -0.19892933691248318
P 6.977433765618624 4.124151751760293 6.073177225582805 0.7105631822790923 0.6627941424249295 0.5984011208608404
P 2.3494032226175565 8.480016039016775 10.220939354758439 0.1576333063771737 -0.7096779514606616 -0.502777937637876
