# total energy = -340856.36199001234 ev
CRYSTAL
PRIMVEC
9.48780766008796 0.00000000000000 0.00000000000000
0.00000000000000 9.48780766008796 0.00000000000000
0.00000000000000 0.00000000000000 13.88636555283001
PRIMCOORD
 96 1
Ni 1.7824744164442905 1.4049640392903973 6.469129741087724 3.3353062403776295 -2.116505382897671 -1.5120182037437508
Ni 5.028130059698551 4.77620030412371 8.89175887139925 0.045628339362076255 -0.14021433956977788 -0.30808192208045004
Ni 4.430502545899597 5.4653187467445745 0.21224035876390848 -0.16703685907926072 0.11835070672746713 -0.1458352853009811
Ni 5.752533658835922 3.6957951876934096 11.910127441794543 0.2890770988431731 -0.02242696154494847 -0.34864724509732214
Ni 1.8139454742999657 8.809353467148517 7.8170236687990835 -0.1366785585023775 0.35373494403287464 -0.2797375666098021
Ni 3.7787565774703236 2.3156512531212656 11.869232144635872 -0.7471990883345713 -0.16561452481043734 -0.14518993840749833
Ni 3.006287744960371 9.034859678518337 5.405670797836809 0.7002065216351167 1.0626834735266795 -0.7638312975746135
Ni 5.9340449062995715 1.1981108576897246 8.748952186316199 -0.851090939324231 -3.3008112919245542 -3.0461543224324634
Ni 3.721345853597942 7.586640724315662 1.679125625666389 0.548401649014262 -1.9516362208936904 -1.2470824780334715
Ni 1.3692519314312592 2.28921822110863 11.428867888381438 -0.9683314437066549 0.7994870991050103 -0.11454007473212532
Ni 2.757754624511347 2.337207552020299 2.290222979934954 -1.3007920517417855 -1.7768564846442172 -1.3826724314573609
Ni 4.8221497563983675 2.7880207308000426 0.3948521919107827 -0.27614959214822765 0.3513538453952078 -0.6513473340405685
Ni 7.644193765302254 2.335139209960445 9.54732083605088 2.3133292434313772 1.6265428518569083 1.2870613324192544
Ni 0.25919836498793425 5.612095130533328 8.286022128432602 0.08106302602060234 -0.3447301694311031 -0.03598875938978318
Ni 9.1329541214396 0.31095909942617256 2.3252026290462906 -0.5076571201070483 0.23732002087553966 -0.5478982270152822
Ni 0.5090872931450008 6.405000700643861 13.578838301043032 0.3391141087959063 0.40101598850702547 -0.14119598675675682
Ni 4.47807441327625 1.1881960987330829 6.600022586149862 0.5695602853697481 -0.6755380723541592 -2.6260226961419098
Ni 6.491728750043538 8.912988789716362 7.283065036774713 0.5082196774787376 -0.06660571294469175 0.2595382088437917
Ni 3.2094501693991937 4.756437200863726 6.424999101532674 0.7889766864919896 -0.13172198582805056 1.7597403937892209
Ni 6.221013135392955 7.402245183337354 2.069929370068273 -0.12726729249080662 0.10663393251117119 -0.9633900405409795
Ni 5.20263930514306 1.0539720844176659 3.1661193520260045 -0.02318158032278588 0.1315857173605024 0.20823518769444135
Ni 4.627032992816226 3.3715778259074174 2.7917427977270193 3.3702747860330153 1.21783515113258 -0.322633851752696
Ni 0.8874762412839511 5.729146213067385 3.3468639846344415 -0.030738823844753516 -1.0681023305494055 -0.2150118442966426
Ni 6.950435784758139 9.389134414825516 13.487646238160961 0.9329862314381416 -0.389456051583568 1.553177194480564
P 2.4118481345197256 7.185458267164812 3.834178656866809 1.2965764709985412 0.6495953843464684 -1.318152397397104
P 9.33055669061661 4.94451401119627 1.3459944686270335 0.5723437616521563 0.6691044009136734 2.0233915963601214
P 7.158778552154211 2.9009161535991628 13.474634658799106 -0.9712270200868949 -0.9950716879149767 0.10828612340261351
P 8.200748559940152 0.7794812711174682 8.005225718192133 0.4139319252377452 -0.10871241230675471 -0.2817797938508115
P 5.830276754425131 4.503919201216816 6.898427418541176 0.512145494895705 -1.1147282579380606 -0.4973557381810402
P 3.194791506635547 6.98641355123047 8.049134343049015 0.2169975072681037 0.27216515357918286 0.9182831209000122
P 3.6432232457041733 4.546614335479867 12.307999602868865 -0.6259499770133865 0.10417492944771735 -0.8599753862980544
P 1.0209260504980648 3.1757210133313842 4.8581313179937435 0.14683390176882455 -1.0116154512062707 -0.9856072000679672
Ni 8.426207332271902 7.7735315586964555 0.7699811293535588 0.3111705883081028 0.7748677578944333 -0.14088411194329284
Ni 6.821762137896918 1.7472177233506248 1.399870984163196 -0.35885375331667874 -0.3930319418602844 0.0004077769613799429
Ni 1.8095146681442225 0.08866166459141217 12.478163432426156 0.3160885944350104 -0.35811738937128645 0.5931442433372752
Ni 8.484519397867615 8.136411736509544 11.980975747590648 0.40641813335920324 -0.4055023064131532 0.6556472469675032
Ni 3.2161200981518436 8.33779045311693 10.585492874448931 -0.4028206458159321 1.4713461799456855 -0.19650890039644867
Ni 4.116313796761616 9.176370329081314 8.307476907790166 -0.9569658821821906 -0.7237064045292698 -0.5437479522923345
Ni 0.5418496416169429 8.201649901663485 4.03887715735834 -0.3484536410292773 -0.3381941680847982 0.30534318299304836
Ni 4.818914414001989 8.24180230348598 3.7263231574722524 0.10961101286162413 1.6533283474808687 -0.09947598131015126
Ni 7.999417282370835 1.3898784251841196 11.994487334413762 0.6232559751209911 0.7518306735693115 -0.12468770468908849
Ni 7.3294452355150455 9.278829163505021 10.028371657696477 1.8495855368778276 0.6128895442850024 0.23334946626356587
Ni 8.545450098364794 4.247492224832935 4.732972903853514 -1.2529901017671583 -0.15646371154910474 -1.8066933654999915
Ni 1.40229796535086 0.9491697615132978 4.1310274888094245 -0.9793802453216488 1.418157511737848 0.3217195674685427
Ni 5.002503491333107 3.3297176187144 5.2436864072235565 0.9504453074548536 -0.19966724351977225 -0.0234533459269338
Ni 8.293975757555428 6.858574831439283 2.9794448396588105 0.7967558162167763 0.2894992739822563 -0.15877796150457818
Ni 0.40380678473688647 0.10739249438299314 10.604961855672885 0.13725422850018942 -0.20574018918672954 -1.3058216437458932
Ni 0.36754438403613554 2.540730513148454 7.275164539374527 -2.5942096653963707 0.11302749474234083 1.8461875669398722
Ni 8.450382266072403 7.698340683355417 8.171250966068193 0.8956021343627284 0.7400717332611707 -0.10800381627550432
Ni 3.7624754996046805 5.880581110394618 10.447726112770445 -0.8707225975122296 0.7020957682380295 0.7573433758574247
Ni 4.547430286934672 0.3790853532178188 0.7112591904689204 1.9744946135491026 -1.0389192812275463 1.4502520782795474
Ni 2.568823911493541 4.171494885844704 9.614710835971678 0.7602932025143679 -0.7504055110870109 3.1673165304667967
Ni 2.6876302384361903 4.588284786520604 1.98080659802682 -0.41214552276128374 1.365525487364429 -1.426957626527981
Ni 8.531038118599112 2.832841133968632 2.6299244437470124 2.1634861225225834 -0.1255521095719128 -0.6094591784472149
Ni 0.793618104462345 2.692895971661966 0.7434608095108747 0.2545325280990842 -0.5796096991859502 0.20776236182308092
Ni 3.3450309402034146 7.285440783801261 12.786426096928427 -2.0768389175459845 -0.7086052872217732 0.5514777168364244
P 9.491697615132978 0.30868107681804846 -0.031890418952214554 -1.0876563414219333 -0.3350633357653004 0.23324482236490152
P 2.9271878928823596 1.2781500027215233 0.021903552657706334 -1.8965127975569858 2.3024524486178732 -0.13717349586092506
P 8.931660795100736 3.8300097142012124 11.062351033909898 0.7975803690006006 -0.3975478274527669 -0.1925637997057716
P 5.159042829156678 8.12105097598246 13.485258156984516 0.6239707417998286 -0.3729873645045834 1.250754270458104
P 7.237508379735277 6.247303850291381 11.680349819436897 0.16336506665462833 0.14841461599238312 0.3347602027025847
P 1.7608042638538888 4.00730837508424 7.891399541466079 -0.39799288540998556 -0.3890966113616202 -2.354610618678667
P 7.077847553206697 9.209112753157267 3.2498815127655414 -0.13213799031954662 0.24851383270883004 -1.2536398195360152
P 5.1352379198531235 8.23163137372376 5.837231317406201 -0.8002879977397508 2.2909457335298544 -1.431026397280716
Ni 6.7134872774058225 6.189352321385 13.796090119788662 0.5608491307489953 0.2659680236295355 -0.4740558871128352
Ni 5.333314879410837 7.135865496766375 11.569202999581037 -0.453377018607245 0.39163686128497066 1.7570319937191226
Ni 8.777645214102492 6.123639765850359 10.273577404015267 0.27324064603154874 -0.22996460895173296 0.38268685118053447
Ni 6.359781809555484 7.189889073320555 9.654203835165001 1.480302874918341 -1.6034070371703935 -1.8249134880524442
Ni 0.42726349150100645 4.64042977716721 6.260917905436725 1.8200168220817754 2.332363891465325 0.8072721423670677
Ni 7.052647936183883 4.923508005138849 2.305400625775088 -0.42466679515674605 -0.20948320116892954 -0.5071698960579846
Ni 2.418261892466797 6.987191551454818 6.005491892756122 -1.2298026079071014 -1.1579122495247025 0.6314950752013317
Ni 8.850454649732415 4.19260525778588 13.360502974667883 -0.42826608247223014 -0.20030024911808084 -1.8177177416349533
Ni 3.0293146540395766 4.195337746378716 4.2643776760435905 -2.1306497927188532 0.0598658231176969 -0.08481760796702813
Ni 1.3662253208023893 7.238988477723063 9.466752271354219 0.08378402449619118 -0.5509097601480965 -1.0218597546420982
Ni 1.3831420817781714 4.962094918705033 11.78567776688308 0.4306749490240389 -0.29300805846646316 -0.6227633517552887
Ni 5.354596031889064 0.4523492548324522 11.985627619663799 -0.698689570769958 -0.13761598271498238 -0.7314454250447403
Ni 6.834494775714922 5.98016513911128 4.650252504389996 -0.3071429552059485 -1.8393438045451613 0.21643417856546598
Ni 7.264235533783946 5.716328184980856 8.108498606509123 0.14023259440222302 -0.8776995430506949 -0.4181891578522024
Ni 8.18264582301262 0.9080439106296047 4.770619575685149 0.3709039996129935 0.558847012717302 -1.4552258773450553
Ni 4.5424017488992465 6.235036115046465 4.636435410161711 -1.5757730775032088 -1.79824446340169 -0.48699239266884514
Ni 6.778573637637939 1.9914433791428878 6.2013591419205305 -0.7641889380243485 -1.3744207329715297 -0.25219899486990116
Ni 5.222724993861922 6.531900127481261 6.886192890622907 -0.4182220679726668 -0.6566098679910886 2.411201113479202
Ni 3.5444931196727727 2.2688763615841903 8.232129483623496 -1.0304734644530382 1.1868685275477366 1.6863456829471537
Ni 0.02362369217812657 9.055818245537688 6.12624796416345 0.377393206881763 0.3631220416747295 1.6938944418286894
Ni 7.416989236369527 8.05037629706569 5.061829803562757 -0.876654132505316 1.7223285287996664 0.20544888319855587
Ni 2.7235415902552225 9.376619996582635 2.4482500059924024 0.7565519903043809 2.1693068429694184 0.8981228439020532
Ni 7.873390733833924 3.4739797334854408 7.22954716036636 -0.6168806677222667 2.2456814623754164 0.8266250929723828
Ni 1.2700663906343859 7.926996846853087 1.7817182381774537 -1.2314419432827373 -1.5331454726406692 -0.8663900315751465
P 2.42912543218484 1.1336222293372902 9.889578315234152 -0.18305354622249118 -0.5388312317170074 0.037614467918664254
P 4.724207118398929 5.592910783537798 2.3586405094203506 0.47859002753776286 0.02456534804418995 0.8062503859707728
P 1.261195290515285 7.4032698665596675 11.495077605035053 -0.536402824781173 -0.01769536039723404 2.4073886817116477
P 5.248095391421788 8.894905028404057 10.023095487882324 -0.29525597396037534 0.6423908961782291 1.0577556972077589
P 5.443553716078033 2.7775177277713325 9.669839742112892 -1.3864534957663477 3.9834188695309845 2.74881884023524
P 8.952903996348507 6.916384043231452 5.917160403869677 1.2448828992789915 -1.3210135209949831 1.0212725146800605
P 6.931147071878854 3.3069184170179313 3.7822433467684733 -2.970356144355226 -0.9111346827806889 0.719678257206483
P 3.384727927260437 1.9627048098800477 4.3236869102195365 0.7267138238970259 -0.8216173553451462 0.8756151497178403
