# total energy = -340874.19026585243 ev
CRYSTAL
PRIMVEC
9.20985385181066 0.00000000000000 0.00000000000000

0.00000000000000 9.20985385181066 0.00000000000000

0.00000000000000 0.00000000000000 13.47955205841836

PRIMCOORD
 96 1
Ni 7.026630160126591 6.984043797167662 13.006958326437791 0.7030280502443118 0.4545435281115204 0.09130372991200404
Ni 9.139223213969752 6.258206026588924 4.838053972268779 -0.5105722368713143 -0.5408130380337266 -0.6580717972485957
Ni 8.37611316594837 2.0425981666269295 4.526864992573637 -0.3580068319353512 -1.198805902415271 -2.050774359248449
Ni 6.882901185140208 4.156913463089753 4.682742685418826 0.46440782250010987 -0.14210075795921331 -0.8031624910740683
Ni 1.258913305705408 1.7214966215224679 8.98459253529944 -0.289882625463604 2.0496109350679665 2.248969646208385
Ni 6.4051492404751045 4.515941185241114 12.924706045090497 0.6701863211239425 0.6946781356177197 -0.9137404958346521
Ni 5.7790081349115905 6.783020323053362 1.5900609590961148 0.4436585057679005 2.562422088572129 -0.29586892495402595
Ni 0.8800595317500488 7.2627523862383985 0.3811636052334948 0.7347762891901861 0.29156875491677525 -0.3942334183675533
Ni 5.031112765006157 5.788125889956863 4.008198273374571 1.5213443662406831 0.37909296318168906 0.1823197533802602
Ni 2.235259093689606 8.101705578499999 10.175619089273326 0.8081560876339179 0.4675196286562142 1.1660639320975594
Ni 3.389262957252897 6.580044359979873 1.885775542804321 -0.5739787261524179 -1.4114284205441305 -0.4548880559351327
Ni 3.232511249302863 4.488947104394959 3.2506205843993463 -1.288186447162633 2.991736152692899 3.069395295238275
Ni 0.35971017230171987 6.683609163499151 11.137573560051726 1.063755623544936 1.2207153008938525 1.6212628344048916
Ni 3.3013272752607157 8.613101118296798 0.515876133563997 0.13580978274417901 -1.2401525836828577 1.2683208185869577
Ni 7.710949910761807 8.50562212700556 10.64100035860832 0.31952924468544325 -0.20771273953206806 -0.43955219690901076
Ni 3.3541089461339024 1.2136376655008037 10.398678980051086 -0.03786155093246383 -0.07569893349521158 -0.08028732419684237
Ni 4.42084023716285 1.2354742283415514 12.848628049583962 -2.698196390092682 0.793070396945389 -0.5120315950256601
Ni 5.296890719649054 3.2664863991634787 7.669096652147933 -0.009171124976306786 1.2162526371368085 0.32456372178555715
Ni 1.650810995287655 0.24452621750454626 7.480651996054675 1.5019950151797938 -1.4969980761858346 -2.5073601146009783
Ni 6.474066574822349 9.13071330926083 2.442090301472138 0.6401362958160975 -0.13205545790806933 0.691715196334654
Ni 0.5595299185529726 2.4287028583066754 6.292510889207742 0.36195064707444763 0.27134137212630693 1.8337789088628742
Ni 8.86191452264334 8.917965691537812 6.191832453800775 1.4301748479136982 0.9969905022042442 -1.173868772853959
Ni 7.118240573697624 2.1722268557806736 6.339150508727705 -0.71116636308073 -0.03218044138728651 0.6917293374020409
Ni 8.284097518819769 5.939858227705207 9.391297827469353 0.030564760160734457 0.49373408226805293 -1.9887647503148715
P 1.157687804995724 4.178050077058338 7.959014554012206 0.5512463175519087 -1.6967676496114261 -0.038318950184856586
P 2.280553153601373 6.4635305023255905 12.34973580700884 0.12894750840670693 1.0561212469281296 -0.8992317606955158
P 7.406508990785524 2.752613408753367 8.388190046949244 -0.33033636260327626 0.8466388170901484 -1.083810999533914
P 7.535971902574809 3.87441041434361 2.0787892072591534 -0.5729857661115293 0.22668490975919672 -0.05958814397627803
P 1.2108562897193167 0.6185273196080328 4.513263880805093 -0.5116940091805833 -0.5384687061712662 1.9617573684880927
P 3.085181221566277 6.53954863378385 4.350592999958497 -0.8014444799416972 0.9158120336517002 -0.49003349348801406
P 5.60493269237554 8.057967983843435 9.544762538676299 0.24500479111430706 1.1102421971422491 0.27797738938558575
P 6.87765156859899 1.800139561251336 12.351771184650259 0.5038017509167001 0.6086019726532421 -0.20828301021324128
Ni 2.333519021546181 0.829447702380565 2.7439515414603584 0.37819076308239385 -0.5459619292245177 -1.2287075750707097
Ni 5.575369062380262 0.30852364806877636 11.108255833147062 1.5488292019245133 1.1432693028005472 -0.7161010813781861
Ni 2.3739042294992307 2.4685446848984407 4.663183719368679 0.9986524632876994 0.011880296377353735 -0.5377292569020803
Ni 3.7022322016452622 2.773593455211074 2.2601164885049494 1.2013011580332988 -3.267469483239314 -1.5533101205140023
Ni 6.202615350373506 9.327187115706076 13.634701025539057 1.3638349870358835 -1.1639214318332598 -0.6881292787556085
Ni 4.185058775633542 3.693510470303976 13.304789334498931 -2.540304430737483 -0.4935476772888596 -0.4533957876603224
Ni 8.443345097090276 0.9934576959378505 8.168176775736109 0.15620968655676967 -1.5322185899510257 -0.6851509128535749
Ni 0.3384464623537152 1.9422844414217724 11.96380333959106 1.3137187871057825 0.9779365708965868 0.2743292511100372
Ni 2.808185665261622 3.5795661617988164 9.567368124291066 0.8598851405770934 -0.5593681753280948 -0.13399535524325956
Ni 8.548236119525232 3.1813413028063655 0.18459677926708054 -1.2930802849198249 0.3296709611051355 0.29048092116923524
Ni 4.4236031932371755 8.31608334030687 3.0453007135894707 -0.6160458305257972 -0.05726540938037235 0.5179096510729918
Ni 3.5087055483459633 5.743144965066853 6.973632978679606 0.2866119251321322 0.15605490614646025 0.15657992541199486
Ni 1.8218840255562732 4.868218084717541 5.397724801581542 0.469030923094418 -0.21160590393888717 -0.04056866545098175
Ni 1.9640473254338717 2.4669053309610076 0.6062146663554828 -0.2029546560217924 -0.38886058409141416 -0.6156269978208236
Ni 5.801342029845717 1.1755641307966063 8.717212987118794 -0.27457761967541744 -0.3834098453894881 0.7362754994435319
Ni 7.617598834863949 4.6786240388973654 6.945541083286587 1.1460674343709747 -0.0495155902316244 0.8490965346020216
Ni 5.919320254219391 6.461578013366402 8.075491572252163 1.3935970487896645 -0.5408351495209137 -0.8393078306463738
Ni 2.033609349531792 0.16167437468912288 12.323168142383489 -0.5245230426244515 0.32946552996254874 -0.48197719884244095
Ni 1.7735415041091682 5.740345169578204 9.361130952064515 0.07595861491450144 0.41533060535748473 0.3956313271563444
Ni 1.1363946235162599 4.425371485124743 12.831333786529404 0.842225518513801 1.2760593248817957 0.08025569962795856
Ni 7.241514463880421 7.513057786865074 5.317723408449464 -0.602613102059659 -1.4472953096440686 -2.0946702893004505
Ni 3.9856378160423502 6.579252312571899 9.421882830226773 0.7676501571000715 -0.08230049797212922 0.3767036370139061
Ni 5.124850654754422 2.8023189885304722 11.097539247520114 0.6270141566118427 0.22370397275400186 -0.02501940486247304
Ni 7.976184484043418 1.9094973626731164 10.276486326678707 -0.9815607979127353 -0.7018869946613331 1.3281786712848545
P 9.101223358094202 3.9970304049221506 4.820651953927323 0.15834781594569503 1.2548898898930325 -0.03856526186770777
P 4.5922079827460625 5.759225369419425 13.545736602901869 0.6423687846910421 1.2106861987926245 -0.6804437371858927
P 8.137320082298048 7.394619069812347 1.497511140459811 -0.4763238572114054 0.43057981820707136 0.20817682365268017
P 4.889787561804439 4.46471597962313 9.575226892351806 -0.22031191635331734 0.3590931230209945 -1.0810830590797895
P 8.150886196622983 5.218791161281469 11.660715347105839 -0.5003050506173512 -0.7375330259997169 0.7259347796391563
P 2.483823831989457 2.7767340152822233 11.860562722917834 0.5414023348782934 -0.12352608028081953 -0.6078848919815596
P 2.044338828953754 4.550330778512878 1.5374644062799077 -0.2724505460300856 -0.2427288505959368 -1.2804260864909238
P 4.512459860587465 0.8393142185219792 1.5549198417721342 0.4200544931957153 0.11005452815694594 0.8851454578057789
Ni 3.1023115492270916 3.2286246910916456 6.833134820329468 -0.6010928087603905 -0.13132449327931575 0.027949434025074445
Ni 0.12548517602761503 5.405705139709551 1.7418550028634519 -0.427901757154276 -0.5496041539627954 0.20507015970289846
Ni 1.718429740279967 7.629111151840302 5.608949109522249 -0.09108158659886895 -0.20258544560783176 0.3091921244254933
Ni 4.287278940529983 8.617641576112273 7.810618025230929 -1.2097120078048131 -0.8230309478632213 0.8779543393739784
Ni 5.895393054615737 2.58809779423448 0.7612036083300975 1.8265366254781639 -1.3239039551689007 1.3294984185375427
Ni 4.6955977990473015 1.145724205193897 6.237055597839967 0.3023362778459245 2.0313347624665985 -0.022049780711187832
Ni 6.97118684156847 4.1107813065021075 9.934632218499992 -0.030353415480876757 0.35358119206382976 0.5181083973473594
Ni 8.628352635827074 9.04448145018115 3.557657762100136 0.08048581336089364 -1.135978939786721 -0.20852109436597635
Ni 6.608889621395825 9.015359893157765 6.862129281373433 -0.5195006497091955 0.08189349234169767 1.2683660700025963
Ni 6.401999470550374 6.4342063285234214 10.80601698916202 -1.3526882263904445 -0.6211224737177561 -0.20038895217714522
Ni 3.3577560481520115 -0.13355484973536003 4.991491053914981 -1.328001265166726 1.3516042492976463 -1.071460191278045
Ni 7.43946184689864 5.956970135658859 3.044504982240065 -0.2141492391860312 0.0767253178771969 0.4726330386233795
Ni 5.233269051110931 4.669101050294525 1.8548810889665777 0.7804683919106623 -1.716052465982967 0.7249122519119128
Ni 0.7981240693659433 3.1929733478792737 2.947694685337152 0.36271015094829145 0.18164021081473233 -0.8719109613933759
Ni 5.932195629525745 2.2610282640094765 3.469690766605779 -0.011832730968869944 -0.6356155251276085 -0.04080957781719423
Ni 0.6396538027376792 4.206655882281182 10.498562605094007 -1.5574521677068338 -1.918847970719076 0.361635429826874
Ni 1.4124968240235494 7.595071533004619 2.7289348751964027 -0.168427054558568 0.17291594356785706 0.9314427982104216
Ni 4.8422923468867936 7.555809927188463 5.742356601600312 0.24680636309942014 -1.188032980169483 -0.2613145840179242
Ni 8.825314564512116 9.037887195017094 12.910701541735103 -0.8151500024532478 0.12306482437368484 0.3210420817855439
Ni 4.394951338746425 7.838718209492172 11.867154215125815 -1.5123815006204404 -1.7991129820495724 0.5303545617045641
Ni 8.031784370112417 1.731701139290308 2.029859097153575 0.5159088185928792 -0.2816640942085536 0.16825427642612958
Ni 3.9953173721560686 5.12381915115334 11.351305711122562 -1.1032053449001258 0.7915051093407982 1.5889234988422378
Ni 0.34682374517106845 8.051106642925529 8.806999849680773 -1.350075985578578 -0.20355423727900426 0.5971955305885134
Ni 0.6684392001053543 6.125814381360855 7.19701613531806 -0.2464168409704853 -0.1966824498598355 -0.3461746151871135
P 2.2976558517014443 7.319687701076655 8.090615993803018 1.3156566275584438 1.566672143643205 -1.3037771025120384
P 4.56208255168234 3.520484951076168 4.740664375575616 -0.3966227445353363 -1.0524597389161423 0.34481604427669005
P 3.3930850464890465 1.4226000334019975 8.122535504344334 0.6442950551794775 0.8661828006603469 0.6431737970908407
P 0.46501563814782376 0.23081366650767166 10.636714092751683 0.26669127494880523 -0.4624941504171648 -0.4010270442506191
P 0.7285998056677052 0.7721329415747687 1.2438367753931752 -0.9213165084096971 -0.2754852190913514 -0.4125944373732442
P 6.115803270518218 0.2739268330914378 4.725526139244389 0.11589864564254879 -0.40618467719215856 -0.4809695835135329
P 5.754896738236314 5.301652213950473 6.100238617966187 -1.5506996794743486 1.184759965845166 0.5957767958641158
P 8.061928220883301 7.28214833788016 7.402942935478929 -1.300624930036302 -0.49176230325366277 0.38480698284733084
