# total energy = -340857.7542103989 ev
CRYSTAL
PRIMVEC
9.35117176592617 0.00000000000000 0.00000000000000

0.00000000000000 9.35117176592617 0.00000000000000

0.00000000000000 0.00000000000000 13.68638511036226

PRIMCOORD
 96 1
Ni 5.877903552337032 6.609342870476584 8.357495838959112 -1.0273354330446887 -1.3722545785581466 0.5795423362831245
Ni 2.218425275685402 1.491109824372319 9.987064725809411 -1.3975699173944833 1.2175695561760194 -1.5482203646959207
Ni 2.910711236903358 7.135767094957414 12.253612067426081 -0.05827148204738351 -0.9729452883295826 -1.1225978904941245
Ni 4.432764089232104 8.376910742145311 8.540304704606914 -0.17102232608957 1.3882671519363188 0.404010295248659
Ni 0.45350098032470854 7.622140250010206 8.089023692501263 -1.3504086863276485 2.8056679880138002 -2.618908967915264
Ni -0.021871456055390592 0.4703564677503538 10.197493212905417 -2.1281085143542384 1.6613396478211193 -0.46141737241321823
Ni 8.10279048783443 1.8149596110713175 2.5080030172165837 0.9529287359983395 1.7281124824712948 -1.6060768706930726
Ni 7.437940865094612 4.2546990731105305 7.927524277475129 -0.3772996187266921 -0.04061571663883328 0.4753234409713491
Ni 1.1452567300935468 4.722594312405723 9.618860460354616 -3.1311282534716978 -0.518447525854333 1.4577843821008505
Ni 0.48651716310070053 7.982422202595648 13.679624643440627 -1.006089636292035 1.6267752795826886 -0.6491279577917467
Ni 5.310137796700154 7.908987449334293 10.950942384445101 0.7606644698108578 -0.22680163784271906 0.4230786247340198
Ni 7.7400678793720985 6.767985502474405 7.149206599272608 1.166778184555765 1.3503662631254871 -1.4555588352044415
Ni 8.444613227006155 0.7939734102679936 12.65939962803339 0.3409560471006515 -3.7711318803646727 0.3067745161229362
Ni 5.122123133632181 7.4322553525538115 0.23560932290170797 -0.8616255203069677 1.1939580874046665 0.8267389928424278
Ni 1.42169607504607 7.690590828626419 3.2667627193021906 1.1628721646331392 1.0421244184284053 0.9785081271293405
Ni 6.1908124678637675 3.2495135475377825 10.183163477021333 -0.9315777811263891 -1.196294705957643 0.01280152264004247
Ni 5.922424481953397 5.542261937819039 13.168601799148444 2.2619485749665564 -0.49328311077356335 -1.0576145436442044
Ni 3.775498266937334 4.991216077614646 6.682610237760175 -0.2681768583553962 0.48366589939877347 0.4563188748443883
Ni 8.84217830212477 2.377479359248675 0.26324297110782396 0.9607857701489131 1.0087435289751143 2.5758787282976665
Ni 6.262479849628064 5.435789494086226 6.066312834860963 -1.5368383481112242 -0.5901656203249256 -0.5552140439504051
Ni 0.26918657599422624 3.0005572969231076 6.800175976767908 -2.1606525097285307 0.5137601476809927 2.1043931730151697
Ni 2.1993208314076806 0.4464165324613694 2.4134439665380127 -0.8146211265329711 0.7341296567451229 -0.768800982875063
Ni 1.3321492525284677 5.960268674803098 0.6877627993495591 -0.9514374961647937 -0.4368965044537185 0.6773067342188077
Ni 3.9172994382674218 1.4579505686656131 3.5817681675783453 0.683283777737849 0.1907758545674134 0.7144031248504729
P 5.960362186522519 8.913284613572541 6.622089452950868 0.8190915035994989 -0.1807776057041209 0.24883059261830048
P 8.562933605589617 6.5284365308334875 9.156370198441962 -2.7561295149640404 -2.2171465881605172 2.7019201188011723
P 6.930237686841878 7.992437307745642 12.869910405442488 -1.0106132351940014 -0.5023686180145993 -0.9886644988370523
P 6.308225782768844 7.807826471264595 2.221053890118328 1.5325309789851218 -2.9108649309681285 1.5631803284398627
P 7.043218546246396 2.5241150864728317 12.429167228998395 -0.039543566620577064 1.0089147644456558 -0.36986090306045977
P 4.846843334000479 5.155188877619466 4.092078452568539 2.4978254356376657 -3.2006028033237524 1.9507317068015502
P 3.525878083114769 5.6587868913896155 0.8341563312204152 1.1461170566619876 0.4459385600513287 0.7110084973466272
P 5.878445920309675 1.9987662467653435 2.4348628258714053 -1.3355844768306224 0.1615591237941411 1.9616581239060664
Ni 6.904288184702534 4.292365593693332 3.8944339526345857 0.328054508547635 -0.07753444404205358 -0.4723674436668187
Ni 8.161197907784821 4.351549160914917 10.186886178571486 1.2142669741653476 0.6228232584589468 0.21203270706366065
Ni 6.56189502404234 5.844295440377105 10.783352551133076 -0.24195109188964778 0.26620585067195446 -0.3711616241497543
Ni 7.903189722730187 0.9893259379589373 5.8746343826260725 -0.4068179399007832 0.148120481790732 0.9633039085850765
Ni 6.298257433478559 1.2801286830145346 7.966297041698681 0.5166888912920133 -0.10147321424583815 0.3817026328903943
Ni 4.448848104972526 1.1909278538587902 6.360747575098875 -0.13644664499722953 -2.1129994266269416 -1.8794077624455825
Ni 3.7821750037039967 3.2702263933895463 4.995380154480466 -0.15908340856013894 1.842814022481949 -1.3009594305575853
Ni 3.4249695866875083 1.9588647960883794 0.5955247095470187 -0.3367150124361104 -1.4418545982444717 0.18236346213400204
Ni 9.241997009681434 2.900565215346173 4.583023395583827 -3.3145520385494147 0.6853802552555616 -0.06700166283152977
Ni 8.268624171055729 7.739965016480736 11.364339928778897 0.3964584510433301 -0.6919910757038599 -1.3684385472461658
Ni 4.713177682260023 3.791918924867671 13.887985586420234 -0.6433537743121307 -0.11290536734217974 -1.1702527733679267
Ni 6.916145470725124 0.4320652888818201 11.319776918888794 -2.895421342719549 0.28734906040847286 -2.330573889444438
Ni 0.24760781162062354 0.8034957086566397 7.722022922875419 0.5230413158726025 -0.20171409874647195 0.5717179551426992
Ni 0.2000907665140086 5.9761095600730245 4.916683496767288 -2.547610734590909 -1.4845891609985205 -0.7423643859500892
Ni 4.856680766883573 9.173808263879602 2.2912101224967802 -1.2408118145334115 0.4516646639018285 -1.1998546553947596
Ni 2.473871239627899 4.6088653592458355 12.995209563646341 -0.005435054972642252 -1.7232243011410582 -1.8581557950453418
Ni 3.297578571320205 9.060649732208182 10.648829396925528 1.3335288798531744 -0.8858591960433518 1.250478133978582
Ni 0.48291976725457253 5.398515722724993 7.537065157915318 -0.06477303061132715 -0.5772730806329736 -1.09296027013335
Ni 5.961905129892967 7.508673129664698 4.817059851364872 0.34783091984361386 0.2011065470694601 -0.8393631093643416
Ni 3.1454817596818585 4.635057991855673 9.166415227342172 3.7693503629842176 -0.36710210936840004 -0.1753497498203303
Ni 5.833148843422116 2.2873340617267774 5.009148820048022 1.4391834791702116 0.18560665166164808 -0.7412814372985556
Ni 7.4425042370023595 9.00641293494397 0.9022515653028276 2.1452958247668024 0.5940251032803319 1.7321557993027328
Ni 9.140817329267852 0.41716887197804603 3.944525375376862 2.9975378469763405 -0.23227474514214838 0.09133432603962335
Ni 9.366788399248833 4.02627799608072 2.0155665622765304 -1.0719307031565604 1.1191089035042598 0.5383990292755954
P 3.4222109909645875 8.63170212405186 3.9007160699452923 -0.4943082096039681 0.7625835412104415 1.3833774279441853
P 1.786644262430622 8.892169667327266 8.989026300952013 1.4313909797089865 0.8580000077392385 -1.067553400024471
P 5.193528682582098 4.294955868321295 8.267644168236195 0.6412585823459989 0.31344344350267955 0.041378562946786795
P 9.240313798731856 2.5489143944632953 9.452706967052897 0.2372441733322818 0.44246242857727025 -2.18432465653449
P 4.597606548227541 1.1013529778253615 9.59581262686891 1.7168394806606366 -1.4508120645480758 2.7300806403957885
P 8.91411686787539 8.115882128553377 5.447455081084002 0.39482580053591354 -0.09570777251697066 2.352857383432987
P 0.4106314676733201 0.5433264677661858 1.1551540104770712 -0.5341741925609703 -0.29148493695371736 -0.04541545202032178
P 1.1478844094092784 1.321283190731741 5.504240072702438 -0.19755251116961461 -0.7902956624137292 0.6151639421414761
Ni 5.633276894331552 5.397851789517104 1.8685334102448343 -0.7961523783048224 1.811506727728235 0.8712193346429898
Ni 3.7512039222317437 1.979399969673243 11.81596319377763 1.1214298383279526 -0.502935803371979 0.718370337028337
Ni 1.1837929096669637 8.231546774305281 10.903997631061344 0.5488024839971064 -2.2866147102546686 1.8512976344729277
Ni 6.9187637988689135 0.4996471436246109 3.7532995198639694 -2.92868601830995 -2.079597197017412 0.4300391152122529
Ni 6.11656416264345 1.3162896649146567 0.4735938434767107 -1.765966577204591 0.8110231247690678 -2.2440123022031098
Ni 2.1083900354426466 6.686274962044286 5.501790065653607 2.3802969677011783 0.5218159281059336 0.9505098421442018
Ni 4.05856759279681 2.2788151440875195 8.124402916427025 0.7399922861734869 3.61366055348666 1.6948151538707457
Ni 2.403933824672891 6.782068367419216 8.247512030162039 3.073883670026932 -0.5612857040657817 0.09135900862997169
Ni 9.298552897587287 2.6176922640974816 11.582295174171103 0.5325248298830055 1.3772988258502732 -0.10571733423417276
Ni 1.9581073511610687 5.196792241589893 3.13055541902787 -0.7161388765946569 -0.32378313486579074 0.1127575289104058
Ni 2.7608493553591744 7.962008594246031 0.5568576135664124 -0.39916890799595767 0.7609953707877152 3.4910919520231034
Ni 4.176476519814819 7.651054073655197 6.3750221390684985 0.7713643727268651 -1.6265623922409342 -0.804855305395459
Ni 4.6596235205475836 4.5017476846490165 11.489652178623471 -1.0778678945766016 -0.20962846849754221 -0.18060482757168253
Ni 7.913999677495262 6.69228776560306 0.8091840265490223 -0.3051580635654358 -1.4940569912796398 0.6914470302749317
Ni 3.8912751267525425 3.5878202460592763 2.4101588998347507 0.2967040192608116 0.5083880847358019 0.7723043680426311
Ni 2.5304832345654056 2.561201834395222 6.68894752698534 -1.5009999982563762 -0.4953960433515081 -0.5158851644437954
Ni 6.746992121464377 3.511075177930416 1.2446110617440294 1.6293075590862394 0.7121066155068122 -0.2762619493563758
Ni 8.162619285920021 7.552352453806273 3.6470524393749604 -1.5084466843424085 -0.3329702006816975 -2.1579464236512766
Ni 7.302358223106024 8.58902337530809 9.17251967238598 0.0786238204514904 -0.5607380590924278 -0.4074036372009241
Ni 1.295127962809672 0.9556056119357048 12.61913441676788 2.315971823260547 -0.5290759521024565 0.13609980318077206
Ni 2.5300156759683 9.065484288102251 6.614027807619578 -2.0932870357996785 1.0886744982738024 0.6464522107317964
Ni 3.713761829775553 6.563054569363162 3.399382910019519 -0.6461871299958678 2.8230000515343447 -1.3806865113755833
Ni 8.647355985882944 4.4833632806108366 13.32925306287943 -0.2693006875471942 2.048870714467833 -1.4272962408143224
Ni 1.7016888653365934 2.8416715344547927 3.52202727050901 2.5511809684406708 -0.758891437070835 -1.2053966682589112
P 7.338023592893214 3.5160874060913843 5.954727170310206 1.1276855894296771 -0.9448269328268115 -0.9085468674488547
P 0.1480888993439598 6.37744315748431 2.4536540058890663 -1.3137668667348987 -2.673856270685421 -0.8802158817146454
P 3.8698889965209466 6.343965961931572 10.54540075965987 0.23384877449748762 -0.557095320133518 -1.2822307437998304
P 1.564638089353095 2.804949482238144 1.2940002114734541 0.8128159550034323 -0.23953502624898748 -0.04353160473404761
P 1.6372779929993706 4.402821636673482 5.903594962130773 0.4944714746547097 1.4269347437098459 -0.9514372390544776
P 3.972462001553902 -0.10287691812107384 13.145006922104125 0.08645102980539304 1.4703159389089582 -0.8127272519443681
P 0.6018479720142705 6.42097286287481 12.14642051857092 0.5451988258062481 -1.1098272210920177 0.6187670861117022
P 2.300276083694652 3.3040869869919103 11.020906917798742 -0.1330353053228354 2.2394149126404144 0.44053564386820265
