# total energy = -340865.8323548776 ev
CRYSTAL
PRIMVEC
9.29898917844637 0.00000000000000 0.00000000000000
0.00000000000000 9.29898917844637 0.00000000000000
0.00000000000000 0.00000000000000 13.61001061888858
PRIMCOORD
 96 1
Ni 1.5910570604033898 7.379687166529459 7.9445170724672876 0.9695079805132593 -1.213455791117962 -0.01744724894216995
Ni 1.1438779664364778 6.740818708195771 0.25949387437050164 0.08383878899352656 -0.5173702336297541 -0.030448803408160467
Ni 8.21320206781092 9.17412242078488 11.09395547495407 -2.9868063194914494 -0.6121876331219714 -1.2082289955013839
Ni 4.582699984434934 3.555542931044531 3.896641015463402 -0.5672064404255908 -0.5823062721815068 1.4707221732084412
Ni 7.234371861544517 2.8846394547500616 0.7401437502381496 -0.8598234341012224 0.5410063849914553 -0.4444324078194475
Ni 0.046898522375443924 2.574276389595044 1.6140925165695572 -0.3455809474671726 0.30042569108677286 -0.5284313765399221
Ni 0.10491119670059056 1.942456565111652 10.57209340863638 1.2943285555046289 -0.6016661647653573 -1.1034051196157577
Ni 1.1030461046466984 1.599788811307649 5.479607955220673 -0.08500118473274393 0.2729794219503621 0.15441351388829536
Ni 2.64781279657149 8.870603411716694 3.1085126209055938 -1.8491021694835057 -0.30232213677853736 1.1233640792361879
Ni 0.4874381380189891 8.82939029136773 1.3930118368853233 -1.1451896597517115 -0.09789089621121852 0.5830441787887959
Ni 7.31020511886532 4.9982532159679955 5.9838047316631515 -1.5739203405651863 1.9940087723226303 -0.8292082803185268
Ni 7.120152376606264 7.436066938342585 4.854799568630585 -1.7402210928093709 1.241966754073461 -0.28552794803933407
Ni 1.640648570065174 2.2557209149121746 12.760909025805152 -1.915942881257139 -1.17189159452293 -0.33640956538054967
Ni 2.4634975306787052 6.900807818214709 11.052268106153436 0.15834601617348212 1.4316678875194568 -2.6416963981234245
Ni 5.4738407220888075 9.079551700128524 6.518419431836112 -0.9318672873423499 -0.30849972634415906 0.5302931123390093
Ni 9.284399134281804 4.695952374491351 0.2777180334995406 -0.5478169801553855 -0.9200425267932799 1.0838418527718496
Ni 8.898109821913499 6.655546976787828 2.5362119070055917 0.48173834335875737 -0.39554493809012525 -1.7311913785069348
Ni 4.071348565664728 0.5525673288159458 9.40855923872661 0.4987143090914637 0.3304356071853019 0.4271612794438256
Ni 1.5444319283118493 5.162622149922936 12.02909902973143 -1.6564779488534438 -2.331495629927759 -0.10559957770938588
Ni 1.9910251859561108 3.162651336309852 3.3245309308429922 -0.142899856821741 0.28259354800135844 -0.15014959640561884
Ni 2.5214395326855636 2.866469229758663 7.6807819291005845 2.270801911592128 -0.3399098652243243 -0.31405228073127206
Ni 3.9259681677550455 9.144309861254468 1.3426447915202213 1.2933358525740564 0.9145308529464314 -1.7552761873702802
Ni 8.3190524624256 4.124222618531201 9.72265119857024 -0.16923695205437306 -0.8024261271286761 1.5316796867284201
Ni 7.853796133359773 8.811387448182803 6.747951962848227 0.6007644788866945 1.2560072913269271 -0.16518669324439939
P 8.893134862665597 7.070449279073499 11.790719440348376 0.6339548495957339 2.508147129278648 0.7788187721223813
P 5.122171546692341 7.066608796513905 0.0715157366127665 0.37682010798711235 0.4299948922378788 0.1076034955132921
P 2.311719428166115 1.8246941652697555 9.529593022986097 -1.0825043649073487 0.13396553044658865 1.4623486044327654
P 2.190004957893643 8.524932084385453 13.914466310150303 1.670111994697111 1.3499623428188492 -1.666653860945181
P 0.6666305907348241 0.9914489346764992 2.967812404284638 1.3437065917171247 0.1549436753601525 -0.0083573708257598
P 2.5277907423422294 3.6478261003457777 5.590230591117638 -0.09099982551834004 -0.012389889023920598 -0.8881595620417542
P 9.064366450685867 5.5618091603787905 8.093587309310738 -0.12350474012458085 1.0466192209749654 -0.5812660038424505
P 2.8839234325779337 5.485864315187005 9.097584300079046 -1.675605156601198 2.212387476208977 0.03131320829098478
Ni 7.2688246167098844 2.2210728809725895 11.696062239092008 -1.927743730546809 -0.1804934988047988 -1.2558635666602114
Ni 1.2775881328394023 4.07584927646096 9.585611994016386 2.236770533039032 -0.8885711956578762 0.5413899935831192
Ni 8.26673634891403 5.161115713664693 11.663956548812939 -1.1626171111995396 -1.1934852615333058 1.9128992093348087
Ni 5.874227302157707 3.9805811316109727 12.648408923978932 -1.2242140580757304 0.4585194820401329 -0.38141672621885925
Ni 0.5095576437441881 1.081444552622636 8.109769410400826 0.558053313171413 1.0438763681225052 -1.120980923715992
Ni 4.459460479925723 6.086021081279552 5.939517365468662 0.9325851393449809 -0.4579060168258501 -0.16449635204559412
Ni 9.074409359074151 8.244307186846859 8.936536965083638 -2.1770661751998635 -0.4157880046098775 -0.07449231478162009
Ni 4.548117043420088 4.40037470224131 8.742335943720866 2.959449524745051 -0.8042323270994794 -1.6320658385576665
Ni 6.12569056941328 1.7614424404020532 8.911685416317257 -1.1662066283230108 2.0127176615860436 0.6511146492044722
Ni 0.28453977201217606 4.104936514829994 4.902815829513687 0.134072231227782 -0.5436746758522378 0.49776377225273627
Ni 0.4049216971253506 6.25778271168698 10.0305639800583 0.6396837816597112 0.15717230758035514 -0.33571202509289283
Ni 6.001809434645928 5.489946571467058 3.6856860051717644 0.08332893923664358 0.40538197878520504 -0.29432060663029963
Ni 6.474095799583553 8.619158742439618 8.812672568496934 -1.34563749019125 -1.128277200267089 -1.0976268223710839
Ni 5.340902371793502 7.824569410152014 10.540273197327238 -0.21201548067248 1.097459186444968 0.6897804412057862
Ni 3.102589164754355 5.387341524100073 4.079940831730261 -0.5297025299428619 -0.620148539840261 -0.6315644949866865
Ni 3.8289146169693637 3.148172810050074 1.2781200350244113 -2.0386276965835854 -0.10760195285139533 -1.5825852153290356
Ni 4.024974506282894 7.736229012292093 8.603010117710825 -0.3688897973964421 -1.863057089001701 -0.8210265158386828
Ni 8.950835090951998 6.796798623471214 6.155549623889932 1.50144737020644 0.13417378980265277 2.0810935790572804
Ni 3.8914038247186964 5.931202209282731 1.6338547285202838 -0.15174445169656445 -0.4127780141389601 0.3454660191558631
Ni 8.12386667810142 3.8966112586978072 2.8806129924054993 -1.3474681156420858 1.731502224879134 0.7633559006000917
Ni 6.783724244587947 2.9041859301502244 5.245760693197293 -0.5241682303881939 -0.7048514766062957 0.04517916763979961
Ni 5.865225880565244 7.985953368558213 1.9105870691594926 0.07239686570517209 -0.8132553565336962 0.06983733250811199
Ni 7.826447805980192 8.791496910180449 2.855216522869159 -1.1465932249674575 1.2906372226959708 -0.6662628176998202
Ni 0.272466894270962 8.711730180407566 4.300682098306928 0.3743135395151747 -0.4833198289132644 1.301688852524442
P 5.786203069932234 6.831046800873118 7.373522866556686 -0.04665729484722287 1.1027751993412427 -1.2215012871302575
P 7.870664499856394 0.741518140849065 8.906146008421976 2.665114262826733 0.9664985042629742 1.1174042621083273
P 3.7643145386606416 1.586286678918954 2.826159971164645 -0.04125797820852249 -0.5973371983727002 0.09490841654412688
P 5.401038935262985 4.027327150562742 2.065073967240145 4.32873602181381 2.709986954969707 -0.648836651803573
P 5.705218172567809 0.7977398298449674 11.582241680792514 -0.9713764011805658 -2.1602920410653184 -2.0550282494287964
P 8.338254875223573 5.787886186986197 4.325642445247517 -0.18971527451338294 -0.8943777750373241 -1.1487305830254344
P 6.6153567452561886 0.6642984042313222 4.801135101677995 0.5128980567910135 -0.801220279746033 0.5488112257478548
P 4.2117912002835025 7.103200319206408 3.4751252720242594 0.6329210090145809 0.8860610276415127 0.7791033932423357
Ni 3.5566309127865954 5.976134925331061 12.720705775688566 1.433359416289267 -0.6847403076787174 1.4556843050387123
Ni 1.9738964477605347 1.6247287004718916 1.3799058414386105 2.3200063983412367 -2.2324793618628456 -0.38500444357011754
Ni 4.745190522561696 3.6313761883653357 6.58764017790237 0.1550894569093974 0.1918163800167858 -1.4743325162675192
Ni 1.7218287462038155 8.995814301946568 9.769088491078964 1.3080916707269923 0.25668222745223535 1.1452832479067825
Ni 0.5365944549839476 3.726300270613131 7.371331094790836 -0.3917479329415382 -0.23213693401270347 -1.2066930184728313
Ni 8.343090349632746 1.6470462746680818 4.001873957191988 -0.11878239494824704 1.1318222373058702 0.8034316855750551
Ni 3.4575129863877656 1.6868831446082813 4.926810011471366 0.12704129252292962 -0.21956192556117024 1.4324541308661782
Ni 3.079211505783846 7.9323911904873565 5.476927056620355 -0.6321481354042985 -0.3817990492589424 -0.3181233654768521
Ni 6.141517449114078 2.085465720762989 2.8125769375694887 0.06503168358935252 -1.4030273409646288 0.0667797766287108
Ni 3.7626686175636723 8.681248093651268 11.875728010360588 -0.7697754309731905 0.8786485372275255 1.6488111763368056
Ni 6.56649055675578 6.267146793860132 9.153289895171662 1.2210783406602261 -1.7395932294173848 1.4474485473924814
Ni 5.129052798736167 1.6260026619989243 13.370066283591239 0.7945714069709477 0.1671985814681056 1.8376165374414093
Ni 3.751881790035514 1.8421576670782742 11.500962935367838 -0.9456188326004876 0.6432141634104729 -0.9743889627546445
Ni 4.769572472371033 9.122819897101389 4.217960149750899 0.605100387257887 -0.2515806445596119 -1.554306937209633
Ni 6.13312976081201 6.289808430658513 11.931175093552097 0.37853323402347716 -0.5204414163559102 0.28787510811527195
Ni 8.531190304149636 0.8876675651695908 13.355203709075502 -0.3626170770138529 1.9229319109804626 0.8363104385809469
Ni 2.0545093855550234 5.5992840870498926 6.451158912703419 0.5141165025791468 -0.7203788828179335 0.37640410349561626
Ni 3.8065226508591863 4.398403316520645 10.804374720870328 -0.29838809183145387 -0.09561058481747405 2.088336890883255
Ni 1.2212083610262767 6.583554202026618 4.445519435244503 -0.337631867823425 -0.12154684506726164 -1.4395082094994822
Ni 2.825098026592476 0.0987682844030892 7.242825572670249 0.6065926555326973 1.7069139940168088 0.41365681719948755
Ni 7.92493340111013 7.8552374766932775 -0.0694736785738151 0.21539622421925486 0.6082859840747201 0.17939563775492975
Ni 7.593638311156936 3.91416775039881 7.78408254086335 -2.797907884452407 -2.196469262316824 -1.2758567219526866
Ni 0.7535668412182331 9.105021631679927 12.167362911169302 3.7539648816670828 -1.4825654457002726 0.7414017649265039
Ni 6.984656804267646 6.014223585292559 0.7082463573182449 -0.38240248717089625 -2.0615035727404947 0.7704362044856409
P 8.959111191383085 3.0646399896315835 12.357086469208964 1.7061537188120166 1.4703110538129516 1.8905946323003375
P 4.564111304927358 1.688659251554728 7.383254258805151 -0.33579892837974423 -0.7979981732643096 0.11253410004569005
P 6.849430902617229 0.6853262086187576 1.1517486309363343 -0.26587854923952275 -0.6803239237785766 -0.2082958657290477
P 3.0902494060217114 3.6434369774205266 12.754444368479655 2.08673535072409 1.5487662098970618 0.15605824858056994
P 8.531943522278757 2.1809570413549375 6.489239203574592 -0.729957270534988 0.9340982335553977 -0.44292342737408874
P 1.5772294633910005 5.341534703062393 2.0777038544373387 -0.3179539297785233 -0.1774194878651654 0.2102769007148185
P 6.292272662809342 4.329293228426444 10.430480961170158 -1.4148891253992213 -0.03701282977892335 0.7656369833247846
P 0.9475205094669982 8.775679329468899 6.387354827874361 -0.4356965706083464 -0.5428372675526071 -0.18775403702195406
