# total energy = -340866.5274227388 ev
CRYSTAL
PRIMVEC
9.36725878928745 0.00000000000000 0.00000000000000
0.00000000000000 9.36725878928745 0.00000000000000
0.00000000000000 0.00000000000000 13.70993009515177
PRIMCOORD
 96 1
Ni 8.126940174418866 3.194019847915284 5.495790485028545 -0.05227361259273578 0.3373230783337545 1.2328725050816767
Ni 8.748326662748896 7.056477925762168 2.2631662896140785 -0.3214496016366077 -0.9514632071964065 1.373831436126963
Ni 3.252499645410526 4.1321695641964755 7.899949945867856 -0.21116393130546213 -1.1829879615464078 0.4148061003125824
Ni 3.637362845777259 0.7235467509382075 11.449587475046895 0.7235050871517411 0.05828382334255769 0.21174448639928048
Ni 6.056391893440846 1.4522717226124988 4.0899325936845345 -0.1307249120221039 -0.9151324910861722 -0.4851152302507903
Ni 2.3646895786150686 3.078802563085639 12.123746290006581 0.10457396465834895 -0.45362898671705104 0.25284896974907417
Ni 1.384256055527291 5.153238256519294 12.52637918056208 -0.8263191316961898 1.2013500089933633 0.048434441352303674
Ni 8.047037455752454 7.935716950637373 7.2239954273714355 -0.7202670398304176 0.707381442117001 0.8805992331959931
Ni 4.848521323551134 8.049688390029429 2.444877998678823 0.09172513372013881 0.6308188750699136 -1.4834972134859223
Ni 2.161157776600554 3.91669450704718 5.736276123518909 0.018826388677883703 -0.23605940899556122 -0.47830874885191826
Ni 6.60713988218548 3.13926821947388 10.293648988660888 -0.5465581680476199 0.007955507401650816 1.1442712617025004
Ni 8.457136051674556 5.54901431353859 0.17916381463599154 1.3120275154462888 1.386726032701444 -0.971607029134133
Ni 2.0979475133460457 7.965280019818051 0.994422587572704 0.5811580175096765 1.1124631160529679 0.30632251618718215
Ni 1.8239926587015085 8.651038311509815 12.323842181445851 1.4651323378254897 0.892845654663514 0.06754365137792884
Ni 1.5353499420559236 1.156865845020003 0.5164169847689716 0.2988678596813498 -0.18350888859235492 -0.6141897511536648
Ni 5.27435691447436 5.195728143022324 6.47987536564694 -1.776419654217115 -0.6674843488117472 -0.029529891138316885
Ni 1.8037406448964928 5.2776541896174525 3.5103999549762404 0.5213922103049536 -0.16766986467756928 0.6254056744741423
Ni 7.455354545487043 1.1727901851997102 7.311395700084812 0.10706150696689302 -0.19467493251150345 -0.5266400889674543
Ni 6.344978406532856 6.7567818435800815 4.055808606131208 0.011060885799851919 0.5364437053214374 -0.051701799249665795
Ni 5.370202707838338 4.724030452381542 8.666581404251101 -1.1997266144573273 0.7242591917089461 1.7308273102992966
Ni 7.341242597211048 5.786230778662651 6.085920303763488 2.224228434707963 -0.09691619100277503 0.8159611855006335
Ni 0.7758863102053332 7.171882555770399 10.461499027962143 1.274254410462573 -0.6477002242062846 2.2985968223172093
Ni 3.6472265694297485 1.8293132617733163 4.511745883623545 -0.33324865115406477 1.3262436590456708 1.7044701604620065
Ni 4.620709586392031 5.7413616083915935 2.973436824471875 -1.22887623943809 -1.4332010363345318 -0.37257727355035836
P 2.8568172609805225 7.171723312368601 2.9336784306726114 -0.21757806236192206 -0.21335399697824547 0.5395894500392707
P 4.756206986803479 2.7032878871302874 9.315431759035768 -1.3340888661217025 -0.1387578096289094 -0.41147677882903333
P 5.6711540027169445 6.723453136309846 0.6632234768856913 0.18081745780312086 1.1961723214471658 0.0988198357833911
P 7.285039043635611 4.082279543139346 12.617276251033742 -0.5401314385856697 1.2010188509061897 -3.3374405131118134
P 9.024351681616794 4.8519497403192355 2.3415599428669904 -0.2550428920765995 0.2501655093796401 -0.21043142401481177
P 1.5447265682440923 1.4223245958157202 11.112679956768405 -1.0045942826934313 -0.6499589383334743 -1.2164069033264857
P 8.570152030655832 1.3366610129078251 13.733648372428535 0.4133505988129784 -0.44876831619064006 -0.2439994897782443
P 3.137432236723749 8.054643670002996 10.510073885865607 -0.07193098181234708 -0.9540926743994534 1.9869333535330878
Ni 4.555841318307047 2.5549573419857805 13.429507525884524 -1.2031055582318892 -2.4211448549554757 0.2003197895021066
Ni 7.133654772080172 7.470004938452374 12.785867240516302 0.7030630172473052 -0.00156940136964891 -0.7015504372575208
Ni 6.800292761306398 5.622247543847385 11.233752715154717 -0.18236269080305367 0.08729126631850127 0.8113581395109833
Ni 0.24978076952584907 4.887891912830727 10.38383227400214 -0.08107768130862165 -0.09913736702380992 -0.06679828857147205
Ni 1.7620282408845893 3.3029985382980565 9.782021483382435 0.6007606222319525 -0.7093514213591784 -0.25988556488088144
Ni 1.7362682788291808 5.696848393959847 1.2608489762158115 -0.5536896368860788 0.3121581490323527 -0.8211247319794439
Ni 8.06237165861962 0.7694360157066589 9.60427212484476 -1.5173074771671482 1.171945073468685 -0.05266236339072221
Ni 2.5226309314209754 6.0517551002708725 9.316884620895692 -0.4962961865682743 -1.026120329690665 0.5459765845125372
Ni 5.3492106805779125 3.385018257482477 2.441724979323241 -0.2434803840499807 0.13872052863307077 0.8463194860775166
Ni 0.4602499635033589 3.3594362733467245 3.8474180069100967 0.5318285751469293 -0.4771149856541332 0.1678830091296399
Ni 8.549534693752575 7.410813229278509 4.850313280184298 0.5554564989785142 0.5094926306538903 -0.07862870554749683
Ni 2.9508458061122282 8.500609500365158 6.564711819591382 2.530977754019918 -0.6625082357533945 -0.49602236408159733
Ni 5.588019579719943 7.712392130505374 6.438717503363648 0.48302646604256166 0.9918876337600402 -0.18743187779584494
Ni 7.893657958045087 7.851570863676013 10.073110928060338 -1.5108804905948818 -0.9503869434130922 -0.0873336895206625
Ni 3.474934575944247 6.77722120256368 12.855198070755174 0.29442139387422195 -0.04504289917225146 -0.2455722335820029
Ni 4.396401204072462 8.804633256172554 4.625305163622715 0.9013040698435122 1.1533907075052652 0.26789300856639026
Ni 3.830094198246361 6.5390961133234855 5.1202205422455105 -0.3393866457310026 -0.7998467964372741 0.05747649694991392
Ni 5.711217769157301 2.5772139492016537 6.149794705676078 -1.8148710162147776 -0.6373574475193798 -0.581303027727973
Ni 6.746121902918606 5.310720613637668 1.9509780309239573 1.0623150344436671 0.8282981097994316 1.4858479731062861
Ni 7.5686047059415476 2.970882372961871 3.0873670479246424 0.351064339179247 0.6417553194767592 0.20292688810765053
Ni 0.8156044247912013 1.0216681968942898 8.73529586885243 -0.4189748869782913 1.2881527657112202 0.21151128734255187
Ni 6.311818309923348 4.448548734531538 4.446363353023346 0.06993760553140213 -0.7838825597985338 -0.39434551846538535
Ni 9.200221968013265 1.6528528380643033 2.1199118620833266 0.03737458399371628 -1.7318945752215464 0.4432625558810624
Ni 2.563237998879228 1.7057403819787895 7.292983415933499 0.8503795150795032 -0.06505508062812021 -0.3391259358704482
P 0.38015240585121807 8.207273786996025 8.813167765782984 -3.181889286074649 1.5554122544586697 -2.9322130576266017
P 6.0411700976808325 1.6834369384682704 1.4148232948651853 0.5593771741891592 -0.9366989044030384 -0.31081474763058087
P 4.626208167383494 0.6271145671652589 6.834797996298144 -0.3756687679914885 0.18352251543910975 -2.694392700075876
P 6.381061087928285 6.773998865492024 8.267403158788705 0.4333818064322407 0.3561877764487414 0.2036930768497137
P 2.647946121376341 6.0219859513937495 7.103909978076264 0.5854409611557466 1.0833224899332696 -0.60441081739003
P 6.297411465690177 0.0029750414359264537 11.403289797789128 0.5339589912263708 -1.8008837007967502 -1.4477907612232486
P 0.13790010232679878 5.037196652903876 5.59936895063861 -0.26720626691201077 -0.021041394051331503 -0.7511914973234161
P 0.7533814706278353 1.8991087080550797 6.110365102665231 -0.7069762362587825 0.2446096125584174 -0.21557594433022872
Ni 4.2858675487074365 7.333074347424751 8.563277399327664 0.7363888850929448 -0.4347758585662899 -1.2530695488548418
Ni 2.380632653312634 -0.014952955428744955 3.431458317075968 -1.421466521506423 -1.0082827872886118 -0.2234625461671571
Ni 9.032032833938771 0.21747309347890215 11.635837621062857 -0.2013934821822596 0.02830193226848674 1.2591196117036638
Ni 8.77092985854515 2.7907312492347383 11.66136527509682 0.9134371056616203 -0.27362194063036743 -0.02602239220569067
Ni 5.442349336111341 4.504040376428352 0.16421741628849706 0.994458736921326 1.9712156856875145 -0.30877920525779085
Ni 8.497340326998854 1.1131207458204548 4.477471083201459 0.2558342776296432 -0.9981757807615971 0.5039153936764289
Ni 7.032123052546146 3.5923437993633343 7.603472453853857 1.3448705301182389 -0.6000047179025345 -0.06891147825973294
Ni -0.21245598959640152 8.473397613175717 0.6246603453257982 0.6141373006491746 1.6869856305239979 -1.4104930532140545
Ni 6.555807303253248 1.796125063387021 12.41164056266372 0.757917760303656 0.31669203234696425 1.149543565845033
Ni 0.8614627776051861 8.993514665221738 6.393845522914912 -2.158730867225785 1.244196157624612 0.36979688259174376
Ni 5.122120222356361 0.41910240520488873 8.76968026620399 0.7550157561655125 0.3967988651018844 1.9855004777413032
Ni 3.3936736047330944 4.0048591480891815 1.5165236250599379 -1.163289968896848 -0.2607499697637058 -0.11343578592435304
Ni 0.4895816613884864 3.663937759359512 7.656241970305834 -0.037258370130826154 -0.41018119994606134 -0.5568364100451765
Ni 0.7205998112790688 3.5269041284836677 0.9255900955088665 -0.149418117556233 0.6605773372792688 -1.7256370243476087
Ni 6.934263298512381 8.805270229779742 1.1405686879349122 -0.7451432342468071 0.9718582259129908 0.5314295399362977
Ni 7.597521434256111 3.4727988409083803 0.7428002149413664 0.258081164682291 -3.1560502135243578 2.0623360959441195
Ni 5.097690411068903 7.428030251190451 10.766504472505325 1.5397274967335612 0.270298018463457 1.0815509998551438
Ni 4.56320398382543 4.6500478413584085 11.13704232379157 -0.3662521026632789 -0.41107825783903396 0.13992534757444935
Ni 2.386065663491593 8.705059293754738 8.763318960665144 0.3856788439293229 0.969523407132227 -0.8498845777209556
Ni 5.08874467879148 8.653211515581399 13.178890260136296 1.0884556973947772 -0.2319279033256909 -0.43064332445515513
Ni 1.5491291799408347 7.006147643535365 5.1744429205574125 -0.44928176549194876 0.17740611812872673 -0.31619375255430704
Ni 4.078429599719429 1.2317477129003434 2.3811815746858875 -0.27980801483642137 -0.00981544342852503 -1.912940861206022
Ni 0.45194776191437397 6.371843705141914 7.300825685109058 0.31973236183518483 -0.1827383289749175 0.8329862593037203
Ni 7.538816822546567 5.1561421067873585 9.179717038217161 1.6303542551831989 2.421210160975772 -0.35970530268369666
P 0.3188746081138123 7.265845530089599 12.6085843714733 -1.752940597258568 -1.7885935705754874 0.7975001505819685
P 6.803318385940543 8.729067578390378 4.529089363531032 -0.6974040191893152 1.357003823046663 0.7374222114534655
P 3.4805080950071443 0.23955827985637004 0.26079572930074174 -1.115352264675305 0.8355229096826449 0.4480887736251122
P 0.11999365015766461 8.843039017782436 3.3762757947238184 0.8665108734237271 0.1022424883116949 -0.6253534810799682
P 1.9560803768627142 2.5669942697098533 2.3130572473971007 1.1364479090033395 -1.4195150542070067 1.3540899918339777
P 4.211650756211072 4.152711963028297 4.678280759771136 -0.4252609770973192 -0.36378410073876055 -0.13519606041958007
P 8.466419005273433 3.2442096212581495 9.318996001058343 1.857210143302621 -1.6487821228710833 -0.21376074549836088
P 3.4831777638019776 4.620241223445568 13.108859695655406 -1.2397424927286327 0.3770432797415119 -0.2001308134197521
