# total energy = -340855.7795417695 ev
CRYSTAL
PRIMVEC
9.49465732266484 0.00000000000000 0.00000000000000

0.00000000000000 9.49465732266484 0.00000000000000

0.00000000000000 0.00000000000000 13.89639072638411

PRIMCOORD
 96 1
Ni 3.458144075904238 5.585963235803945 0.4151377488166047 2.3701765914377244 -1.4624946430923265 -1.60204049584017
Ni 8.180872060780002 3.856492422245906 9.293920290036414 -0.7458713706620831 -0.34447794421098094 -0.22077497203266497
Ni 9.249011510549787 1.2999799913255192 3.430379799074961 -1.0765741154658426 -0.7081283475853546 -0.8918125854133092
Ni 7.872542560146006 6.8284720665906455 12.117624719977295 0.46156341107277926 0.5959847981098639 -0.9298844525843663
Ni 3.2694282677315054 8.969783134490626 13.346024490040275 0.9501552870182604 -0.6045972223692233 -0.5017412688432457
Ni 6.109375207887775 6.727857183354257 2.787379770104532 -0.9305449689865006 0.3784018506519354 0.5796449232992598
Ni 9.07336035079956 8.04940903602856 5.483863388168371 -0.5136603888783348 0.6797189432047261 -0.02653455595541882
Ni 8.770841580423244 7.750441267476388 8.551811230474808 -0.12726574982890987 0.33178929299971893 1.7313567004402055
Ni 1.1152994124984 4.428441082364503 0.6169704260269017 -0.7946678233394959 -0.08904835821892405 -1.2939061232552296
Ni 8.658728667216181 3.6150053088898346 11.708848391540833 2.474098010113739 -0.008428847493643548 0.6932830550424061
Ni 4.46167238285779 2.805414871615103 1.0579630760930117 0.55726321316995 -1.1311406378578133 0.27544073900666116
Ni 7.712063862735284 8.678980771202518 3.319638863845405 -0.17103646715695706 -0.09218716095822188 1.0616738013152425
Ni 0.9886691683044105 0.6016859267314465 5.138385091445794 -0.9603630807891975 -0.011764082514463611 0.17970031347954213
Ni 8.381722040961426 4.3439291378814335 0.35130611736337153 -2.1149547505811 -2.9666480993760196 -0.7583713029013068
Ni 0.8610467324242644 6.331151412722686 11.00584402746827 0.01256780936268158 -0.106233611748959 0.4643155198966197
Ni 9.43397692909542 5.712840341087312 7.842386579146941 -0.6667950360542065 -0.3820703006424581 -1.1971218298446287
Ni 5.1258901224603175 3.8694716187528555 6.624673045856874 0.7148859780241623 0.021079446378118535 0.3456634798786498
Ni 5.696623466446589 9.167575835026668 1.991922130196732 0.6811284219577431 -0.41842852755651805 -1.5552471896357152
Ni 4.7637543989990485 1.4882210666340616 3.139639151059197 2.101145355501833 0.5118184505735895 0.4383157533987484
Ni 4.067026952856802 3.9340827615690883 4.135302083918852 0.6873890581554742 0.37333163521787965 -0.8018514855721287
Ni 6.462785341305236 7.296596649310931 7.6742257545279 1.296096188928013 -1.2180884047939666 -0.005372062945190748
Ni 7.143742161699096 8.49483189318329 10.48135251285127 0.8384408546603883 0.794581948493909 -0.3266452869049343
Ni 3.2300349346610355 7.094037630818423 6.4914212276731655 -0.257233471970015 0.5594669056894881 1.6190504001346053
Ni 8.150593598701978 6.1348303840656335 1.775305322129836 0.8606364169208209 0.8742072136267202 0.21513911390312626
P 3.103119850748532 1.2410466535649962 10.537771665363044 -0.108097147320259 0.4274268744003864 -0.5101701163368891
P 1.1744131487473148 6.489474822929987 5.811693015931828 -0.23975716956212256 -1.0135939150888802 -0.7963351837395899
P 8.889724184273657 1.6725598377989643 0.22397231906465281 1.9451976643571987 -0.602427468411414 -1.269383198413201
P 3.191989842924864 9.375461356255386 5.517784000780461 0.49313784344495076 0.0818739519576719 -0.42887183437702914
P 2.9800785870078177 4.090421788404075 5.951059393406301 1.433035971511577 -0.4211287000965005 0.3169460573392993
P 0.8951572381820305 8.234478895804317 7.281764095702185 0.4167313423597533 1.1010214498749296 -0.522936671973938
P 2.7660974958029034 3.3523071311617625 13.737360082512131 -0.5316270006590844 -0.2207700869366585 0.15023855657499932
P 8.731894496245113 1.194893124508463 6.377247973835517 0.16622079093586856 -1.4102179451757972 1.2789857544999714
Ni 1.4452387531103166 8.861857365145715 0.7218977826015898 -1.617332389002234 1.1683427008294072 1.5438983402817992
Ni 1.729347383013349 6.772444093958964 13.740834177612273 -1.010512447950079 0.6721994948992295 -2.1044124562888786
Ni 8.379443323213316 5.775998801339125 5.450442194529409 -0.9005111416285718 -1.0098375333702416 0.9164082724748023
Ni 5.392319700500922 1.0974874354339983 10.54594276742148 -0.9411960209424436 -0.2879758953591944 0.7063085207677965
Ni 3.170275561716822 6.3952783280174454 4.288954122742525 -0.5942019951778283 -0.7561521837628009 -0.986462863200043
Ni 3.8214476422114143 2.1116402638881175 5.663877342940505 0.6136973848982785 -1.734075127812633 -0.4950597430580119
Ni 2.6247885114481653 1.7372944111598865 3.4751955309202076 -1.643939450066801 0.3003501006538311 1.0866811219928574
Ni 1.9204558448215983 4.573509951003625 7.737927309176344 1.5163764807124467 -0.07746682402891175 1.6604356479496114
Ni 6.4968426769822125 1.1440682240683024 5.177503079455033 -0.19633509382274572 -0.43883897289207 1.9675899160094694
Ni 2.122995873999538 3.65853831253604 11.733236368239991 0.3266740832603406 1.6510441794323825 0.2149149137074621
Ni 8.395280411562688 3.792337022979295 2.682336578710982 0.40900851979419883 -0.6510364876683691 -0.434466040635355
Ni 3.523676200476999 7.650585956822703 1.8020565190269318 0.6304386089123594 0.7049975152658567 -0.9057577347394917
Ni 2.0338220527901245 0.9679423314538834 7.011534755816606 -1.9105857307102838 1.108803922033826 0.9655752211177564
Ni 8.522812648198638 2.814605699865818 5.179295670750214 -0.8153173812690474 1.642585507142068 -0.19306362216032555
Ni 6.474710630853684 5.787325927478694 13.592170631725507 -1.2338672648947782 -0.32703300926165607 0.6287589072170914
Ni 6.237515102589889 4.503971081057101 1.862519446075874 -0.8080015643339246 -0.3262182266698446 -1.0278167435564813
Ni 1.075659218338551 2.3336538351551233 10.285552740879098 1.4485376666916019 1.2560610273829982 -0.7194846531384383
Ni 5.477230420589911 7.456951916176965 12.030439080003108 -0.6684865648240165 -0.6349658073587516 -1.5070991691755786
Ni 7.508223065509465 9.373438994253936 7.66662528137222 -0.4308801230563095 1.9244061815331437 -0.4969988690622537
Ni 5.128928412791132 0.8638039808994789 13.581400841968495 2.880999253756948 -1.9023515157259498 1.9511255998058592
Ni 5.210345098999684 8.857100541846533 6.44525725449362 0.6712286463455278 -0.6539580321905383 -1.6380323405537467
Ni 3.9042220644115493 2.046981647785466 12.427013824364163 -1.8297265931703715 1.544323857854992 -1.8928338060435013
Ni 4.3484770787203715 8.526050326332413 3.814850754330633 1.4159697600579098 0.326542956999115 1.4171488679676754
Ni 8.974388043273267 1.0872427002247822 9.667399280554635 -2.4907363900013686 -1.0295928616202976 -0.8824812807100544
P 2.904282737911273 6.193089601159007 11.885568649701218 0.28954683939074005 0.8009408008324013 0.6208126557868212
P 7.087733178381983 1.6310017228677884 3.3258929945982416 -0.20361388687234613 0.9448768122281406 -2.214358741002735
P 4.613302059680014 6.532419157824598 8.189351739200161 -1.543728390362838 -0.5048265926367886 0.46632792234095816
P 6.808295919862578 7.13744720391994 4.884747665163648 1.5992158819071811 2.118703161879938 -1.0709331151299815
P 5.72954144324951 3.41770633053255 13.414574966163554 1.5250277286295415 0.9578197455420538 -1.1684715130977874
P 6.963163274818577 1.519885748675522 9.278217076354744 -0.28374411666603394 0.24761600348490906 -0.875340555900215
P -0.020911982667561047 7.905612451465468 2.142989723307756 1.8832785582548985 -1.1386492875300325 1.702284208554281
P 0.9840072915780665 9.338755011196229 10.330938152161373 1.309530460056048 -0.5905438295999507 0.4908727015598578
Ni 5.515313490955218 1.4820970126860131 7.496060409528921 1.0491905812465672 0.1002722519592015 0.6204596433227766
Ni 0.8842004036765297 4.149915310944342 5.754189573558245 -0.8509767823438699 0.31573686752254654 -0.997167651212057
Ni 3.5771216263274876 2.493990112706589 8.034267906058092 -1.3697698644630798 0.23549170941754927 -0.2551832743092057
Ni 0.3376869809554943 2.611657400424675 7.783674466901131 -0.32480103460734383 -0.08063622289582888 -0.37158739883326325
Ni 0.38259765937357854 5.453246916291041 3.729443463665701 0.32632004235503154 -0.012506617107442978 -0.25534062582267636
Ni 3.607248173888973 9.388592467278874 7.895817763011504 1.34516132188578 -0.7665142437234154 2.142974375722477
Ni 6.561985520606338 3.622458614857614 11.25026783832222 -1.7644485978981674 -1.0545580162060677 0.24494411307970074
Ni 2.064926550051841 8.611046498336956 3.747898229028216 -1.1112084177102604 -0.5928454811499337 -1.3686403788443269
Ni 6.586491231055817 3.797891397490316 4.070822916838864 -1.164239477294311 -0.06566391785671272 1.2087727838199955
Ni 1.8152740314317044 6.103621445573795 2.0453400215410977 -0.9877443010156279 1.5487129880616233 1.4421698154920453
Ni 3.0537761168446433 5.52277629158028 9.824678278460718 0.0798353242610883 0.37718803284949237 -0.5695903672767352
Ni 1.2319887505162548 1.768854651971225 1.7096174851776207 -0.4268378346661359 0.4503361748983921 -2.6758846139693593
Ni 0.5570202104712844 8.295092787904071 12.157035143430877 -0.49150904959227604 0.9561040484025277 0.7415909981191744
Ni 2.0693605550033736 7.882910725899912 8.991381580879805 0.23968389312202598 -0.5475935512906698 0.601539666489822
Ni 0.9635652944460535 1.2647548128026354 12.599231716040572 0.02051868877864208 0.28344175493426665 0.33664816375391704
Ni 5.06384253711071 8.17265918222952 9.63600709517722 -1.053982603318572 -0.16716232891353147 -0.6248896540696722
Ni 5.751141788570147 5.030051051837679 9.46035688489272 0.38370397959113917 0.9898693177784307 -0.5387818665363109
Ni 8.14192497660187 8.826271389646047 0.9541541901463547 -1.4842412907407987 1.4619081744612372 -1.9783075595372897
Ni 4.439635283302098 4.710954609843858 11.762404904881542 0.6801963970617769 0.6677923669704693 1.635628101987628
Ni 7.078836684507066 2.1340096764487413 0.9730200741692576 -1.8823622170882162 0.08599491610458093 0.862795629355669
Ni 5.308890146948205 6.030275218056469 5.594854032884491 -1.2458961710348542 -0.49017464705156877 0.6657766220920212
Ni 4.130327832967871 3.3274691077073517 10.001634953587471 -0.212847232545156 -1.1465932249674575 0.480185911269973
Ni 2.750649688402167 3.897613782942027 2.02259177215485 -0.6730993810056795 -1.011376081501955 2.554450383220562
Ni 7.300983180976045 0.9036540069852996 12.261452636909423 0.5766369897108715 0.37150795174557955 0.35003075570841
P 4.130308843653304 5.49466261136296 2.4319653145344624 1.2403585290460768 0.5431769102802129 1.3239728607336232
P 3.32148747361856 0.4545044968466804 1.692705601623723 0.09726431837081313 -0.10444489527965238 -0.06883254539268145
P 7.644091611240587 6.304053660834732 10.009834539617756 -0.4891613752957059 -0.11704432921121777 -0.5115682822359964
P 0.6505311911279359 4.7564814915196605 9.638439626373328 1.2818612762755535 -1.8738397814395018 0.2825588381086811
P 7.723030191898069 4.38599046964865 7.068288120264769 -0.35509377205361425 -0.8775385919927984 -0.34148646568282476
P 9.206646349749489 6.0356207101072465 13.518158828732586 0.49510396603238604 0.7365272104430219 -0.11374637518623636
P 0.7685184487964858 3.2185748833194934 3.5716365628146387 1.4373397410932536 0.35324514888064973 0.31300995550968674
P 5.664597987428344 8.194278516864722 -0.008232817330779652 0.01680935824785492 0.6062661254312139 1.4266745480699237
