# total energy = -381166.8393318653 ev
CRYSTAL
PRIMVEC
9.26708013585517 0.00000000000000 0.00000000000000
0.00000000000000 9.26708013585517 0.00000000000000
0.00000000000000 0.00000000000000 13.56330850963711
PRIMCOORD
 96 1
Ni 6.74990929502969 7.912334724693454 1.0568650496551784 1.190810028693988 0.15237745729487306 0.3655013405401834
Ni 4.614199535700866 8.552680676129537 1.1971806859810175 -1.5471461577951355 -1.0980734229901992 -0.2538686692628402
Ni 6.430463785080875 5.350506099115712 11.608388129204629 -2.1962476332243206 -0.7895600697992854 -0.23752673756970705
Ni 1.4081049839050988 7.045621813450006 6.027588608543704 0.9970324111857732 0.2705286464170244 -0.23326719096240472
Ni 2.035801371328529 5.1675368743056 7.236092739409014 3.3147757245244467 -0.6864423779714888 1.022760926300129
Ni 4.540628188670503 4.342562890763972 10.094492015002361 0.6172743036162595 -0.3430535530596285 -0.8498889485963299
Ni 0.6018393811903885 3.5299975271585646 8.214088452476297 -0.5706352636014818 -0.4864059240377558 -1.5992225667754005
Ni 3.1703421576852824 1.1119661798110967 1.3842441066744933 0.6088693673820159 1.4518201940976159 -0.34959469661225595
Ni 6.676847637391778 0.6964599734209993 10.366775502113677 0.13525802400576706 -1.0856727353330011 -1.5604307907191834
Ni 1.1766874655725348 5.215790559150933 11.637779599697325 0.7722591166269926 -1.546857422910123 -1.8695565806831158
Ni 8.428140389854056 6.549916444511708 10.718349977946643 0.9770762797788205 0.37375381035696276 2.1989084678859356
Ni 3.808742022350187 8.060329990101554 10.905903627164857 0.8729715414474063 1.758712723855655 -0.527187476830492
Ni 7.723073152656535 7.526286711771063 8.958537998966541 -0.5587133153529152 0.9832268727612488 -1.1340585828355565
Ni 1.1777253785171626 2.4083101805714446 3.0731332700490053 0.008277409517443808 -0.6940713552716563 -0.165631751201618
Ni 9.400155129577918 2.376236817166471 6.028931408415816 -1.55797975807553 -0.9489723224537527 0.4854276192848866
Ni 5.339014920085904 5.038539122616136 3.224865948765751 -0.5331359811044432 -1.170773421758087 -0.3371019634618839
Ni 0.4019512486748547 9.211773930127961 13.538514208734274 -0.3164272087213518 0.5128173241517491 0.6211553838382206
Ni 5.628101476404354 7.35451211943515 12.378620545289014 -0.13685673595145462 0.7402987616703122 0.7113435120885426
Ni 8.273139212069719 0.10672710536330592 5.9899633375929575 -1.0217347990284598 -0.20486961365631812 2.688999296974446
Ni 3.515920832847049 6.61334033909236 2.359228945494368 1.0058641505447903 -0.647657029673175 1.0814669247817696
Ni 7.707522992646842 5.821551768539236 0.8197436436670923 -0.3226500497026121 0.00962801000806729 -0.3967093907118716
Ni 2.433989258871122 8.145967075113216 4.121984149038878 1.2607021256994353 -0.41675422517788874 -1.4254129077486806
Ni 6.558145611429829 3.02614639502091 9.779104559325445 -0.5021271914277545 0.14108491510018928 -0.6115777674521145
Ni 7.508419781795683 0.07238238068397242 3.0989578415025276 -0.4573537438668059 -0.13296408576526778 -0.037279196066432575
P 4.488602802321031 0.7836437340617541 12.478161956926744 0.31775312662162697 -0.4268913136118906 1.5690329305658977
Ni 0.3292593475234665 5.783918157216614 8.572390828289619 -1.4693147513379534 -0.12467227807012077 1.4069644712355058
P 1.2633253952093737 6.182068976439755 2.2380544626250365 0.802901781213514 -0.7278193982563789 -1.5167310358383879
Ni 4.657532401139079 3.16261341307975 1.1955700675008718 0.9961602929934652 -0.08236348999958074 -1.0219098911537432
P 4.829344061794442 6.273924272039321 6.999521797964776 0.6279711212084732 1.4666256345415645 -2.3587935464117633
P 3.753028338215341 2.4899438870823993 4.733051688356593 -0.26913433717265905 1.2963157611379867 0.8388725428811682
P 2.2995331971424986 5.737703229941085 9.794295156636462 -0.7118453914256256 -0.11153316958500147 -1.52568464548725
Ni 1.7210450037902645 0.4304984881920525 10.477926711403459 0.6406937109814643 -0.4551641924146549 -0.6025513955837881
Ni 0.5599392062989559 6.238320151206641 0.07044092745272652 0.8826100929784348 1.9176655203752002 0.34389378957273675
Ni 2.179005556447587 4.16660884540996 -0.22489442081717526 0.5566448628596606 0.5474626821397605 0.8250965721429984
Ni 2.2147023480788954 8.297567234587923 1.5458777335165996 -2.281641168299477 0.6915079654198543 1.1968680619626098
Ni 3.7060071749917536 3.145663924010782 11.816516549134121 -0.4248416301717135 -2.444749381748293 -0.713997404771622
Ni 5.596676808589773 2.691706749854167 3.5111742345413495 0.23922289432520738 0.5771183002226642 -0.48587190591115675
Ni 3.5908081052179224 5.852077529607131 11.463260098306066 0.7442320352864473 -0.20027145276267444 1.453172337250136
Ni 9.136534508722303 2.3889790519777505 9.983367680244182 -0.7495038252083478 -0.2991393681751816 1.1317271064889027
Ni 1.3413078722544052 2.222950049156742 0.6129283689541538 -0.898626008790717 -0.9157307867918035 0.14518839574560155
Ni 6.9958575945870445 0.20509252456645352 12.835283706765551 -0.8202806388115939 -0.17001316809876527 0.7244255420834814
Ni 7.153305281455147 6.477086463870364 3.2333026982727975 -1.5853059566943086 -0.3804299368255577 -1.0219541141281174
Ni 1.6629404130508292 7.3509628278477175 11.428090603518946 -1.407621902313847 1.124927567068566 -0.5281752946650581
Ni 7.113039819451504 1.5099409245168458 4.87652461879167 -0.4123653520815737 1.5352931151112914 0.14078229625810593
Ni 0.49688692162079895 9.068606813328353 4.489441473048609 -0.5542326538737423 0.11756857714580397 -1.5498188195312923
Ni 8.405723323666066 7.170115764326175 6.826915021857189 -0.6031846582924127 0.5310076219075307 0.8678630165762473
Ni 4.164347677923448 6.7591115053334 8.947036626148883 0.2198159505535053 0.1267687555878333 0.17067265605963508
Ni 6.227570338565852 2.104924520024773 12.077298663427776 -2.213560670581472 1.9588998444346393 -0.2569501364016413
Ni 6.465011458809203 8.04945970542255 5.233456393493291 1.458500948551901 0.6647337826498035 -0.5842381990968971
Ni 2.454867989801895 3.059804429082414 9.451754230253703 0.7586278989968032 0.09309527459478804 1.2164932923927048
Ni 8.688480464438259 4.1679525719900585 4.11817259909133 -0.08997446957761923 -0.5676502128312289 -0.035448056394964754
Ni 0.2970071294771417 4.21532588424843 1.3715899091219095 0.6789980058783016 0.14493642763579553 0.3588095303423046
Ni 8.683680117069356 0.2647993934141581 8.646595116874606 2.1095526057289216 -1.8338586130608736 0.2844678822059359
Ni 4.911209445301966 0.693812368704212 5.6981494796709 0.36564995030290576 1.4618917194010048 0.35726378312173956
Ni 6.5628254867605165 5.646783909407657 5.554527349250033 0.09133201204677818 -0.9019699855622855 0.6753894625914368
Ni 6.054535423368605 8.78058597119412 7.325610877467196 1.3966803157006784 -0.6831061145094043 1.3852566472447692
P 0.3323545521976246 0.42738382265018265 2.4770126038419193 0.7377572261953811 0.5864992272169318 -1.7235696002956185
Ni 4.159426858516329 1.1919040107071683 10.445062866086193 -0.40499734175227675 -0.2857225805486434 -0.7475649563144223
P 7.638687123426344 4.3620608267951955 2.308488903121859 -1.9049542434561193 -0.8874087999186587 0.3084873850489849
Ni 7.782882886090715 1.9272653319760145 7.878369950288494 -1.965377481739183 2.6704482734451362 -1.4552644438924744
P 8.008712355266042 4.513540514231688 10.300884710873559 0.7429112595924948 -0.9165779652834473 -1.4269121180020266
P 5.6172126575656245 8.174945233844031 3.143608485697224 -0.1811038786952881 0.29954637380561316 -1.0663508950759377
P 6.2037354091588615 7.7841710101916375 10.29769776210876 -1.9578827160240346 -0.022687671405502863 0.6990459256681123
Ni 3.052705845907548 4.030679317983159 2.354020846611503 -1.4887170671239651 0.3794809426487271 0.9973921085180371
Ni 5.758248345996799 3.0606199321103356 6.196437583766947 0.1467066321623409 -0.2807400397323874 -0.27149589542630015
Ni 8.166234178773047 2.083684372979352 1.799620573946512 0.6011329179697067 -0.1859817756128797 0.5503664860501167
Ni 8.952879520002346 7.532643928556909 2.278866682340582 0.7078938629770453 1.0613539560819785 -0.6295729184779545
Ni 7.114939570823368 5.493154259443005 8.03889152754707 -0.2994363305903101 -1.465690781432121 -0.13487390119347095
Ni 1.5208112091958503 2.257303114207952 11.801569676023492 -0.055660783897413815 0.381254232499066 0.22840857731852274
Ni 2.148933882292967 5.679830316198219 4.017099339152288 -0.5873566901212207 -0.09578079184675117 1.5868874422488153
Ni 1.705022222707572 1.1141995460580192 8.16372836037816 -0.5950165206593236 0.02794326337748736 0.2999721484891221
Ni 3.5154574788539117 8.233642917694683 6.082641549884336 0.22567549465807582 -1.172247178090136 1.0956308749869776
Ni 8.445191816801513 4.711568743818768 12.392496143967508 0.32511059542796267 -1.5180878069765984 1.0234949762526762
Ni 5.380587040350196 5.7917210384610485 0.9127526907095711 -0.649876663032313 -0.030375012747431554 -0.2747200587905527
Ni 4.228058851979847 0.8059190139278435 3.524344608442288 -0.42914539975339 -1.5490091791458032 -1.5350280343753626
Ni 8.524434616707879 2.088642260705923 12.508666403710954 1.2345984866338477 -0.22925935535459224 -0.3487022667049737
Ni 1.6978124345743533 3.5177927829793245 5.041969795581325 1.9723109756342228 0.7471224694603649 -0.47120196260380787
Ni 2.0692555296330526 1.141185282618344 5.609038166418694 1.733511027779047 -0.37690418306048634 -0.6486697872084055
Ni 4.005500661996071 9.45214344760794 7.996017382562063 -0.6952694893448155 0.7838085120274889 1.305262171697997
Ni 3.1571829042801784 2.6993150224214837 7.107065333063989 0.06531656181962299 0.16208825682473374 -0.8077452253487443
Ni 4.714960495048534 6.829735920967409 4.524895467187514 -1.967157456457741 -0.4803769442348566 0.3452153365976377
Ni 1.5951424567749588 7.6790915916279285 8.616647621590147 0.6889738861440908 1.2649272195243764 0.23265578263065095
Ni 7.107136689578933 3.343302936243626 0.1918609879384207 -1.041482413969032 1.5114697874394483 1.2589267789665672
Ni 8.777601971478315 9.158080469403194 11.003057839029944 0.6897110214204315 0.298440285225628 0.26347431067340427
Ni 8.713353306789877 6.801397190747123 4.693297769161372 1.1591741469562615 0.25618420476989434 -1.2320608078136586
Ni 3.7246340055158784 4.723940295435537 5.562733348468496 1.1381656630253947 -0.14115510621649238 -0.5628535627735339
Ni 3.0409737228013083 6.731671681859801 13.716437508559121 0.46568771765379796 -1.4484818737530023 -1.8778715283067142
Ni 4.657439730340452 4.398267307818955 7.792418711269485 -0.02667982328403147 -0.15503906328743622 0.9930104345105737
P 8.281757596342075 7.880863721479559 12.63031536106926 0.4926894430536224 -2.6105366846911684 0.5389479598005299
Ni 2.6113611674441346 8.93128722392214 12.851234204625316 1.1976118821071697 1.426855296622162 -0.04015034696664053
P 4.647440551168546 2.2212727077015844 8.63569054400011 0.4971405368464406 0.7183415406729305 -0.24164770171661606
Ni 5.876941104878886 1.2054432143866443 1.3927485058645377 0.5206118804955033 0.16213222268879174 0.034660784606979016
P 4.36008693878443 4.517479023173356 13.07530014850276 1.2024774377295873 2.1071712499809387 1.493901439538382
P 7.838262955350503 3.792302222673671 6.4166929044048295 -1.6037618494066508 -0.48048313079541766 0.22192785469018553
P 0.9797249501696706 -0.3116185342967378 6.757986481838062 -0.19121834142147065 -0.10561500432835359 1.3963512144960337
Ni 0.17699010488266764 5.101685004800906 6.102010673505467 -0.9361507452090522 -0.4794832287759936 0.14487240716707953
