# total energy = -340861.16718924046 ev
CRYSTAL
PRIMVEC
9.31349526045485 0.00000000000000 0.00000000000000

0.00000000000000 9.31349526045485 0.00000000000000

0.00000000000000 0.00000000000000 13.63124173620633

PRIMCOORD
 96 1
Ni 6.2144016343283335 6.9263997042201915 6.408673690359731 0.7417524633977032 -1.730420047558549 0.1616560543833216
Ni 4.298569134235399 7.5662181874431775 12.823086356371766 0.08007006597971371 -0.2191991429051128 0.39888222999347434
Ni 1.6777981935015764 1.9423945879870785 6.428684665832858 -0.8877255598281292 1.306621513939369 -2.487952399498328
Ni 4.835762215457832 0.04395597125708471 10.338192789029963 0.10294259970251303 1.094925364279521 -1.7838167180121345
Ni 7.791781724157165 5.772960595756569 12.197671193249866 0.7454440533166774 0.6828893705129079 0.8685351029426075
Ni 1.4676298641119303 2.75374902311552 1.7633370574759744 0.6167346290627056 -1.3618074150828934 1.9907560697132878
Ni 3.777115859654309 6.954610280738903 4.022129699439169 -0.3304510338042696 1.125751605631758 -0.35249952896387676
Ni 6.962778215901302 1.360571238465649 1.7304725274787551 -1.6155578136003141 0.5060013296711803 -1.0198288402549984
Ni 6.098085394598328 6.416094683218796 0.18317968342202592 1.2387454189226859 0.6972127291141154 0.6142388592240453
Ni 6.676937739197517 2.3392146717549 13.249567127838212 0.8178710009288366 -0.530412668636009 -0.7613013320639082
Ni 6.87867735556325 1.59578355605563 10.533719372845141 -0.06485196347837863 0.43695743959864103 -0.43506742166477974
Ni 8.428042452269505 0.2549336433669276 7.96413446957886 -0.7854910419362343 -1.300177043865606 0.150547860285302
Ni 2.93164609214289 1.9136158882700705 10.309866725172583 1.8502077438428586 0.5391456776336327 0.20130786444698878
Ni 4.32894044160665 8.032498317324087 1.8912122759175582 0.4092252637906952 -1.5257833758486432 -2.070029865043951
Ni 3.283034947037065 6.003087745047039 10.343453982385995 0.27893461109253254 -0.3796799460334106 2.090262132930426
Ni 6.4245233962427095 1.5683459996264046 7.745326010827574 0.6028925809732907 0.6913873806815899 0.029408020848471935
Ni 2.6584440282274477 0.24910991490963136 2.030973376747118 -1.1290732138058233 0.6848097274640722 1.2846000153629553
Ni 4.905445785452218 2.490847684729854 11.792292007527374 -2.0014068645589145 -0.7047524891345862 -0.1356370046117406
Ni 0.7753466005504811 4.2243033246744215 7.397715640876825 -0.34016209044444645 -1.6381434122103142 -0.2483258850677401
Ni 7.333948934290276 3.9268954871135078 9.050026523813495 -0.9065822875233159 0.32341700977562365 0.4163562184085216
Ni 0.9690412198885272 3.685852921619693 4.6706767902268105 -0.7503821140482432 -0.10663110429769376 -0.6645756598053845
Ni 3.7999339225367263 2.4727329368497313 2.731837163301861 0.5051538940692203 -1.2420012068558222 0.22501960624163184
Ni 0.35187315663698565 3.3872529566918614 13.44707003530386 -1.0878622867851522 -0.33272594588137533 -0.970754965546483
Ni 7.881461368032593 7.444732957958176 4.652642138404151 -1.998502546427926 0.15744895828050948 -1.501357895816427
P 0.27226046956547834 4.9525627569306465 11.404577727873894 -0.8841792372377676 0.11648228606016069 0.65502118334773
P 6.726774251231728 8.920139590440236 9.55994410342064 1.3312832783521074 -0.865275201244413 -0.9320169255463369
P 7.064211490534939 4.340563683434102 0.25612111398631865 0.4291860231833383 0.738211025903348 -0.7479287674117442
P 3.1337303078256222 9.104006609797251 4.50408909824357 3.5570726297892867 -1.8740243866464823 -0.37921637613343084
P 6.783530690091095 1.0702789111260285 5.614885438252729 -0.7626416481418865 0.6699042711071496 0.009480942907241736
P 8.196946699493413 7.427000063375268 -0.02908138830626473 0.278467698758443 1.1187787738583506 -0.08798135040699041
P 2.7754494665914518 2.0478792329692257 8.048497970477436 2.359812988815213 0.4951155359966118 2.2702259844839996
P 3.06023751835413 6.098960863133409 0.4852461312089739 1.3232508949659338 1.6215633963644462 0.3924498441045693
Ni 8.333622239411566 3.3012428298677285 2.0810818428369067 -1.270691118591347 1.059875057543607 -2.7551514673214874
Ni 8.7193126965898 2.451731005502853 6.072581319742324 -1.0776187546802731 0.6124722542419258 0.44146355499911066
Ni 3.164613857424845 3.4763924178541545 5.166840200338139 0.41399825969930637 0.33080636026115934 -0.5269936156521311
Ni 8.23952799888052 5.741108442671725 1.534741046772389 -0.4764770949598181 0.2981901168880348 -1.2527689868952876
Ni 4.492923149023272 0.5451002385233185 7.3334711519940035 -1.75108091834201 0.3234486343445075 0.5114440979533063
Ni 2.196364284615912 7.699783020013279 12.014971154823122 -1.4744577289914738 -0.23186568262918775 -0.29123605416770487
Ni 3.6213849088555734 7.823587309766738 6.2830756214588614 -0.8482691536047198 -1.0706148125586143 1.684692463614447
Ni 4.6675511812866715 4.758674416895476 13.083852110341537 -0.5704131202883467 0.13938850123437285 -0.9963058174323939
Ni 5.244419751439348 7.779767315537443 8.341924288902744 -0.5805234692494712 -0.3094240379306413 0.5534970612592983
Ni 6.508801212986789 4.1297620363807805 11.39344158183777 -0.47588522701209 -0.5552104444059792 -0.25726483942858275
Ni 5.2337278591173 5.074159748356297 9.267840301293008 -0.6014807882274287 0.652610002803076 -0.3654815430458415
Ni 9.12984224507718 0.7350228923644752 1.8433390486407408 1.5603207475038805 0.929054243373587 -1.2953752516015886
Ni 9.27854150711011 7.3862628360088625 11.03916554347684 -0.3624237300561242 0.12441851018810184 1.0481359147298077
Ni 2.580750852486579 8.08857487104451 9.398536577386464 -0.5078347833354931 1.860899676339066 1.586462438896255
Ni 7.120083147364173 6.197888807597507 9.898230733472781 0.2667861486554567 1.3895365055670457 -0.26516429678131753
Ni 4.571119253497059 5.616708089234807 2.001624691132802 -1.6105752727840583 -0.5497388797684468 -0.0195403840257728
Ni 3.3314185538428442 0.5433604776472224 13.436409808864996 1.8878980593047807 -0.6855615180284322 -0.19429440924363314
Ni 9.090576549929313 0.2916409214234468 5.530290031327306 -1.3914573767388423 0.22625553553126193 0.2083601433080799
Ni 7.19190882122099 7.889182255432398 1.9698777805420686 -0.19717327345332494 0.7958667287436035 0.07976847557889488
Ni 8.03668939009841 4.976181780387713 3.7671159600147774 -1.7159413943263995 -0.580845114254948 -1.263225406341921
Ni 2.4306266257103806 5.538986973008776 5.624523042934658 0.39884674876984855 0.6520692998082577 -0.3734355077855956
Ni 0.1267166196568602 5.591831743945444 9.454179122237367 0.26751994149768765 0.14690203600259863 -1.4928670847365966
Ni 1.4165639707305855 3.6622525251527356 10.205751163963381 -0.2033711747339207 0.8272318733184463 -0.3859935469562643
Ni 1.2751664888200294 6.493247676246529 7.366881452801389 -0.30946491847090574 1.4186228814100408 1.1506987624953988
P 3.05050491602265 3.9425049048240925 11.532425937179822 1.5671277431233848 -0.16862811482578055 0.5366704766202629
P 8.872407928288242 7.717329644695105 6.462271923046271 -0.9799191485442544 0.11439840694793846 2.365766121074855
P 5.267191246846495 0.6621010201397959 0.6820682221861694 0.4238111320246701 -0.6691187990913766 0.23569971166329728
P 6.138394201192248 6.403353821984858 3.2109345250761527 1.1278377987368255 0.6919257696835632 0.4245246131519269
P 5.497998281275911 6.5728035509982075 11.277317200105879 -0.11019465327923603 -0.6736596243845236 0.5063738825192504
P 8.20029955771287 5.353406270561817 7.6346267399646655 -0.6165129999702027 0.4777752449459513 -0.25845088931688387
P 4.542638585621781 5.456599795760668 6.405865671600935 0.08455561255489309 -0.15033702982607658 0.94683136485135
P 3.2234565191763207 6.5866806586287385 8.241803285722224 1.1744747818690742 -0.8605880801813889 -0.8787763210546414
Ni 6.255362385576037 8.827693838533756 12.16481970214572 0.4307207146603098 -0.18248584664447928 0.2614056010698337
Ni 1.3211658408919722 7.8527012953056925 5.296404886782527 1.788738580793784 -0.6365557775536907 -0.8093943309163931
Ni 4.831515261713186 2.8350744619274666 9.396246388952674 0.857835457136916 -0.8139518683800886 -0.007127869294032886
Ni 3.1417306000770493 3.0279476310017457 13.610194969826003 -0.4534266408982578 0.14072830309171894 0.011285085995516047
Ni 0.9092336800494529 1.5774359707991554 9.586265903142392 -2.780877668442998 -0.018956229387528643 -3.735191200604006
Ni 1.4668289035372821 0.1124967754083398 7.742150109014143 0.9605273742812038 -1.3096199344460606 -1.0719841821023153
Ni 1.576346291877832 0.8999490568300725 4.296567664148284 -1.7497709412813351 2.661840477171467 -1.5615309657618976
Ni 7.386821645712106 0.39661053012910497 3.6088163472801353 1.6024829826942273 -0.2295421767023337 2.6039173796024384
Ni 5.550097972608255 3.5677112368590946 1.4603010748538998 -0.17493837331452453 -1.2593978050657149 0.7677689420661229
Ni 4.967725126878637 5.01059514461242 4.421660941617224 0.5449437723726486 -1.4138812529599973 -0.7015980026660046
Ni 1.1154773026233231 0.823977946324698 11.579057675565936 -0.0047336580302434605 -0.9116414472137784 2.8836230645330403
Ni 1.3952360670568156 5.529058787281161 13.056739594889699 -0.3024126396098147 -0.24683104568976844 0.32165349011729766
Ni 5.397161070325733 8.668963942327617 5.160488396711278 1.2449520619540302 0.7721688709060315 0.07310571884673862
Ni 4.733351023843521 3.3019413419967822 7.1165440192436344 -0.07998959045076547 0.579343332898441 -0.7015231835640111
Ni 0.9853957172034353 4.840716994826585 2.2529037190405212 0.2990311247320915 0.17216183901065188 -1.4657779418292887
Ni 0.9514759682165927 7.202311995196362 1.0794079989780063 0.012274960712611117 0.6410387530257089 0.5128641182292846
Ni 6.398454923586429 2.9603409704044115 3.88812061315499 0.21868440805222336 -1.0631455007647626 0.1267196475174527
Ni 7.202153665780442 4.26403469457499 5.833734876382254 -1.1434379671679276 0.4861657830024917 1.2683424158535124
Ni 0.1333739059214937 8.454716302104298 3.324577791725646 0.8211111051326891 -0.9867693386968683 -0.906520066826813
Ni 8.378662301492943 0.36210589365286816 12.739949442771806 0.2145449319625531 -2.358810772802944 1.6848169050074533
Ni 5.194667060860623 0.3346292205444159 3.1317912381553694 -1.2631315610765341 1.735571509852501 -0.8692329003405804
Ni 9.122810556311373 5.671639083063581 5.521552110267598 1.6270637573573852 -0.07966280323896602 2.0300659230565037
Ni 4.346934114051071 1.690520427745406 5.225768546244112 1.194583122583175 -2.080028113907243 -0.510431597528392
Ni 2.9488574310027706 4.464833647940264 8.523696703222104 0.14829043170969297 -1.0625371777568025 -0.8177115925328369
P 8.479480885453011 2.1643910560953654 11.880226302429673 0.47900217537451695 1.793543458381595 -0.8219911937447971
P 0.4394004518054229 6.321469573469669 3.446018316434388 -0.5584137818346253 2.4580155027295794 1.3488331143104126
P 8.964089973600288 2.2572093478040074 3.612551990146314 0.6919980176823953 -1.9792249291452362 1.882585903063248
P 0.41258038009828096 8.74186066811565 9.509003942222526 0.4948856793739928 -0.3401299516549304 0.6754264864769594
P 1.540005034176937 1.2841167575669694 0.30317941044590674 -2.896897155934127 0.06305167704484625 0.2568143821547254
P 2.8612267560392333 4.25977842733529 2.979339568965164 1.1753039626385886 0.7975482302110845 1.1218795242708612
P 8.359439247701387 2.3205038601913173 8.357450816507349 1.855786780592533 0.27674274564753626 -0.449458143168813
P 3.189462262229045 0.15688675553494313 11.42479360023821 -1.0203201780691202 -1.3664935077046532 0.009845782445828205
