# total energy = -381173.82940031606 ev
CRYSTAL
PRIMVEC
9.18660862698887 0.00000000000000 0.00000000000000
0.00000000000000 9.18660862698887 0.00000000000000
0.00000000000000 0.00000000000000 13.44553032222504
PRIMCOORD
 96 1
Ni 6.455337866329473 5.7702557304748945 10.266643974617148 -0.09231545900597005 1.5629872385924504 2.00569212219783
Ni 4.098669650098847 3.117282646463894 3.2226916287261114 0.11567624521909756 -1.9241562703058668 -0.012651627325739503
Ni 6.175201429357479 0.7806531791664028 9.232426623315815 -0.6557140956496965 1.3349949228757394 -0.16765186695544032
Ni 8.30828597001178 2.8813889156130092 4.71370665278033 -1.2443162281422442 0.5203077189915233 0.19689456587064155
Ni 2.284305301754716 5.865640285635917 9.205899372859978 1.037569452067871 -0.27189313086471883 0.7485854271591367
Ni 7.171287006454594 6.808654825926211 6.631187924587423 0.9871490906337902 1.653337089231617 1.7935835675909109
Ni 1.77648796185382 6.79374496047053 4.2786637874122855 -1.4049592678800191 -0.32326865712321745 0.027299459145901372
Ni 3.5958222653498444 5.444810940805783 3.6350793990847574 0.9074793454162887 0.37454879545443237 0.20105641055781504
Ni 8.358196813524238 1.218355567670258 9.779525900794344 0.01632470530195253 0.9443224823865672 0.7453982876804066
Ni 9.079667105306083 3.2248762042069257 6.944710333857037 0.7331438957930857 0.731258762955231 -0.04821384070106535
Ni 7.221427515177396 3.0239467049791604 13.349972916383447 -1.281230327559774 1.951771460919974 0.8502291055445679
Ni 7.482180208396164 6.560267307632487 4.408063597547276 -0.5899370492538872 1.0699409264200412 -1.0642094232529027
Ni 5.403057805564827 8.548782191678006 2.7425792624797096 0.544304596126753 -0.4652750555964116 0.27037875110272147
Ni 6.812145737123474 3.2539334466199388 10.876398677460665 0.018604245364748605 0.04730444151291853 -1.346104916745972
Ni 0.19785657871333168 1.5678325249500058 3.1844927922804747 0.7981259570914255 -0.3619807289814347 0.14488757667573113
Ni 7.673298409837935 2.855455120060706 2.1955204060782045 0.47514809173574946 -0.4414044196264011 1.5300830316652618
Ni 1.9246495823524208 0.1483380033801467 4.146413372686475 0.08666751669157333 -0.854931910336876 -0.043093231645048365
Ni 1.154600505278127 4.575417880344096 10.931296930681004 0.4914496571092503 -2.4746687950155444 0.5523668043095972
Ni 0.6457496719306728 1.244078071229043 8.123062815189177 1.225792972527076 -0.4697503177589458 -0.17241766377519985
Ni 2.905953906511649 6.5208935039707185 6.824049744306143 1.5128147315031173 -0.031901476694286994 -1.5445154050405079
Ni 0.5137904726915824 6.216927004773193 13.102548154651496 -0.7801652588479467 1.376726498286571 -0.23619567746310935
Ni 8.094302300227934 4.846689240196724 11.9412579611264 0.4300339730059304 -0.2740454013210313 -0.027354994974185146
Ni 8.863846113839465 7.09715107655481 1.9356992349526017 -0.5304558631691186 0.34235421299975877 0.22562895769085659
Ni 1.0574704945184727 9.013514338117936 1.5445012955613464 1.4256929008829446 -0.2577554059117561 -0.030048739756264382
P 6.8145342553110755 1.6530291313800665 5.938931047561625 -0.16431046128703317 -0.08086170864307364 -0.5530592023909314
Ni 8.622771135843168 8.699690608092348 13.197487159304446 -0.5462961726354849 -1.349291799114386 -0.21275672971387874
P 3.9377937635554754 1.0073759188377394 2.4032939285742896 -0.4082734414003872 0.39222538679858904 1.292364746910039
Ni 5.772047119115594 5.149314494565828 12.765790975381565 0.33497797514034566 -0.060569019832308585 -0.9130311284724535
P 6.342269089971786 8.058263235420393 8.316571372140233 -0.7482691814702984 -0.9359358009847688 0.30408462799559893
P 4.047536987667348 4.349261954411895 7.300936692338442 -0.4075329636899369 -0.001658361539029402 0.1032238783883577
P 2.3173035991772717 0.1169785968986224 9.360791102682567 0.6140905065716391 2.3052323253558558 2.218019991904406
Ni 4.4661431732613295 3.1309615063921195 5.375294037616484 -0.07293885425157115 1.8488977667821838 0.8568838918569243
Ni 3.2358358280446504 7.848018515260981 2.4280206037810124 -0.41627805687241853 0.5940780680054542 0.22412486234150433
Ni 5.593578877459698 8.467903291202454 6.0856623131301895 -0.6376158433870891 -0.8696992984540377 1.9877831031278925
Ni 2.0692376121780334 2.1761605475068535 1.5849995400929706 0.24705370322353581 -1.566815868309921 1.2106370907222441
Ni 1.2047042675672746 1.168747882235459 12.606985750374678 0.8592194819686364 -1.923123201055662 -0.3212930214540854
Ni 8.59065475282834 4.934623455934113 3.1966751536980835 1.3094217023923256 -0.25086562077045826 -1.2774582621118515
Ni 3.3586515959294347 0.949711577823992 11.365156560885344 -0.0878301695411068 -1.122776325053518 0.24985492011775678
Ni 1.9705183181627826 2.497361124088765 4.520481043368421 0.18717451036940025 -0.17320622111476622 -1.2351898403609436
Ni 7.016850932409332 2.3827857439512066 7.991041147012874 0.9295815766319668 1.2756991133289 -0.7016373405443723
Ni 3.23724137913197 4.17320979076884 1.6514738385756016 -1.7851850591145708 1.6836182567136617 -1.8689785966924586
Ni 7.593016638909285 5.409828335965836 1.10080280774577 -0.14388664621504252 0.4727433389489988 -1.4238676747487478
Ni 2.309302063248807 3.125219876133462 12.962566290284588 -0.4894858485146602 -0.15946830270338344 -0.9257359776336315
Ni 5.110638873143512 6.051411880980826 5.629052047188945 -0.3149375115497028 -0.562721922291676 -0.20065146180991247
Ni 1.7852887327142901 6.1496534713585564 1.696798727167863 0.011556594489347838 -0.4842490255957531 0.6009704242499133
Ni 5.780654971199374 4.334002997836487 8.764858570858529 -1.400216610988711 -1.5412210505599522 -1.4076535268827306
Ni 1.9987028327764798 3.3957287474877402 8.413070262901856 0.3110600308721675 0.9950218085136477 -0.7749649455939298
Ni 0.7623608044927411 8.800192104139887 10.831584564296216 -1.4674069927922793 0.9489514965181464 -0.5880107787654519
Ni 7.734885432644398 1.3827315520193073 12.080781413733456 0.9165555966859441 -1.8360134546203475 -1.4368630585671511
Ni 1.6133429830322272 2.0568724372529887 10.402335692854788 -0.9462418108964671 0.604936607986513 -0.7819786579076017
Ni 4.339055632464105 6.086835443024638 0.8550270422241049 0.16919889972758603 0.7516890057851248 1.593348881603443
Ni 4.75516306056952 1.777783273640173 7.079475123305718 1.5804049198482653 -0.09230594592427328 0.6742108689023033
Ni 7.938056464325142 5.270090835382737 8.556466789616193 1.244672068819766 -0.443367714000359 0.37399035184780105
Ni 4.281878181696292 7.42905405193886 12.2284001056748 1.2511383932704 0.1892427057523386 1.3458462637679465
Ni 4.2207872357441785 0.6703247680985676 5.0005401272860235 -1.0570748690906504 0.07689089692078371 -1.7280104096757918
Ni 9.132085892915521 5.092890345687951 5.414286597029077 0.4294477614851572 0.7872967276864055 -0.2093947552201813
P 1.4753509380477603 4.255126777995155 3.3484746711285696 0.7091562746292367 0.6734719338537498 -0.2588357834601284
Ni 6.462806578969935 4.404354045069764 4.050143228474358 -1.2027975400731672 -0.04451967967892978 0.15474544330641735
P 9.077241840684826 8.446397440905628 3.5581847306782937 0.698209802920062 -0.06600098948115729 1.5480175046564952
Ni 3.714641858574603 3.959400666544855 11.199790260149282 0.09014313394499959 0.5561535250455389 -0.41159556379508466
P 0.1302762125776728 3.001182289329636 12.444711662030718 -0.16841754147687124 0.9648694532999834 -0.5367697212022884
P 4.217544362974088 6.0460193418418955 10.585638846518894 -0.252182796919985 -0.16186534218065027 -0.3777888996582849
P 2.5114901278292696 7.612721913956997 0.10596660939293834 -0.6389281344406094 -0.26459325476919593 0.4064952664540418
Ni 4.633596671429019 6.485221903499733 8.435200802570826 0.9193447293953071 0.38772852736950003 -0.04780863484284669
Ni 8.945836593933091 1.6195898767536465 0.778850766595605 -0.5057534753264322 0.5220085037327139 0.6334108041668058
Ni 5.6470357518199 0.30695030961034514 12.295870232509492 0.1295584025178285 0.8235911912420655 -0.07572490163714056
Ni 5.937957267069757 1.8860382671890021 3.8518622284523065 1.4178664628599902 -0.007212201477723062 -0.3218296106838457
Ni 7.861807614490173 0.0064177646379168195 7.237150395477705 -0.7132893229610038 1.5808186103469162 -1.1639995933693632
Ni 5.769851519704684 1.2497921416624587 1.1846453080956292 0.8165245142032712 0.9077685945219333 -0.06603595648415078
Ni 0.9396522416108244 5.6975988445297405 7.409885274822517 -2.135655987684193 -0.16137477569747694 0.13777256289750467
Ni 0.32712410168716355 1.1833270297882417 5.808307581185909 -0.9983002221546033 -0.8468625030651802 -0.973708134637536
Ni 1.7040515545105992 7.99080596983748 8.007983090249699 -1.4534669856724194 -0.8078634960941635 -0.9439293607132065
Ni 2.450546167611777 1.3571744074119716 6.452617711578132 0.8055901266789546 0.0282970471724803 1.4283827890102818
Ni 7.637075612862119 0.3310853672352164 2.367851993313649 -0.339083512668287 -0.355917039285858 -1.8925422429450114
Ni 0.13382867405130924 6.393631417613631 10.4138455945365 -0.9893252723495026 1.3042522423762442 0.07752518807067295
Ni 2.612028370310463 5.371997882517594 12.896320738351463 1.0013084128533076 0.2243449487721104 -0.7921219169891907
Ni 8.693618259930792 7.6224689054840935 8.602059927174139 0.15818120846084371 -0.6881300500865568 -0.7531049122960449
Ni 7.396854989448308 8.196898342993828 10.395263841697803 -0.21712631953648412 0.03895504110695872 1.9467015025962344
Ni 3.822878478906604 9.007882947160246 7.8974066407546895 0.9841337008462341 -0.494364259652884 0.05629918881236111
Ni 4.025957644503211 2.4156370556391407 9.210618533602174 0.16179592239529553 -0.2977010930667583 0.2802445881532077
Ni 4.504074679402123 3.09795402236115 0.08776701946425666 1.1231118540160658 -0.6537214906997 -1.299259160037027
Ni 7.170643943865624 4.680108469828351 6.4953336033808595 -1.5005032611256157 -2.420732707118721 -0.7720534283740896
Ni 0.5777246739477836 4.066332788482089 0.9751180620533404 -0.2844971927819746 0.11538493923092387 0.5626465889690503
Ni 6.931084756257612 8.977273167925292 4.425219588760145 1.9134728224500916 0.04146135246858021 1.2000042935987463
Ni 4.922561439086726 8.57502833191638 10.281648462139492 -1.5951278278807368 -2.2197038073647324 -0.43996023098070675
Ni 2.1964721387098796 4.382361304527002 5.735352130467306 0.6916943703990475 0.6467928819006667 0.7512930558982868
Ni 2.2728679742794706 7.266129551719199 11.168932442487154 0.15739907887918053 -0.8872540195083494 0.47985166785900585
Ni 0.23889407715884872 7.915135876332583 5.879528600235978 -0.2276164204345306 -0.5682317963663117 -0.5625334604299538
P 5.039185432900574 2.2105460227999005 11.180267798609005 0.418490234032389 -0.5623198017572509 0.4775371607932163
Ni 5.946372200376845 4.03916798740233 1.6906271636354375 -3.02021446263825 0.3504920116155448 0.2558221934447852
P 7.576324571421316 6.860632656331784 12.466561091482223 -0.5224458483804487 0.6062226737877883 0.026504474048431773
Ni 3.735449526631977 0.29706000699199236 0.40909620856396256 -1.151966830574545 -0.6348611634600873 -0.7564517172810908
P 9.037004495832155 3.3881038625042432 9.096667842836757 0.18650448088556912 -0.5737241869394506 0.7564206069328392
P 3.571450193227896 7.663395245967804 4.997447914893921 0.7376659520331553 0.14291091256533453 0.11222891010044543
P 5.7752348722352025 6.125768289482543 2.609629746853606 0.32419476848191264 0.18390432425856068 0.2857074110399918
Ni 6.083739555989171 7.866841875900964 0.5436386820890281 0.943696161656478 -0.6136727023079303 -0.2059942141790646
