# total energy = -381163.7554932153 ev
CRYSTAL
PRIMVEC
9.28227813441312 0.00000000000000 0.00000000000000

0.00000000000000 9.28227813441312 0.00000000000000

0.00000000000000 0.00000000000000 13.58555231677118

PRIMCOORD
 96 1
Ni 0.6730774583942943 0.5471104506172275 4.071427047175595 -2.121139539235573 -1.3461357699839076 -0.40717866567431166
Ni 8.9465749720944 3.130067625509144 11.093418246458427 0.07708810053325434 -0.7901108000964329 -0.22671627721776438
Ni 1.238840646315273 0.22741395043266616 7.725029994063814 0.776982747354907 2.296812990943909 -1.7241193021515016
Ni 5.069348957040173 4.949607573005145 12.575303270847963 -1.204466443135158 0.012781725145700569 -0.09846322377492074
Ni 2.065678108771726 3.752964161714929 10.277592350194281 -0.3649251563217393 -0.3641198868116245 2.277374165493007
Ni 6.561493683117608 7.80570876829771 9.18941699651192 0.2338120077222812 1.1600964016602149 -0.0902691179999026
Ni 8.38367907979578 1.1295325425636067 7.587516760891307 -1.210085331983832 1.4850668719658875 -0.4213169048479067
Ni 8.33040808731694 6.85751480546343 10.32359253444718 -0.6870519865310297 -0.1969470163751318 -0.09062495867742457
Ni 7.460055306383261 0.41173028489055424 3.981653497121736 0.25787521931907204 0.41832054122374407 -0.8702050344458626
Ni 2.5832393561380145 6.1618266464977465 4.498638315034647 -0.013549970770292793 -0.05352856804575943 0.0205611119808033
Ni 5.699253613009249 5.752171878930466 9.896612395306148 -0.19716144637878302 0.15201236064597046 0.4718928180232453
Ni 9.174417763762913 3.2467644224152203 7.27981760480483 -0.8426556640726842 -0.5441755267480564 0.6447151734360316
Ni 4.989047971514047 0.3434795524461544 3.0782957209002006 -1.811578975727067 -0.8014719907455229 2.805994518115283
Ni 1.2492367974873066 6.695613315514673 6.78122840509972 0.28965096906877214 0.048363478905052194 -0.8936853769559898
Ni 4.68206447904843 8.35476478434856 10.68283525110793 0.742298051488528 1.1304528677621692 -0.6723864140990549
Ni 2.546035986586666 3.3401441374068783 8.11723129462326 1.0223084121437425 -1.1483246058362675 -1.8642002014672088
Ni 2.691507844772478 1.2114672089881955 3.9805535471986233 1.448999693929685 0.4260245947362211 0.25063730680973606
Ni 0.7131165638233715 2.1791725198257024 9.136582271091193 0.2030094205191278 -0.8311517771981428 0.8360134761658183
Ni 5.55507199144211 1.9834371271786755 7.191539429709734 1.0545852698995772 -0.47843061914176316 0.2440051462051991
Ni 6.977404705943774 7.0378880282982115 6.973219326869247 0.580027246339343 1.7204701354346885 1.6872157442569329
Ni 9.13352004763436 3.885672887881503 13.499677980537104 0.9657593121041046 -0.8624585577312243 -1.9415865499671725
Ni 5.693350084307988 5.843778678856179 5.823120969540678 -1.4497160032704193 -1.3288309601568729 -1.7008438765633287
Ni 3.8905182369098976 1.6668186303232626 11.437499290508105 0.58049698688691 -0.47674011881321765 0.2076543754903069
Ni 2.8283935959635294 8.112218864593887 8.331747520008122 -2.780514371566308 -0.8029159222809011 1.7601368578966912
P 8.046983015989376 5.01755384673665 8.542636231216171 0.17973913713727754 1.258208155632988 1.0939270049219934
Ni 8.433979743368322 5.617996552866408 5.98328110416812 0.3025741048883434 -0.23823379093906066 0.4875053277495217
P 7.160219167848417 8.703184365056998 11.2118573269136 -0.15347943210980017 -1.2736098349000389 -0.7394700951214297
Ni 8.103372853819826 0.650365580994534 9.70910481372956 -0.31978661211188797 -0.5275219773517753 0.7699839474395707
P 5.7388239634078015 3.3216909690765184 2.5154193213850276 0.5913190172030783 -0.30175315164894484 0.6215029969856264
P 4.090523477359723 3.4070229491876827 6.54053337154478 -0.17918994950202688 0.17246111541862555 -0.4078435529518202
P 3.5773434651302205 0.8823167088315662 0.3518586646452567 -0.012573980010268668 0.12650341774158858 -0.34049993339983936
Ni 0.9578568140575715 5.03519945689561 8.303950810811898 -1.1028286782869974 0.6108953966731092 1.5991518614384652
Ni 7.219300866250196 4.558563772491371 11.941197455932045 0.27745905498827056 -0.30623509867969845 -0.3592903266334651
Ni 0.37563614754015046 5.06335260556059 1.689322584699582 -1.4345531794870519 -0.09675189751076885 0.3843315858728091
Ni 8.690736830484054 6.132930915606193 13.226540457730938 -2.5802745433725174 1.6995660382921698 0.8383935463622207
Ni 8.832922762317278 0.9424760796896612 11.967281584868234 -0.6266652579128562 0.5734729901605929 -0.324931389537621
Ni 7.8401088899437426 8.843337478044974 13.426804673732281 -1.3638630120603414 -1.0096621841346418 0.7341288854141744
Ni 2.188352692601721 8.513751639058016 5.6533286152067905 -4.295635382605099 3.0564616178957427 -2.092851748034473
Ni 8.403051193631523 8.78944457295138 6.205825571650029 0.32181572672677483 -1.0343337187393928 -2.726001328120092
Ni 5.095042302079628 8.555317679190486 13.158979398529468 0.21762459932914133 -0.2310380445215698 -0.8117710586786859
Ni 4.071337009080623 4.470484238141884 3.7012887927954403 1.3958809597278345 0.686720828443856 0.6537520868273193
Ni 3.243051511282351 1.0915030502851948 9.164854232912425 -0.624019592759893 0.3004624578619793 0.10621715668872675
Ni 1.5894601268699347 1.6724993843565523 11.7018743430407 0.6566276086029014 0.5371427882709909 -0.15468836481623682
Ni 2.1691290952112916 3.529957436796979 4.067541485675047 -1.604482015402127 -1.0601049141662258 -0.08556039967032361
Ni 6.300383207698589 1.1444770098734047 12.07409089942748 -0.8721603584000206 -0.464254070531065 -0.9078182168129463
Ni 6.0905294704688275 0.5745859930004589 1.3731190056632674 1.9801338141127511 1.1645696069402203 -2.2255594948145605
Ni 1.0987432269942896 6.971259838018875 2.385744971841791 0.32978897474023844 1.3652524362087004 1.9194678636912619
Ni 1.345391913550784 4.272177654535345 6.10178794525147 2.0557245041648726 1.3710754706483808 -0.9470460519653174
Ni 0.47799182519551947 8.06015456823323 12.333697645837686 -0.8256670999344876 1.018092574290182 -0.25642768823926804
Ni 6.084403167099594 5.653733322520274 3.2836689026203723 1.013029815055294 0.1787009256807503 -0.007669086509483566
Ni 5.700608825572746 9.21879633407853 5.538326762232869 0.06523042986371991 -0.48367566959078645 0.22760870712504672
Ni 2.986999877281866 8.335884631237922 3.348321824177022 0.38829005629992486 -0.950392599840047 -0.701476903707108
Ni 0.6874092953671691 1.7547867773387635 0.5553939553546585 -0.26906080362224627 0.03740260901817429 0.3494293746789853
Ni 1.366119239950026 6.89404056873303 10.794767454802752 3.325494396493531 1.1016973928960316 -2.8687559176132207
Ni 7.886455303159781 2.595259905930678 1.9970078173693118 0.2639957303945131 -0.7174198001896097 2.253908735381215
Ni 4.67681070979542 2.2341328868699972 4.587609876283806 1.0933667615431493 1.0520257367025174 -0.1289930169326617
P 4.932528181793947 7.33543144420851 4.190124174954504 0.1104877590396226 0.6965514413810326 0.3008926034208625
Ni 9.062751961441874 2.9680361836707365 4.836469601419925 -0.5141252443298953 -0.8551689660483465 -0.9412055340241403
P 7.206862613955084 1.786448627024305 5.714246348163775 0.40568074097254647 -0.8852133349292368 0.22780411096530448
Ni 7.375595860388321 2.4205674371291868 13.482682129826394 0.27997359388000814 0.15522623959757784 -0.979748684404661
P 4.395427739590935 6.793931202313048 8.39815386384727 3.535533727276246 -0.11476607470000234 0.5279806621557487
P 2.9982407157366264 5.986094562579052 2.179597648150416 -0.05330102541598563 0.6174080009806463 -0.014143381379917578
P 6.267338298616054 6.624279010374425 13.341324177175801 0.765387843428456 -0.45150345573361594 0.9023240264675944
Ni 0.30788108873198866 5.18369733765471 4.091424786537228 0.15983082824912473 0.0589314842288856 -1.2130197320218075
Ni 3.085689055193526 5.438347347702537 9.131787046363092 -0.07539682887376047 0.16361163544779567 2.972905393139641
Ni 4.596500441991461 4.770051190619595 1.4191331133329141 0.025767852992723363 0.5170095078562257 -1.6129630562899449
Ni 4.844754962612921 8.863080882994005 8.033951626140789 1.939712729983227 1.95443023869906 -0.45472633354628783
Ni 5.65739053998615 1.3110660501274094 9.65334988370283 0.17105086533466024 -0.6525331268185536 -0.12303422824606554
Ni 0.8183878049458261 8.68960439258853 0.9215296915335801 -0.47486784149116923 0.3697904548338406 0.14234835519364517
Ni 6.777380900938283 3.6803767490673382 4.786231129108856 -0.6352601986707188 0.7924751865635513 -1.75255261779153
Ni 3.8036175518450963 7.603150901444037 6.323830241502658 4.997678186118005 -1.0765041814598557 -0.7937910771614975
Ni 2.1761650618080783 3.8080544806488748 0.7451469199388501 0.5154555331055446 0.6342718666155206 -0.9312792760493639
Ni 3.336756105998135 5.543227804928258 6.954145174151916 0.12112749814165591 -2.6461809162573395 -1.9213439976680526
Ni 9.213783904049157 7.8733301623050895 8.154170119256392 -2.0712125724981427 -1.7681250183084904 1.7113062095472336
Ni 1.43521651613272 1.8269472052060747 6.074616861581133 -0.08608207650174853 -0.07745242585120854 -0.2882216928214133
Ni 0.3051121852546515 5.293803717299943 11.433165394988265 -0.17003476536532006 -3.373392762836706 0.11478792907687328
Ni 4.921008875004221 2.583582800417805 13.487192388625049 -0.20524987981387235 0.5288841478066246 0.9525489840614176
Ni 7.22089741803733 4.706049884966764 0.9799532764370587 -1.6259692387416256 0.3281280420980478 0.24726684767560642
Ni 1.0747114096867942 8.997748169783168 9.863477448128641 0.30711852972591624 0.8461788467345943 2.150266024287884
Ni 2.72044070477536 8.808612476674815 12.140130593292255 -0.07149158028208333 0.4113348539345303 -0.6812176392374396
Ni 3.57977542192225 6.52946054231878 11.433600733818595 -0.4017798632562435 -1.1380797881798077 0.6771583815664015
Ni 5.296783328484071 3.633770432071999 8.949346660255086 -1.9270603313265393 0.07391073124653723 0.21589347557064756
Ni 5.366901655228304 7.3706576885816055 1.6786303288647022 -0.531196340879569 -0.15098623337430125 0.4623280571529457
Ni 1.6296895189945715 6.380628499557723 0.029695863240687095 0.8664908188190691 -1.1240564773175223 -0.5666310275380951
Ni 3.4496750158265166 2.6535618929945555 2.1493160731785186 1.408174689493523 -1.9994086031819631 0.2746084729133529
Ni 3.0198220116964283 8.000450957216694 0.6776081382041779 1.3404847423457171 0.3176387125309497 2.031081765915528
Ni 7.078043162200191 4.043842902141727 6.997999295770016 -2.495812518972695 -0.49064181649597444 0.24404217009072163
Ni 7.730977149470887 7.224322578557401 4.2597635361625965 -0.21863427154057832 -0.01718679619193169 0.04997838880065586
P 0.5930243096862868 7.265062495962807 4.743980056872371 -0.6344063353108558 0.6985422465588162 -0.21841675621313353
Ni 7.824310453073384 6.986844782499094 1.7244959200890344 -0.02896450555315012 0.7217107142554797 0.4588444694797195
P 2.282428578430792 4.630742764914347 12.328073513699174 0.4977838268573943 0.3287790454184854 -0.9035571275437471
Ni 7.396703760178681 2.918431690935605 9.163345862764697 1.4586297608202814 0.3330167376489168 0.29056088247755124
P 8.40465702769649 0.15963290124657425 1.9437804515962835 -0.675393833466811 0.42989667609711774 0.8430184467287417
P 5.587940537245833 3.0997609883871005 11.205525885204278 0.1872830109228065 0.527713267426975 -0.3494805396318949
P 0.7438279082588984 3.1393313387856523 2.402740822552499 0.3047410306326752 -0.7606716688997094 0.8420851362811949
Ni 3.6030739392810034 1.0394294716467056 6.266362731215893 -0.24605740074853752 -0.364352828758037 0.948042868660948
