# total energy = -381180.2205202211 ev
CRYSTAL
PRIMVEC
9.08745397695086 0.00000000000000 0.00000000000000

0.00000000000000 9.08745397695086 0.00000000000000

0.00000000000000 0.00000000000000 13.30040746920379

PRIMCOORD
 96 1
Ni 3.523487562679893 8.739022679516523 8.392836125693664 -0.24032718313297963 -0.2937745043188425 0.35937285904494237
Ni 0.42576175206948447 9.001277509724524 5.6502789082760705 0.5861909519478936 1.4727235199091862 -0.6606056194140428
Ni 1.5557539215478575 1.4306651195168392 12.187362451457927 -0.44312962984762394 -0.4937325396061561 -0.3977128922757215
Ni 2.514362164181059 5.4182671244290725 3.560412613845359 1.5884709846858514 0.5416136795581511 -0.7259764315103691
Ni 1.0937932058742788 3.2998998485374176 10.861751024503322 -1.153922154528703 -0.11575157854172323 -0.5044982627630925
Ni 7.028491244260542 5.476481353692473 4.1207322948413445 1.1723237969643423 -0.8677701997521248 -0.452891080109762
Ni 6.0611045212232755 4.4571780068990705 1.9002692926105627 -0.6344500440645976 0.6278914170104735 -0.34874700389998003
Ni 2.316573731474549 2.8195552137567743 0.5325602357679324 0.6498275549619326 1.5240229415141109 -0.9359604835751172
Ni 4.648005449968402 0.13184259772077142 6.00957593174587 -0.5478704591011403 -0.7666823938701636 -1.440761622290609
Ni 3.686661883731035 3.3929644632558817 2.6587381782302857 0.4829650166770069 -0.587421224810569 -0.34656747975015795
Ni 7.978048382874645 7.467442526825328 6.224670511534681 -1.0820981306078654 -1.1884052759072374 1.0452539651963224
Ni 3.502749993029709 2.820909244378105 11.39261008891345 0.16594311179444968 -0.40638239502526136 0.06676897799543341
Ni 7.685205183059929 7.029999761597059 12.74817467245174 0.9544050634335499 -0.0014665572431974744 0.5314092282213235
Ni 3.4899912078461606 6.934163473459091 12.528704483641645 -1.4761772827857416 0.27619895732892435 0.20189150486460067
Ni 5.800049234921419 3.668096215547281 10.672340315486782 0.7516720365042603 0.5007046000486152 0.5980964451362281
Ni 1.0970101645316694 5.363115367107878 9.461710624408536 0.48238549002445313 0.3474668516359758 -0.05645216945045762
Ni 0.7416425560998802 4.167315491942049 4.254161562001609 -1.3987873347413524 0.25661897831446767 0.460551167758181
Ni 2.410592528845629 1.1917468707556698 2.12093629909065 2.135744176522625 -0.9200438123448605 0.7904764109659677
Ni 4.3354333878791245 4.0709430440278505 6.834614051684374 -0.5523056120543586 1.3296418860939423 0.9764589579097958
Ni 7.2134936294220005 2.092431682648173 0.5318259694981099 0.5434782435707156 1.7787148780091948 0.24256095755950485
Ni 2.213740103884066 5.056522849641659 11.612080277723543 0.41757697818950024 0.7761597372329794 1.4960418829201525
Ni 8.073466648136229 2.345889857544441 11.613078080154562 1.1759529090764973 0.7415994827596066 0.2709292242895528
Ni 8.22043803900057 3.6588451875438244 2.4427530279656997 -0.13229817004649475 -0.8295391812953842 1.5535014105892018
Ni 5.225040593547449 8.527821164950383 12.267218452028038 -1.7107472517199698 -0.49146199840442456 -0.8844366046642123
P 6.073617945153294 2.7687836091837776 3.168928737639369 -0.31902556557614736 -0.4987479905428765 1.0196429494964376
Ni 3.038926349320071 6.438215680444721 8.075528591411262 0.9855159259057413 -1.1409072303262737 -0.1259629718570863
P 6.798569574795465 6.635567915367178 2.2530887789871756 -1.1676086508768602 1.275473627581655 -0.6134569867526983
Ni 3.678337776018691 4.5150105631014235 9.695996997950292 -1.8011482673120462 1.0575260976954561 -0.18343535504194214
P 8.769810973107592 5.439822564924357 5.6954871736116255 -0.7602464084368326 0.037711398507844725 -0.11015531540086836
P 4.469973141897956 5.28647178146824 11.739271916571848 1.0396762139982287 -1.1688108987150774 -0.11012369083198452
P 2.193856754894319 7.206850700669027 2.11495130199529 -0.5467854535670776 -0.46467727411141263 -1.0762226456636947
Ni 0.7723581500602755 6.024682006254854 0.38341239971024355 2.3285823129357057 1.6553111822388524 -1.2541524975063756
Ni 4.383324269586605 1.029072359665422 3.62368310242224 -0.4437667492109906 0.7904787249588129 1.4090840886816702
Ni 0.9847710222225443 6.791808509142644 4.691292627563357 -0.4019271874673852 -0.20838405456747983 0.026571065620309076
Ni 4.732055310483105 2.774081594769254 8.778827544802121 -0.023191864735431025 -1.0879216792681778 0.24881336622711986
Ni 8.854678704467394 4.515955658300205 7.619391116154791 0.8115139483625572 -0.38912669326860727 -0.7050165414292503
Ni 6.655033241480541 6.085867832922115 10.715991899980496 -1.003836064371168 0.4357299949494431 1.7174727433692614
Ni 4.357016090735911 6.979282681747068 10.04321770401951 0.6460575463965389 0.2052419093940723 0.3412239560500575
Ni 4.824947263578715 3.3824411917156043 0.1968178926369923 -0.30081675587760454 0.49752594521031734 -1.0923709732887832
Ni 0.9424689246232424 7.688167693009956 11.707271356639264 -0.7286830318082547 -1.0719350740319347 -1.5278397441570397
Ni 7.351377566451905 2.9133740871434965 5.168990087042029 2.2122866889650545 1.036149431791893 -1.9721325410748294
Ni 4.963022037139142 4.38743179871977 4.553993013815006 0.3838528464641776 0.3331249810920069 -0.7272961787630571
Ni 5.949392451236547 1.537797112771011 11.74000345660552 -0.8946104598734207 1.361374441310533 2.689361051189239
Ni 5.33219076170929 2.282177718711207 5.733978901818148 -2.0337778246904525 -0.4307909057766129 -0.6218351835140645
Ni 3.968663751121268 8.255497435893826 1.2090484741110532 0.29554085219064585 0.8858849070749646 0.2838844988986401
Ni 8.009309224065108 7.708850737937134 3.9120616361680964 -0.24769159391785087 1.0098593877471125 -0.6067271242280324
Ni 7.857566919937686 6.263791091546547 8.799788665816632 0.4831524500974646 0.7616779986770366 -0.9722320643126418
Ni 8.74262131123496 5.2339644732128665 11.726689427992687 0.695688322049789 -0.11208235722025213 -2.1708433342186035
Ni 7.0004927989966435 0.5073625437758069 5.350527426056416 -0.2883469055453679 -0.7706452351726534 -0.12590229382247992
Ni 1.2728796585895186 0.23322132395236142 7.848969279864925 0.18348806265674852 0.1862720531597889 0.08423936686605492
Ni 3.021542050134794 8.848035775714422 11.088709275272992 -1.1747010389472672 -0.09108852857740443 0.01768096221953084
Ni 2.173464508489843 5.097443654258127 6.061261734174611 -1.0353588175697976 0.04971536494725631 1.493955432704769
Ni 8.808078241204406 8.158616090564898 1.5089180932305553 -0.6996257094309822 1.1210943093654047 0.10933590482336654
Ni 2.217156986525814 1.8357565490945145 9.405808243400614 1.2247904994044907 0.44116479281176924 0.43905083179255994
Ni 8.934121225888038 3.9874747805585513 0.3157926557282017 0.8601247673917252 -1.552767874857287 -0.012098068815114648
Ni 6.9463951863202436 1.5633964702226186 9.70981628899632 0.7463233705978373 0.35477469815129864 -1.2544165498010396
P 2.366400240848764 1.1438559890481894 5.039045858427272 1.0767443224951199 -1.6295723827118516 0.3714164204730378
Ni 6.075081025220639 8.640987227550621 2.7730020052537228 -0.7000779664770524 -0.8849518537377341 0.39789775459301796
P 3.904351840334961 6.14310970462523 5.430742381052988 0.8009356586260786 0.40688041770760247 -0.17851812024598288
Ni 7.621511219134365 1.2377839118809248 3.1359167440950113 0.07048936426981409 -0.007767045539928559 -0.19684340091773195
P 8.204416857890457 1.146118765052964 7.04233961515884 -0.08992613283818707 1.5316809722800009 -0.4907312908859872
P 6.336172661337833 8.039352346441754 9.224270904386227 -0.9117985416169329 -0.4496694878486707 0.6323908475427238
P 1.6806337121406836 7.751516333689813 9.443542077957346 -0.15738108115705152 -0.037370213118342085 0.04319813265402883
Ni 2.7049715083583643 7.984936672881148 5.852152151481159 -0.6648926768251711 0.16597345081175288 1.8184422785058039
Ni 0.3640361306444581 0.6072100340362944 10.293889665570138 0.14831177186593167 -0.4242322787224887 -0.035787956232886754
Ni 1.1345958735908988 8.72271069988371 3.3564637961844843 -0.05032548772742946 -0.28116504308494805 -0.41139990284451083
Ni 5.56707418096797 0.8248681845517999 7.899271063074682 1.5618652091728649 -0.48253358556654313 -0.5632988778410685
Ni 3.1834441276491146 5.198059943113007 1.0881062772646883 -0.2871829671442538 0.5939088894174417 -0.35673207898798565
Ni 5.191825949782585 1.4363811279787 1.4590016180633791 -1.0737045072275315 -0.11313008175847614 0.10505861760425134
Ni 5.596844679729584 6.655551226349103 0.3616206854152649 -0.1856174502949255 -1.0015819782296687 0.6563977519802825
Ni 8.248618233341157 8.628700989966463 8.4049533366365 -0.7452941580023744 -0.20911630474781404 0.8459919275347688
Ni 4.8971379968394775 0.5352891981544137 10.119907635673702 -0.240369863445457 -0.5052482535552396 -1.1378730714856402
Ni 6.701142982236472 5.210855078111894 6.457201188995626 -0.35966930723943863 0.8259962011391322 -0.11102846203444103
Ni 8.678127651371963 6.0082428022683585 2.199408280441776 1.3851077803717307 -1.932060355644292 1.6605891428083401
Ni 5.831500912642403 7.26406531001064 5.158895743322737 -0.882360438861474 0.14405531058242288 -1.4401530421723328
Ni 5.686337925091115 5.204121274820578 8.72247351733863 -0.11054458041948705 -0.4997849164478232 -0.8515231417656431
Ni 1.7000899508002123 8.547304665971415 0.3251082046538825 0.9662059127232198 0.19313355616631253 0.7060444684731324
Ni 8.94321776717631 2.463681434146407 8.749220620209528 0.26104873195104716 -0.31172568948062446 -0.060857497607004866
Ni 3.172030285633062 1.6729275512890815 7.254640711638945 0.36119911362040374 0.9154361383695202 -1.6072626634710578
Ni 3.4810037160039027 7.86193798523205 3.7067033544175008 0.051509994953833876 1.2338870623891203 0.4730621557409982
Ni 2.9137921100198807 3.2214205972232244 5.047783445289082 0.9079079483132751 -1.233760821223901 -0.9892584236673093
Ni 0.7262929378281334 1.8878458344735045 3.9216779798156973 -0.42416260182681786 0.3603591342176117 -0.18186826766513836
Ni 0.9330997597199383 6.796833871113088 7.296297600016003 -1.3468381953675708 0.6841846922855637 0.4731973957672818
Ni 0.9543462267848509 2.5097911749023374 6.247653591027354 -0.9479749915374899 -0.03765509134861257 1.3453423275483347
Ni 6.667364916333871 3.1019841914772255 7.33170322890035 0.95244588282465 -0.7229906094091677 2.64242324898712
Ni 6.8071572186690075 4.691170855681976 12.86563001326183 -0.8585180850262375 -0.6439564408931361 -0.33595730833447945
Ni 6.699534502907777 8.971052638271189 0.5007641435466226 1.1692274174272057 -0.5334470845869587 0.38227521756441263
Ni 0.3107191302524358 1.7046336777174305 1.618606387248354 -0.6460606317203325 -0.20087900443968634 -1.4012067428161223
P 7.721700397659026 4.1607725251812555 9.64322070106142 0.35972612861930303 0.06195870109098362 0.3542224251922545
Ni 5.371039626851506 7.306103871448744 7.379637730386237 -0.05365095255623663 -0.3348458204378556 1.152032393705158
P 8.799599646776876 0.6085958707460459 13.046010519403094 -0.620258325945248 -0.6026634956816201 -0.4173363229336039
Ni 4.732718694613018 6.409253965074371 2.6825327673503736 0.5135881408795026 -1.502715438285586 0.12305042619598162
P 2.281187186243254 3.6807823011001544 8.029987725265368 -0.24060074850934052 0.16247520785050726 0.02394416952042328
P 3.6884975494055907 1.2159104105014362 12.911423510624322 0.6749945411458633 -0.7668867965714857 0.4715369773457234
P 1.4835450133794252 3.856497308442818 2.1837006164889523 -0.6863007101873019 0.19028425964297552 -0.09054705425163762
Ni 7.378967076293255 8.659125785404157 11.119326724731975 0.26193421987979404 0.16036536059635606 -0.27712815401141305
