# total energy = -340856.4083693671 ev
CRYSTAL
PRIMVEC
9.47259040847332 0.00000000000000 0.00000000000000
0.00000000000000 9.47259040847332 0.00000000000000
0.00000000000000 0.00000000000000 13.86409356690760
PRIMCOORD
 96 1
Ni 1.2050271946703648 0.13707312219348422 7.083179821549045 -0.8842705113999931 -0.5471042703590772 -0.22106010737325157
Ni 4.22712460748405 0.9630309227601378 8.695490521407969 3.7271698729614267 0.4448229583896468 1.1821821778156607
Ni 5.8652954796651615 6.763723334572802 11.73172672294257 -0.8408070408997196 -0.8834876104873818 -0.33128587100073914
Ni 9.379721316022204 1.4925866273387314 0.15681968454616985 -0.20393193233339718 -0.26649201445380555 0.2820865264579529
Ni 8.998440072014745 4.665572935727553 9.51940603144251 -0.8577765788745227 -0.711326285697362 0.2662194775187093
Ni 8.443961981582792 3.8082845417705573 4.801329367828442 0.31261194874031967 -3.5777890364010316 0.31867666687716084
Ni 6.433717223451791 5.286785426895702 9.055471698205292 -2.0225637011421878 -0.7175699526142287 0.3130066130755771
Ni 4.009633927441039 8.973896589785152 1.2556165119977911 1.15814287747827 0.6459372187685908 1.6089711615217321
Ni 7.002517870862187 2.236734399238509 6.672635850677959 3.8820068475403846 -0.8509657266002765 -0.9239081803962732
Ni 4.898361849580211 4.1202548404001975 10.878003812085232 -0.22162986383379252 -1.1001634727500085 -1.9250109049966784
Ni 3.0259811749573107 6.666742952069303 6.569861084507982 -1.793343426555647 0.032137503964493046 0.5226183694025709
Ni 2.571391552341277 1.1476043504882771 2.8337103201123175 0.6305869615647657 1.1345527488631557 0.6103778336067424
Ni 0.6286172152356408 2.097743077449698 11.793865969981512 -0.3313923146716164 -0.09619165413192467 -0.24187113058133183
Ni 6.974280078300853 6.7356086856891935 6.003762967194113 0.12159003960037124 0.48237109184674987 -0.3750069660377735
Ni 6.93120820886899 9.269772956995235 4.1572869860691934 -0.22423824799091704 -2.4589079326368615 1.5854900476806566
Ni 1.2775114578972433 5.796950738527952 2.0585957023010155 1.8301590527220997 -0.2586702044165416 0.4776376909268226
Ni 6.427995778732889 4.517374255881172 1.4118498431861797 0.2715941115670613 -0.2818355867894114 -0.23414445136103545
Ni 6.7133575703833985 1.744396503104558 1.1849415135744066 -0.4264064035556721 -1.2525044203799913 1.3984577193160752
Ni 1.4248291868183631 6.569952021377688 12.143116596153718 -1.0936231005283292 -0.6197163373988489 0.13751159592663414
Ni 3.6863154652795376 5.50640743982241 12.132261007332755 -0.852256420387242 2.4439752225864297 1.0765255216160945
Ni 0.857358491127393 3.0789140111977438 2.4345344052133413 -1.2603809949145908 1.164015534208963 -0.7497786761362893
Ni 5.168539078508205 1.4288171474585245 5.941637929041061 -2.5078951611688423 -1.132885645573378 -0.18679681531500733
Ni 4.187207110720058 2.4312351019093783 1.4065537177849579 -0.26152310048430444 0.27499310994628123 -0.49851787680994136
Ni 0.22491813832792984 2.9171789993922395 6.723946979408663 -0.19588309388699168 -0.4160294311967222 0.1521224038612735
P 1.1155206861456952 2.735106335580971 8.677370402860308 -1.8239997179889234 3.0115696424790586 -0.1622252966232303
P 9.281907345546415 4.523285152411958 11.81158445068798 -0.41140478794051727 0.21702039008623916 0.5831614210929504
P 4.163023586933046 0.8697363252568444 13.189120781705698 -0.7178435179905895 2.0044345956416447 1.547182924570342
P 0.6842620541631959 7.331699866601503 7.205294775935216 0.19022126761552402 0.2704121754438182 0.2426524888320466
P 2.368052922646012 6.070007634996586 0.2794044794258132 0.0003329578593865233 1.417301848605772 -0.9636587208213337
P 5.628319680769864 4.478328237451847 12.926146510665541 -0.5196104358141825 1.0111729643522134 0.8644521911224854
P 7.5565412769456195 5.4982041763678255 4.376048887769947 -2.202866166982103 1.9203047577702608 0.8595755797564744
P 0.17274689837127086 8.638794224924457 13.212384516946015 0.1588844051754554 0.05411040869115843 0.22679880962924168
Ni 7.967528565056514 6.386543722292635 12.415643027549077 1.886342541892203 0.7297875777263432 -0.014282735171259274
Ni 8.188865116880775 6.748557717031476 8.191198215944127 1.553745665389524 0.811969290732421 1.657261621097004
Ni 4.847285641096241 8.448177284397213 12.954817200617029 -0.21676199421852987 -1.0436799358409832 -0.2854184190446633
Ni 1.7024423993628115 4.10612173523364 13.781879505246966 -0.6373687603732895 -0.6434807868082983 0.5312179381461238
Ni 4.495672550829842 6.516261377889718 2.7108328221833133 -0.3483623668670517 0.5205861694638905 -0.017396341099576492
Ni 2.390929228931024 8.18574863457528 13.558792418680897 -0.05192445678343315 -0.015644134295160154 -0.24351766504581931
Ni 3.2351170300962306 3.265495628131855 12.389093250631632 1.1130974072028572 -2.151413764739082 1.4782321084322414
Ni 0.37908644476678094 9.172120020559547 10.761905847244503 -0.307607810657509 0.15531931353201636 0.8791499023439763
Ni 5.785621520177279 6.721011423583519 0.3086757316209748 1.18773498931309 -0.04850823201303259 0.6500399280830547
Ni 1.096783901950352 2.271820874799455 4.508936072179852 -1.3787813239330706 -0.09030048545847029 0.5689370499634524
Ni 6.157524899496472 3.3851344473366995 4.581666622762179 -1.1373858474365768 0.025380901966949834 -0.22901792876774751
Ni 6.30206715937349 7.459882962522323 9.641575926854127 1.199663879540192 0.9978556784180168 -1.4598772600741374
Ni 1.2218505155656778 6.477167996507422 9.782130226090985 -0.6892101705246131 0.7640616684178647 -0.5112510081058936
Ni 8.744887239579585 6.745554905813112 0.8199824904198272 0.02240896382281947 2.497033021643358 -1.3054208087630486
Ni 2.6305194628303226 0.21243515844288277 11.635024834602538 -0.18704364121849076 2.767414086738924 0.5273597407422982
Ni 5.111049926191958 3.450315343215444 7.281338838707398 -1.4978028314753173 1.0450595897973292 -0.1950174034525867
Ni 0.7758762140950768 5.163338626271985 7.64259597345776 1.0835299779583856 0.10432945274771063 -0.8954887487133159
Ni 7.022211386707545 2.834199105786979 13.212481137370077 0.7859193877229046 0.6064486737556651 -1.886642075410493
Ni 8.048708666448874 8.622643457961333 6.869589007053669 0.8768760187081349 1.9069679314520387 -0.6899712170603537
Ni 1.284019127635464 9.309652563396849 1.586648504680156 -0.11254721267181261 -1.0271536560511858 -2.223553263017809
Ni 8.96688687274544 4.453415324189081 0.3283654584300952 -1.185904878082887 -1.00900680993883 -0.45623737087417554
Ni 7.057335752630868 4.608718446981118 11.22091822240897 1.566347927534567 -0.667271975690625 0.510861743087275
Ni 7.576168484656819 4.886843179417654 7.1762072919975815 1.020165911879443 -3.074265221736067 -1.8808108134406964
Ni 3.0376987695223456 8.663441905650584 8.23328872499043 -0.4774808536339841 -1.9249335147915239 0.03979193518595727
P 8.339886628724228 7.720530765312545 10.343029785686753 -0.21178639538080946 -1.0585306277005706 -0.09949217926006736
P 5.022320170096013 8.645074552488417 3.40384281376026 0.612810354307635 -0.41660947206990834 -0.634660617413507
P 9.222817325419745 0.9655695770393854 5.6465127382651 -1.06568729335001 -0.38273364525806985 -0.21426853837271484
P 3.031759455219777 7.795411593959758 11.11574499630054 0.06725105983817452 -3.424275665729503 -1.2162667782041958
P 6.023269873004765 9.410393564366249 7.271439981536449 0.5588472698276182 0.10742608939516338 0.6119413214391203
P 6.8112946845369144 3.184353417101871 8.462809595088086 0.7488939595384909 0.14172383423576884 2.229943225704553
P 4.157747353972072 4.242091300622898 3.036597107236239 0.851216923379134 -0.10786446248416262 0.24808677247374047
P 3.298195010863061 0.07450571405968216 6.193464855469957 -0.06886391285124914 -0.09531413662297779 -0.4457177022897743
Ni 5.16688137515422 1.4543836694722916 3.6238380467563807 -0.6008092160817008 -0.6277638902936737 -1.7247517935291778
Ni 4.155227644874013 5.164105906110116 0.8558627690725676 -0.30970068863079564 -2.021424959552054 -0.3721964931721719
Ni 5.467333003621302 1.4653434567897898 11.562390904444273 -0.10508458574618032 1.4120639972456004 -0.46063781393471637
Ni 5.052888219943522 7.972037518179357 5.709732807890843 -1.0959242378576806 1.1120530250987428 0.18698861961083926
Ni 6.660652076317227 0.7305403955111982 9.370574582544437 -0.11606602445834849 0.28863384065816744 -0.03449906221813413
Ni 2.970860170289615 5.917479981248652 4.408241486904363 -0.48915443331717046 0.34057115295740703 -2.062136321228487
Ni 5.072392283976996 5.2460911777029855 5.414718446424835 -0.14293430960410222 0.15998869398322768 -0.1655348206124375
Ni 0.6189959049691041 5.238825700717228 4.559900504094808 1.7073991611833432 0.5866216117274091 0.5250673451636957
Ni 0.19402044232774276 0.1316529058554785 3.5023198655776446 0.4372279196512083 1.3526576302628253 3.14424525046963
Ni 8.99079569140522 1.0622563092344648 8.837223210914743 0.41844292573422126 0.5922849806607735 0.0665252374157435
Ni 3.4461095129916157 6.334340275527956 9.092641196437905 1.2952492675466853 0.34527395774971503 0.4688954259578183
Ni 3.2494206418934843 2.4413897190263696 4.758351277043462 1.4568503003223554 1.141093635305467 0.5919471377053805
Ni 1.5993143055636712 4.025614187773467 10.729754927508703 0.059369857317884855 0.591832209394071 -0.45515236534011294
Ni 7.559695649613491 1.7075386531024954 3.498285489243572 1.3586261891414342 0.31582197103718507 1.235340249895879
Ni 8.25713407729323 9.222495257339542 1.8492486083918445 0.23827235748647999 -0.15237668596392467 -0.6462503791336354
Ni 4.937786771633304 8.846594444789595 10.662014537651404 -1.266483508267903 0.14581600202727146 -0.6312145678464356
Ni 2.045132309289468 1.127039356308252 9.396209307210482 -0.6456739378048751 -2.301299565960353 2.3660252882735127
Ni 2.7695960379344813 1.9650794461778174 7.450966412995996 -0.2889832535777862 1.6835781475043454 -3.4501108816250516
Ni 3.0561797937716446 8.69012619335447 4.058159167277987 -0.8471527806120893 -0.3683370102167656 1.103119984275171
Ni 3.187147831327162 3.9462244060034117 8.941023858646073 0.1401336069305135 -0.3882142087566669 -0.4300049195402078
Ni 8.609448139263602 5.452906248146324 2.5689893033665863 -0.6409839885283736 -2.0591348153980022 0.8836860996514329
Ni 6.775137806238822 6.9378011319225585 2.843553288998759 0.2605813053963254 0.8819801727039197 -0.17614344936621923
Ni 0.6428611497121512 7.702854911263754 5.01483682352659 0.22601976537137203 0.015331488150747792 0.21713686105944538
Ni 6.921792453818348 0.15036221953809836 12.885302594541436 1.2887482332033742 0.1683848884667229 0.23990963597958687
P 6.480454985443612 8.69867994266104 1.070991932280443 -2.2478190775437095 -0.54427888509514 -1.3949417357430172
P 1.9716818418219804 2.0399129118720594 0.9466016616335436 -0.14292376808114096 0.03327444578241367 -0.7163571632530501
P 0.2313159260152578 7.574160295450847 2.7979266618836385 -0.09843417030919821 -0.16195224546750175 -0.08337110532848867
P 2.6138287582033284 4.393861147123296 5.763567434755845 -1.0612984202536948 -0.7559038151974207 0.9253888787068579
P 7.946006839226474 1.5820741906822129 11.325924730922942 -0.07508778227377391 -0.5312734739744076 0.0843985181517385
P 3.395203811138343 2.3624546216048357 10.566782795371594 0.9466873830743179 -0.31726513124161493 -1.22835224861382
P 4.934698707099591 6.241632031382444 7.31624912408329 1.2991002658616595 -0.25427490356232335 1.450944733471198
P 8.00518211266849 3.2023323940496775 2.2859814504787366 0.8518193328498234 1.958369425852466 -1.928920781574046
