# total energy = -381161.5897220303 ev
CRYSTAL
PRIMVEC
9.26807844319881 0.00000000000000 0.00000000000000

0.00000000000000 9.26807844319881 0.00000000000000

0.00000000000000 0.00000000000000 13.56476963335244

PRIMCOORD
 96 1
Ni 8.450698780033514 5.396338660127103 12.786681222151492 -1.1550732374140107 0.32650593311359255 -1.0361221780983834
Ni 8.144963409109902 1.9834707307727977 4.317788277371401 -0.2248730533614385 0.07542871055296041 0.9718754523041712
Ni 0.3749391856789625 7.310938300159832 4.8740657586110006 -1.6631077954651354 -0.5169634851096386 0.9624973535233812
Ni 7.115465258200638 7.542770013761239 0.5931737014301808 1.2823222750723722 -0.5302103228172159 -0.26980590931838694
Ni 2.8445678967880985 1.1651920870585477 3.456872765693135 0.6992418437290022 0.7006472087169611 -0.7086263702676957
Ni 7.99038112914037 5.769777343909844 6.228277524624799 2.7801356480706505 0.1504676418666699 -0.04872111935478706
Ni 7.1850870632927375 8.965447855488144 10.017148615060698 -1.287286561056183 -0.5527213594355384 -1.980927770768956
Ni 3.4531099258545574 1.8259412018656607 11.271455129744586 -1.2253710544983092 -0.6666276572384068 -1.0692917228718166
Ni 2.162576346242022 4.788677098510557 7.520796326634927 -0.6430642680961699 -0.4818607278692346 1.5519713470979206
Ni 6.524486237740347 5.729007066939644 1.9718290974692583 -0.7837367782492889 -0.6934586613883218 -1.0977088405619289
Ni 3.999073889428224 8.10609308821583 10.189040885095528 0.3388770530844357 0.6486494754934313 -0.4704280605522608
Ni 3.9295262289634856 8.995671059216225 1.9700653821459055 -0.27329258231540676 0.12284730904624006 0.4092795140673983
Ni 1.3747340720595158 2.314294789979731 4.894006029331933 0.3494041778680047 0.7555837128538406 1.2283576479304588
Ni 3.0045256622413126 4.879661824361082 10.326587510120998 0.6773298741472593 2.2443583726886187 -0.806039041290915
Ni 6.323387472180127 3.871406109190781 5.491791526583977 1.5849843116888316 -2.557470143883492 -1.8467164428601486
Ni 5.275955589527891 5.1685107564031965 4.103044119953208 -2.044200048465041 0.4872497600952898 -1.108134663880943
Ni 3.507254039985021 4.867372352375974 5.729365741574503 2.2757960223726097 -0.630347848970766 0.3751648317718765
Ni 0.37212076303139763 4.73756364602348 10.379707501586036 0.7313567219856758 -1.720904651868946 -0.9110495792660502
Ni 3.5175323389529574 1.653100807408451 0.11780654479841236 0.6202380142302738 1.1915566770520254 0.9734782780149169
Ni 1.833587366562277 8.91195250684709 10.738156922139884 0.5261690628683067 1.4935885362836536 -0.048357565367781234
Ni 1.323481598396136 0.9434625789350943 13.115083532467242 -0.7613321853018435 -1.663702234516025 -2.2179572569872703
Ni 0.1561745358421121 2.7629717343771776 8.91956808688492 -0.5908053107914535 0.4878753094944307 0.5964396262590954
Ni 5.607076227244269 0.8625846926017338 11.54261500731402 -0.5406433452250817 -0.3370857655119679 -0.4007424231306647
Ni 0.9399685133707011 5.45004717457182 0.7035824660336366 -0.09061878802983749 0.6127656171126286 -0.4743330520336218
P 2.4363090423808873 6.7100146315547295 2.004221958355493 -1.5839180752078463 0.47311769156928196 -2.2655830863953494
Ni 4.616772779973782 2.744472649850576 4.5010886251335815 -1.890953815411969 0.45715628314401907 -0.0020154877681320127
P 5.565249389334173 8.697313078715046 8.160741385812349 -0.7139768359463318 -0.30969271821099564 0.9897266215529794
Ni 8.672808279372193 6.579204972732859 8.575199657874794 -0.6924541313832074 -0.39921081697748667 -1.4280513738127922
P 3.836159606958985 6.448969934773038 11.57846671506665 0.3356354062186865 0.5238399005144979 0.5571426284316856
P 7.905791377399743 5.853023224279551 10.446785219151806 -2.227519446754409 1.0286981177201704 1.366643403018956
P 4.334151996630002 3.491275872788698 7.378339473662465 -0.6968990545284385 -0.05109450468297007 -0.9976132233899077
Ni 3.3770004658683592 9.003734287441747 12.569549607732272 -0.06395310581319308 -0.42570937748864746 -1.5611062195196532
Ni 9.119928186595056 2.133817498904325 6.795556214949105 -1.417283593773327 1.971341926852734 -0.18267533694746602
Ni 6.277714381725672 1.657095349207532 0.07841906512849711 0.1554039028260227 1.582351502051675 -0.10414947552642063
Ni 6.251541328267194 1.6125622323987543 8.567331986103936 1.8039363715801446 -0.4879444721694694 -0.36284847629836864
Ni 1.1249315544014553 5.470149636665106 3.0426044892383035 -0.4655105686459854 -0.16765546649986607 0.428213889078056
Ni 8.728963566519827 9.199958043752973 1.1664655210334753 -1.9540898246405056 2.3168884215375454 -1.4684668015153615
Ni -0.019905052022936846 0.3448957826722334 5.640746229336799 0.5111934153950808 -1.9307164400218877 0.43076133809025813
Ni 1.2264818896509404 2.9317712466432053 0.2898369092017017 -0.00962415335332536 1.41567022653962 3.176715969403826
Ni 2.2040602652505736 1.7492663890958342 7.3446991294208805 -0.48062814101371415 0.5032325086767914 -0.681699978190497
Ni 2.830637974922627 4.210404613564279 1.652174926374279 0.6136140811558529 -1.9846067622824402 3.30243931444628
Ni 9.17147723876788 7.941482747395705 10.418828060597452 -1.6395932572829635 -0.6577992603134994 1.8053252815078715
Ni 6.025048027835789 7.509571756860295 11.231574588302719 0.500126358947642 0.7301907267020328 0.5835910524312014
Ni 6.553504591273808 3.423322321812224 11.941744804477393 0.7003258208218003 0.3217627620016523 0.0866394916671153
Ni 7.205374886954426 8.591434550843355 4.977917357732206 -0.23301393730101802 1.2174566847472388 -0.9873887174484222
Ni 5.919901678159288 5.907890248526786 6.175076900877505 -3.164564935863589 1.8733597564792897 1.595681900611994
Ni 2.286434946248787 7.796085133140534 3.882684433820251 1.1708466981981835 -0.10550856065747635 -1.3823559286582066
Ni 4.290749585388482 6.7164744822135685 2.6538660615995933 2.7875879905836376 0.007793527902489804 0.6730312467719054
Ni 8.790735309190067 7.264542299588606 2.3350932847623693 -0.09974286181829274 -1.4809063128302948 0.5209062718074706
Ni 5.876369513819887 5.901801121004753 12.82238371384156 -0.5131029737129679 -1.2462108740617956 1.5818483371630112
Ni 7.763359548239015 1.6505242816076517 10.818202535031116 0.5869283443345504 1.8227905281721704 -1.8407016041246362
Ni 8.523666361435284 4.253510446296355 4.279820667315451 -1.110129839934101 0.6285259652706788 -0.9904336749223329
Ni 6.479582397794764 6.280633826428017 8.581642825992475 -1.7671796236760855 0.6033126992298449 -0.3471737458755892
Ni 6.275286145179595 3.398863862861472 2.9965254569490467 1.3553053522983174 0.3645708583061141 -0.5866208403964607
Ni 1.3960784566611004 6.963895103717652 9.069988072835967 3.279958873955577 -0.7174609378401902 0.05716282236423703
Ni 4.351909634882992 3.6875830418057047 12.13113613337729 0.44896397714121383 0.5001993782774223 0.6821365515072834
P 6.317261272344414 8.300871024293514 2.7069443467117407 -0.42188203332275725 -1.0540399389190687 0.1103417203800616
Ni 0.17693595831107 0.03593790088193878 3.270520439707201 0.9856578508002445 0.9909098432278031 1.424582184317269
P 2.8263931950062022 4.175463957920347 3.8821014716876245 -0.09781196334416704 -1.6111792249166446 -0.13710150497240906
Ni 4.758314873606175 7.531351741147626 4.949133486582774 -0.3691183684674804 0.2902114695579324 -0.2780676351065469
P 1.1703173344248858 2.1709361529769895 10.941898943665528 -0.4347907709646254 -0.33934576519073817 0.26794211663677076
P 5.08661801548283 4.391354576639112 0.7197098492925239 0.21098215431195924 -0.7655174270277848 0.34564908170094666
P 9.247799864557742 4.706256077120243 7.531241451014426 0.41832516920943447 -1.5076244455514292 0.39903418219030634
Ni 2.6364717320206728 8.72653532997375 8.136487751394682 1.5801660643645818 0.6824594820643408 0.775263193560639
Ni 4.843849969345658 3.424147180791617 9.359555280955643 0.05910940456764659 -0.24823461090551444 1.2636676360856625
Ni 5.441974678267877 8.833303593373774 0.16727027932670493 0.9458741431444032 2.255942220871476 -0.7459125083126638
Ni 2.5778974764053815 6.8826047878945955 6.217873179790348 -0.046227920619288126 0.847621749828708 -0.5062638393039475
Ni 3.1655214524775817 5.291776199391072 13.493418542079347 1.721724833777396 2.5329325637534446 -1.7219431204357891
Ni 7.97464393198297 2.8706111971486945 1.1886505203477669 0.6768441927600924 0.8260972454933707 0.11334759708592092
Ni 5.488305802290161 5.347468082617699 10.503458591883128 -0.07254856079168796 -0.5266624575649576 0.17726959255086244
Ni 2.053259361276459 4.073867282278762 12.208035233644884 -2.3388687824633783 -2.0649329101370175 -2.0949083734531855
Ni 4.5905811903584635 0.6044399775577042 6.453195251724781 0.9467796856778081 -0.11905158944923369 0.6376744645391662
Ni 2.507070821118664 0.19401146599233776 5.44180599924063 -0.16656171921505505 -0.3508033722083765 1.3973881404009807
Ni 9.168724619477098 0.4233129941850465 8.904931937443834 0.7035057612116787 -0.031018045648069162 -1.124583810575902
Ni 3.9763763653772983 1.1993634921936076 8.73181813467323 0.38301518105423066 0.1543196686229084 1.2205535785050075
Ni 7.463843057935319 8.2184500029032 7.210950562931983 0.16325990853533173 0.14408590671004218 0.703546384641627
Ni 7.32788961559027 3.9057165355021435 9.645093655386084 0.29089281189567323 -0.31078235173074864 1.3994020855072156
Ni 3.984272768191259 7.340475666084822 0.31540661075502874 -1.3441400797101175 -2.124908005139069 0.2887037746641544
Ni 2.4105901247649957 3.0129503455252205 9.335206185330248 0.24319576293002634 -0.8787192425644608 -0.30314540401078116
Ni 7.127819606734686 6.506181782860569 4.069050661923815 0.50817236918057 -0.05237902782234851 0.07577812347257916
Ni 0.7119756378509164 2.7450472707126243 2.756632368737801 -0.8391574211114387 2.166403296169379 0.16342471624797017
Ni 7.084926939806274 1.051889828372324 2.58581148856834 0.5601443913724868 -0.8553468863871075 -0.6492290021459851
Ni 1.3888678916502308 8.300138846098323 0.8476389893414144 2.6356273091112095 -1.8444330461426104 0.39913445521359653
Ni 5.049462289096485 1.8052270465966458 1.9714769104892929 -1.7178784634481123 0.578179651607643 0.35747307091906816
Ni 7.738131838779392 0.2468126355597231 12.558276843949853 0.7782418165729887 -1.8729092992054326 0.03530664572109403
Ni 6.73697547167892 3.8279573575571604 7.537020097909385 0.11351394746045611 0.06820545333164384 1.230181588513075
Ni 1.1697890539549378 4.975224980951156 5.184251660791964 0.5252318957660179 -0.23456636938980246 2.5374636188545785
Ni 3.6808544168726822 6.5581942389544 8.285646351872748 1.4249249123686685 -0.5913246736300333 0.32685226070941775
P 0.10875997345251272 7.828097076003701 12.67905751511329 -1.1688227257896193 0.7209748645307197 0.4586477800878811
Ni 5.186324003126708 0.5664454900743362 4.187281684713869 0.24089719670383675 -0.861574355354058 -0.6200279551019967
P 1.1408633812056777 8.257496417287253 6.953029208577879 -3.0082781162119803 0.10182442693766978 -1.4580319793352825
Ni 1.262479106234768 6.291134559278036 11.670218837810364 1.732380256608713 1.3806525728138543 1.0328648475033502
P 8.520617163635057 4.934612261314098 2.069875172268088 -0.3653208490982612 -0.981698094821548 -0.10487349817663873
P 1.5012340744160206 1.1606970690247793 1.8224406486463736 0.5070637094974235 -1.7818372256882606 -2.0651699658484883
P 6.714574526137439 1.573432405308919 5.995682121361572 -0.14526912838486594 -0.08359144886941088 -0.07943037551318578
Ni 8.817408838883233 2.8940130951595506 12.411805059405788 0.073008531147242 0.027745802654700603 -0.47598755691790934
