# total energy = -381170.1209163221 ev
CRYSTAL
PRIMVEC
9.21782235794316 0.00000000000000 0.00000000000000

0.00000000000000 9.21782235794316 0.00000000000000

0.00000000000000 0.00000000000000 13.49121477260988

PRIMCOORD
 96 1
Ni 3.2717831220104254 8.392412548423545 9.296391492189386 0.3972629492224965 -0.6372851995205476 0.35453584266761523
Ni 7.028672586658198 5.713953004738659 7.568234137264161 -0.7249762723806288 -1.0308681287882957 -0.06944472505538363
Ni 6.758240111307247 8.64107252712241 1.63930399888015 0.011083254397355104 1.241454847434049 -0.39505385738631965
Ni 1.9629445108207901 1.526600449000354 8.824994816897785 0.16666327778992587 -0.93445870221861 -1.0945468978941795
Ni -0.14674404644478142 1.196113860318179 7.826888079074876 2.1051663037357677 1.4656349884935211 -0.4888122194864033
Ni 7.195100371185481 5.143803032079228 4.760739827645921 -2.2713001913847854 1.0471167294366743 1.526010404257785
Ni 6.202967704099327 5.930074070151379 0.1137405549066212 1.9253878287201227 2.4495933401041556 2.2044563942873583
Ni 0.8098253398058846 8.32039370153838 9.139246054879992 0.7396770689259132 1.4361840302222555 0.15355630809432264
Ni 8.43774579928509 7.694291546542721 7.627325909930493 -0.19201744028399834 0.7993660001461136 -0.8571556574610723
Ni 6.081854734788667 4.980186683402449 2.689203837545036 -0.3551817037817302 0.2496823990956345 -0.29019758560086156
Ni 1.3282421274693321 4.132137799198929 8.877070904889305 0.08461911880297686 -0.8031401224765652 0.10104898222422598
Ni 6.015809036858013 1.1553710850420458 12.196125785824751 -1.7339416875585623 -0.477658516862429 0.6219603962380191
Ni 1.5566228967547353 1.269487727105062 3.2328055597355085 0.04956572674326948 -0.10496682922139342 1.2792531492287451
Ni 3.0853526627435026 5.859631470906987 3.1579835730400556 -0.960703751958068 0.2583200201659745 -0.22361578391556974
Ni 6.3331694463562025 6.568767770628305 9.75551094974563 -0.6154981855524432 -0.5372695436568424 -0.008095118303308639
Ni 4.262533115727478 6.5796908902441915 7.36629745705391 0.003133146312342991 0.8661776584540245 -0.6439515557971297
Ni 7.458564172756169 7.414973090339691 3.4914991381828044 -0.019659683212456463 -0.18902261932173253 1.2007391148822417
Ni 1.5730121850897953 3.627563415524661 3.517631664858786 0.11743847932584289 0.33155866504615156 0.5755332151237313
Ni 7.889884521335544 3.5195305362856826 3.4105251767771043 1.0318757441172035 -2.128083317543258 -0.5509316145249672
Ni 1.6904748967060326 4.5203095208399375 1.3631656914260486 1.1918484972608312 1.4888397087447585 0.6406042365914516
Ni 4.1807802483238525 4.969033118225045 0.6418821452660689 -1.4970718668465635 0.3814825464597882 0.2258683273951723
Ni 4.567919573849266 1.2893429166853314 9.130935266149459 0.26977017098444506 -0.1997016963021335 1.8053612769521292
Ni 9.541828920156002 8.907983794293386 4.607370932198661 -2.1468441430905285 1.6321478567485115 0.06408140386094124
Ni 8.655461547983505 6.621410754701156 5.686007332384666 1.2070383176273922 0.07133731409240618 -0.7957983373995133
P 4.059372308694451 4.004461740296277 2.6022797717409776 -0.3852636107687752 -0.851588704896256 1.3456362046396697
Ni -0.08563172709507341 5.503805088280449 3.535750216687467 1.176306178650858 1.4162530956262833 -1.4806381467705727
P -0.06372188488832191 5.264971308324653 7.655400631798935 0.40462658867641926 -0.8431644853883026 -1.6921098391244405
Ni 8.475096415895699 4.537961650852108 0.44215405531739266 1.1076034739678216 -0.05990696076827748 -0.27506150129037144
P 3.1479508950738695 6.9991110300268495 0.5440847360874116 -0.7188832721090135 -1.033508137514304 0.6827608153548435
P 5.600914847903541 8.836167739502356 3.8531041737099336 1.2842662861726206 -0.8498447256219557 -0.06623213165535691
P 8.790290637115632 2.077153331108413 5.098910393131305 0.23711278996074003 0.0779285941566787 0.9014529367165507
Ni 3.888639801078038 0.6021560958073466 3.1388123458863673 0.6095118860620212 0.4851041745071968 0.6698574770296141
Ni 0.6221025418299767 2.598679290287842 1.6029857783851353 -2.478053138106745 -1.2218113621715085 -0.3647541779615137
Ni 1.2973716400485695 6.1962571293479645 13.08418462841878 0.5045414572962019 -0.533963619212061 -2.0793704257185865
Ni 8.037849007474117 6.120597242590837 11.96972961371513 -0.3370034902108067 -1.1983040230781878 -1.9712730212880114
Ni 1.4043168162371895 7.97386810177465 6.386943457244976 0.8697874872924698 -0.42779017127707614 0.8553016349714689
Ni 4.14936590937791 4.157348543628845 7.104797973449589 0.3360539818133438 1.2140635999052898 -0.5742288944900111
Ni 0.07999410687813151 -0.19493482226913111 2.1096350938953 -0.5939351146696867 0.049554413889359814 -0.9230543170364103
Ni 8.345051376620656 3.2621781510064136 9.536372891041536 1.092010504625571 0.6639004881152308 0.18774400971962504
Ni 3.9680605593991163 7.619442828162132 4.8749827538766475 -0.8696018536442248 2.1967690529454296 0.06882688896572663
Ni 5.313328004953295 1.6385416849626535 1.0032512045382052 0.40835211715712255 -0.588790851464586 -0.3214434309890206
Ni 2.8381030108811203 1.600315375218281 1.3250951628812617 0.07455504969875548 -0.10314931639668042 1.2827372511226036
Ni 6.518226450076486 8.128561598309508 12.894565724362714 -3.4266130556134278 0.04961020682795972 -0.6849686216394397
Ni 3.98158310494891 6.079117041517851 9.626346212515582 -0.644270115478813 -0.9123664983052611 0.4378974349144072
Ni 7.1012905920033065 8.616811218405942 10.77912985479292 -0.5328343907036243 0.03682951012352367 -1.2867993370071193
Ni 4.257242085635057 8.74916071329615 0.6198294268111771 0.5502317602444653 0.4616081482677856 -0.20144876090022723
Ni 3.4605088190700535 7.378286156946249 11.833738157170712 -0.16314343756212546 -0.0804153651342744 0.2437503498819157
Ni 1.517603854278746 2.8301111588077252 6.572299118412985 -0.455088601981713 0.30262475562062074 0.21025401789668308
Ni 6.056680861648595 3.6833773305239794 9.081125840701016 -0.9477543908862516 1.8739444253381665 -0.1739073609468489
Ni 7.8640561828007645 2.681243326068007 12.041543824941668 0.4997280950679588 1.7101019048264872 -0.33179572075762215
Ni 0.10083375989719993 4.348434003238403 5.393153425680396 0.4549703312362939 -1.2249398804981613 0.9873468084668932
Ni 0.8586042127032246 6.621926952758952 1.712304543857376 -0.9995024699928206 0.9834731844440997 0.6667153318562066
Ni 3.5896228582765692 3.5621814008111734 9.270771476442219 0.0892429907282334 0.037004859359123364 0.14145309707288542
Ni 3.09906878256497 4.560960117891465 11.659229107692166 -0.13075885058383285 0.40211359244657846 -0.00645244049356308
Ni 1.9666592932724374 3.033207441083528 13.239509545792194 -1.5569461746046929 2.1900985829037896 -1.2300036681743138
Ni 2.030889080178342 2.4742202514239615 10.762643779322023 -0.01785965388924021 0.1587458227150621 1.14910544986635
P 7.609376966035088 0.10988013086009525 8.58964076492089 -1.6136847649473176 0.46330353369233757 1.8790166976547509
Ni 5.221131344701736 0.7521660167499412 5.684388682760573 -1.606569236948459 -0.3592833846549296 -0.8326173060000758
P 4.0412869410266286 2.9648941588275495 13.144382539780391 2.764416694673497 1.415236481436311 0.56848427869675
Ni 1.6475843687965646 6.119223787044198 10.467159106087479 0.24732598304831596 1.3761724255553136 1.3546931726356155
P -0.09717704972705464 7.9805602408810925 11.091761521368786 1.0726297861061138 -1.5266637215710674 1.0663807198726087
P 0.720260367866846 1.5789300271095414 12.502457070748756 -0.2121545773535056 -0.9000681405538822 -0.5167112598895165
P 7.622659848200905 2.053472745206968 1.710982708116517 -0.7204426461763335 0.03689430192318807 -0.867424643487248
Ni 6.494628824577187 7.510165542890965 6.241899177261941 -0.9302557198808561 -0.2843295568558587 -2.87261720034084
Ni 7.604629787467846 0.8389315360076763 3.5402024249359667 -0.4837306911984378 0.22060527922402007 0.9992150206593887
Ni 1.745772613647554 6.40466287736111 8.288422606115814 0.8832775513591047 -0.08245476416180637 -2.0194410963528058
Ni 8.623982684280339 6.354582447932324 9.408598201438554 0.05186249319724616 -1.094227823991864 2.102640451990121
Ni 4.507201777300875 5.540280011757295 4.995311286495906 1.8362965330784053 -2.4481260115300096 0.4907870838245871
Ni 3.2326903369547506 1.1710506010476345 12.643156991006082 1.720472963648166 -1.6558043198251873 -2.0869302403437158
Ni 8.020353580443777 3.3504111475998863 7.135544020267132 0.44709581358422357 -0.06132903792678469 -0.31492182782041894
Ni 8.090491991546967 0.7489932422589808 13.303497825749629 0.22621516921162976 0.4795963573150901 1.4856129742773447
Ni 5.925400634163823 2.415576464929219 7.374756652726061 -0.23239198744630302 -2.092905484090544 0.10885690830441898
Ni 9.06193064720893 0.9065424201921521 10.595420496716384 -0.41475159292556313 1.0191757800520318 -0.6787612072771472
Ni 5.038166786680024 3.179466630066879 11.216650110759335 -0.20367250802442347 -0.6037194477499603 -0.11338487808175957
Ni 5.931567357390007 3.249144150047035 5.393315659355704 0.048558625634993795 0.6798189591177002 -1.026550475249548
Ni 5.731798709022503 8.590227018429388 7.996580816317726 -1.3118434244599406 0.454980615648939 1.0770320289388675
Ni 2.283420544310684 5.441778360942643 5.917719422707353 -0.29514258831096263 0.2459998080377247 -0.21318096173549092
Ni 2.403252236299312 0.9201912499096568 5.516139456515063 0.11860910259517637 -0.872471461882536 -0.9019617580321692
Ni 3.6641489528710354 1.9478088463403804 7.17572082124418 -0.24216346501077007 -0.4794487759936323 -0.3106082880467296
Ni 1.9284237657056047 9.263266325394747 11.150691060359812 -0.36455646012841086 -0.9834970957034997 -0.8477875859826108
Ni 6.237737330420951 3.8006925569808465 0.36561571007976396 -0.11059060316607407 -2.8319983983782127 -0.10183316868841817
Ni 0.7336510985554521 4.287882127494304 11.342509336854992 -1.7812762109784679 -0.21863195754773312 0.9618311806942919
Ni 7.345055906975556 0.6531859609495807 6.325922394337628 1.1882196422589923 0.056470938503535004 -0.5786985002255904
Ni 8.486950535580112 7.696725051672337 -0.0022297912532345428 2.9951737176195383 -0.4785152084357695 1.8569080386811698
Ni 2.302833278412842 8.24358158697367 2.4838537976776007 1.6808322093280925 0.7222411328376529 -1.7794383864387806
Ni 6.798540431105268 1.6775238561488002 10.112151266095447 -0.4752141690869945 -0.6700351402580589 -1.5191342459632418
Ni 5.184444411308295 5.608233798937307 11.733970899332212 -0.07860633694999367 0.14717945803370136 -1.1352142937065546
Ni 5.689120191029631 2.5159401158809254 3.118264897839302 -0.8450231358635962 0.1653026499969734 0.38482960855515014
P 6.7974342924099895 4.407686166015549 10.869656245614605 2.0092975801609008 0.9599218794867209 0.9422154633458935
Ni 3.4455022041040926 3.115725387751389 4.907726302821417 0.6104878768220453 0.02772343405719742 -0.26498174845686623
P 3.1731155503914814 8.912740190683088 7.269903000453766 0.475167375009459 0.29791835128388694 -0.8418061715881954
Ni 5.041632687925232 7.15398888301092 2.3211232817392906 -0.5368445403042819 0.10689181415824817 0.2868024438763835
P 4.806882403319511 8.78149683448816 10.903343699579345 0.680894451570066 0.6719395563696234 -0.14154231435258205
P 7.818704496294298 6.114255380737901 1.7456149888834767 0.011409013167890029 0.7040328373597423 0.002607869936492283
P 1.628936713958642 7.434579398713523 4.1885232191908095 0.2760860859001439 -2.9894033907946644 1.6830130190294952
Ni 1.7348771474990494 8.807408133425085 -0.02604495736260521 -1.1101385816848492 -0.6751182112079213 1.2119172429862481
