# total energy = -381170.57839628455 ev
CRYSTAL
PRIMVEC
9.20714297274218 0.00000000000000 0.00000000000000
0.00000000000000 9.20714297274218 0.00000000000000
0.00000000000000 0.00000000000000 13.47558441287972
PRIMCOORD
 96 1
Ni 5.231056786676218 3.104952500987731 7.930785424702074 -2.3993246737565905 0.37049313732781997 0.29002943545411336
Ni 1.0731753967216402 1.4372166291530861 7.070653192276647 1.1086877081709359 -0.7577364975307853 -1.8404468078013527
Ni 5.933331629330523 8.287331121906973 11.45438212048587 0.27484809972798474 -0.29532770773857525 0.3238738948073842
Ni 0.7252641583491397 3.2989009711353927 2.6576547560399186 -0.8242478509894579 1.3074059575138772 0.14688789493521154
Ni 2.2455209321549097 2.365637321499624 0.897469959982503 -1.5785239007754686 0.744755254779769 0.0854218172099303
Ni 7.63332012356855 8.560230844440877 8.488810114425096 -0.0077418487289479575 0.1820911823092219 0.3263174712518703
Ni 4.527962508282861 4.098007338144929 5.39310434728827 0.19495543986639974 0.8289100323518176 -0.18385830151197366
Ni 9.07477203856393 6.3798044142534005 6.0055018207975275 0.7060974331982549 0.42335296144132895 -0.3494144622806498
Ni 5.032145666378564 8.3181658442675 1.9338407227346077 -0.1415438570144788 1.2750067152475655 1.8869578068786985
Ni 0.36669841394032887 4.052781851063737 7.168768192384957 -0.9709480553938955 -0.34235292744817813 -1.2072884859649853
Ni 8.15645158223695 3.40949717447808 11.074128029707259 -2.520781273102891 0.40922732067322426 0.6295850026628125
Ni 6.694918888063215 5.112505611664526 5.393898923740858 0.5746837226392425 0.27304575641192336 -0.017193995280783293
Ni 8.957546692163739 4.284304672347056 4.72939086151374 0.5912961343849429 -0.07158413999588961 0.029692127747794027
Ni 7.450650403761779 5.333237661193131 2.5667351382919406 1.6443122600251874 -1.2579469315518013 1.143956558675559
Ni 0.3881943310185984 0.7824893150787273 0.26418976512779574 0.22468999081635496 -0.3703298722770783 -0.09345600036831647
Ni 3.773464749764443 4.7165892496982496 9.550254690077896 0.23620184811069644 -1.565774057308968 0.12878655734881048
Ni 0.34092854101859654 8.664768747600458 4.544411990208605 -0.365282539661158 -1.6564992890096828 -0.20808863481424808
Ni 1.9712585524369624 8.661260826065861 12.24719080159078 0.2765673964119366 -1.5381802068510992 -0.331671536474932
Ni 4.689050684580202 8.783218644037662 4.92271232521388 -0.578967694726577 0.25449241888976815 -0.0572695231454304
Ni 4.515026472177594 7.617354937371728 13.431034217371561 -0.8805053879306062 -0.6928444248430907 -1.7454329760276133
Ni 1.9559194519733496 5.533299674382713 4.830444781710876 0.2639803037755454 -0.03196292605984173 1.465186845212509
Ni 5.46985325103652 2.4971797754753964 11.816200748564425 0.05787398949864871 1.5392487573249298 -0.26018252729601
Ni 1.9984840746884047 3.127390308808754 5.5384648816816835 -0.24034055286941836 -1.0130185022013845 -0.7651664714462694
Ni 6.552456762328833 2.7436918257831815 6.00945076448831 0.6372700300118961 -0.4795930148809805 -0.3813298229320078
P 3.6597933606145245 5.937309115165025 3.667757539426664 0.27769585358942495 -1.5175784714403475 -1.9953236344793122
Ni 7.076278756732391 1.9080883433848328 8.418076237287218 2.7354730150559536 0.38054512224718334 0.041179045341471016
P 7.872448045081728 6.692258023697079 4.1601288535939345 0.27319822282938755 0.3243544339882285 1.478051359880003
Ni 4.425054269458251 6.534014854628582 11.242963096238745 -0.9363775165078776 -0.7959641735534162 -0.5778986300321144
P 4.380270725247558 0.4816274988425462 11.595942866907295 -1.5056169282030976 0.5410074134327199 -0.3820764712900452
P 7.207885660710111 4.175457826200098 7.514269000684604 0.49778485529865885 -2.0648040978686373 -0.6075419068198441
P 2.364118142882279 5.922734207581652 12.858335182919305 0.5993771116208645 -0.2974254708078684 -0.6793631025272041
Ni 0.24128883800706086 5.662807349725557 11.93800664867449 -0.5721455295984211 0.6498069861366422 0.5506760468707355
Ni 2.066340719596464 6.936394631075926 1.3428001384422756 0.6749366913247343 -0.5802540176381684 -1.3219923399684845
Ni 6.739730053703314 0.6028432210776296 4.814004506928267 1.6708488728631354 0.451771364683022 -0.4907503170493806
Ni 3.99381009928136 2.174543065723942 10.058634464014723 -1.6833786298990299 1.1828249536059823 -0.38525332635613
Ni 4.26060548591648 6.500500853615646 5.649719395758555 -0.7410281836371689 0.5191512367895769 2.1430227124619092
Ni 2.627276707978907 -0.057028123866489644 0.9814252946628476 1.2036231212982562 1.0779270299493113 0.25123868783916087
Ni 5.289144652717595 4.251490414212412 2.645715853536217 -0.3016289673662548 -0.19971403759730766 0.503019621335037
Ni 2.942124174637794 3.6358916170349693 3.4524448143475692 0.5007056284898797 0.531880254320471 -0.3460671430749717
Ni 0.34892954840327817 1.736319881050402 4.557186901309004 -1.828955519332302 1.3462879792910556 1.5353779615156136
Ni 2.385064393515364 0.5751729938127461 5.299301052310279 0.736697160361983 -1.0778596670464857 0.047720446004414586
Ni -0.05697380172199066 4.510855636337247 9.496001599152423 0.6816526698923292 1.118803456448699 -0.1801371439066446
Ni 4.312994130357031 2.9069068521448056 0.48679638899877203 0.8229381310390987 1.007748512051697 -0.3393758470977252
Ni 5.655579742364251 6.71270708860085 3.8043464285549615 0.6508616526534017 0.7942649314741225 -0.5616068348506263
Ni 6.312711962225582 1.0685257894382523 2.4042465555237014 -1.044555396467401 0.8384220856073109 0.11904027659532403
Ni 8.847374017405281 8.232806420259005 11.838044695653215 0.4052343974637472 -0.0823938290168839 -0.659619858462006
Ni 4.782180937394995 4.995666965276023 13.073149801554774 1.1359318885988694 0.8530256944530986 0.24065422745509524
Ni 0.1464009415677164 2.3167934271662105 8.715711870568748 -1.9180992654785094 1.3858492865234453 2.1662510868622302
Ni 0.8415117061483494 3.390419973901486 12.271284974461864 0.9029205224010127 1.5156768835422607 1.532148913055355
Ni 1.4033435495578692 5.8798933705725345 8.021705963164365 -0.834107260282041 1.5032517704050303 0.3068303090615361
Ni 8.03433724283185 5.134262090893528 0.25239357334269324 -1.7036237533013112 -2.820845981305819 0.4838386775312119
Ni 0.8904863419142854 4.709103842329151 0.6852425485680878 2.2192266106179974 0.7458600578081735 1.5629980372257275
Ni 1.4761720517590564 0.7716819704663691 9.54525521135536 0.13671558238790005 -0.611612734455108 0.9659488024070914
Ni 7.1230418367171975 6.818386677509223 12.931278774409686 -1.9476831497832134 -0.308621596634004 -2.000278407381426
Ni 5.585669904536992 5.5954663048330815 7.708870257280568 -1.3631297334387427 0.9646737923494095 -0.2551925302805863
Ni 0.18905579428549893 1.5853687693451601 11.40564042544126 -0.996832122249509 -3.6871529662488562 -1.7025446613045194
P 8.775862136672458 2.8929119945789643 0.5757337088296933 0.5587837635795344 -0.36562809592603485 0.48951207376690536
Ni 3.264871370106873 5.005748787009309 1.4746197274264243 0.3239641405283453 -0.37620458589030054 0.06813012000901815
P 8.282313228898168 0.73487641578252 6.699777497495778 -1.6169999453634796 -0.4000307417756207 -0.36987761523100815
Ni 8.550406822715383 1.3877926848021416 2.396659869580114 0.7472957618134355 -0.48131308289588076 -0.2615873780633366
P 6.490124403302026 4.863065689839676 11.751208445885794 0.2210580504907225 0.044814070990897015 -0.04273250587151996
P 5.018997865981182 7.888192259843299 7.679775684972635 0.6692344987336345 -0.43338977685204066 -0.45623377132974974
P 9.383367855033866 7.502330098180902 9.610261324748695 0.21821003951896611 -0.525201813859031 0.7199374244051407
Ni 1.9782743955061537 1.3812832346053983 3.0687141063210235 1.626939830185011 -1.1611081307541808 -0.472118046660174
Ni 5.798124732386853 0.4732931928763623 6.984502874672819 0.30618779038153077 0.21475601953209464 -0.3131374822264865
Ni 7.438183931956418 8.744493400010077 0.2792894798698876 -0.7561154169875945 1.5048142297961438 1.8418310897433892
Ni 9.105689625212676 7.185852967187046 0.9360165854332603 -0.8686729140720522 0.4235373095379932 -0.17990882994592242
Ni 6.653523572526359 3.038467720406849 0.939449929108459 -0.021786756857788286 0.6847968719482658 0.7750629046243748
Ni 7.920085803664399 5.964424151698843 8.106655669303334 1.1381612921500204 2.1187484132955765 -0.1366659600968872
Ni 0.5766102288561855 6.178609922458162 3.218158008694997 -0.6963712070494265 0.4351885206236763 -1.2210896535141356
Ni 2.8573171792174232 4.649487590527294 6.886104294555937 1.4077288602053561 -0.0931703508070976 2.1158489802605946
Ni 5.852631019748549 6.219775059416633 1.4367940212831705 -0.9474198903649685 0.5449062342664938 -1.61436533595411
Ni 2.8961160803900916 7.927055611017914 3.1807097954202956 0.5638128413630097 0.7159892383906701 2.033347422021253
Ni 7.280999584348496 3.0622313568393733 3.7312684127748046 -0.3693230282791187 -0.6111237106338314 -0.7288771500969318
Ni 5.386040627074775 0.7408361995340786 9.273236612419517 0.8870956395536141 -2.659169615207524 1.2819114127871987
Ni 6.286720197154286 4.134541282106284 9.620583452917817 0.4860518831324468 0.7228561407138325 1.3577250174834037
Ni 7.4074596953135154 1.6124377701633004 12.716343542199143 1.485377461227771 -0.20229388250934194 -0.8834652418898785
Ni 4.935194449162571 2.309455334087279 4.072901300243261 -0.07534514970021863 -1.654796447385963 -1.1686010966971163
Ni 0.9564012003350844 8.287340329050108 7.7475448620209075 -0.5656102995830646 0.45213286178749873 0.23334740938103682
Ni 5.42203134959114 0.8569843101874258 0.06989970996980946 -0.9820932733774376 -1.3092520095836806 0.2408750852166497
Ni 7.579550407657686 6.3376909415519815 10.423903929340437 -0.3133855936815506 0.43740275466617573 0.43577498925476565
Ni 4.141492675173527 1.9602376021038623 6.328768299139444 -0.9127436791390217 -0.9610770761370867 -1.3476192965079694
Ni 3.172965667329092 3.7613389422550925 11.988499542343458 0.44204950940956766 2.028509891423294 0.05618863137642581
Ni 1.852293055984176 3.1612265598314293 10.1766405761528 -0.5004094374056994 0.6162350637184677 -1.7601887941805494
Ni 6.937600766826666 7.602908929792251 6.219116748682451 -0.5299133604020874 -0.05594720478958107 -0.2717838589803642
Ni 3.285697927879198 9.380605712093239 8.200795945720083 0.5122524527872145 0.7321751041219132 -1.9194485804175527
Ni 2.7782001982547433 8.155788667931201 10.002899943758761 0.037967737493024935 0.7452383650637746 2.4750326061128662
Ni 2.4363850093522053 1.6730023577081057 11.934166349272706 1.1173577251411078 -1.6079882287831726 0.3530965391179274
P 7.436987003348814 0.28790092084444774 10.702983486346834 0.9429289444731503 1.6509829871771435 -1.0488054299930067
Ni 3.5639654148610536 6.710165917095474 8.626422837870052 0.35196088285158733 -0.36905769043287406 -1.4779161198537192
P 2.829677335524887 2.54320628400937 7.894037875019978 0.024659707530209143 0.6173483513873046 1.032662501684557
Ni 1.7540252172998183 6.061375368914835 10.338832688912078 1.0898654332581101 -0.19236531054172032 0.12333864686036178
P 1.8912576857332815 7.566485471548523 5.995516674067162 0.5881002531554647 -0.445227135806601 -1.1298018644417316
P 4.170403104618751 1.4116760140954259 1.9317516219571804 -0.6624786680670397 -0.740480538663815 1.2755944694302355
P 0.9786364510071281 8.723427456516232 2.3699241673434757 -1.5382534832911958 -0.26145959423622067 -0.6145373643010708
Ni 7.487156726293727 8.341800580696129 2.7765898689203574 0.5779603365079853 -1.0079323459277285 0.05067361509546756
