# total energy = -340864.1812554532 ev
CRYSTAL
PRIMVEC
9.37993125495855 0.00000000000000 0.00000000000000
0.00000000000000 9.37993125495855 0.00000000000000
0.00000000000000 0.00000000000000 13.72847752961455
PRIMCOORD
 96 1
Ni 6.294674806713677 2.4822017965482956 9.36744832349232 0.8730535596382513 -0.19985930492592033 -0.3028368716314268
Ni 6.168739851283783 3.9448707381478747 0.657757352977085 1.9488604579207665 0.35175827992247805 -0.7038577452344588
Ni 8.915268107240273 1.9245648905221375 9.532930944577176 -0.31725304705675683 1.3277816929567519 -1.6399616963659758
Ni 0.5455095930606203 6.329680709712662 0.17237780846281772 1.4751131031872853 -0.629034015255349 1.893030752545656
Ni -0.062168307582172753 3.4645995041301902 3.530635157319673 1.0288446706003636 0.6087809214332677 0.752417142200401
Ni 3.4747016899634984 5.787961546824038 5.978820633603816 -0.5627121520996631 -0.8439306741303659 1.4797904540582967
Ni 8.329247529597039 7.5727279436974975 1.3601416043191936 -0.7273722834166312 0.43400375628695576 0.7878901382960302
Ni 5.48354526174123 2.772970281828445 6.768922248955921 -0.09439265324997291 -0.39463219646786873 1.281644018058425
Ni 6.649086124750554 8.856652917572358 12.55872882823438 -0.2007918440425187 -0.6762608094527967 1.003850205438555
Ni 5.144076174003758 4.213615145121053 10.925905121851178 0.33184971392400914 -1.413304811631237 0.757296067559257
Ni 3.153448428491844 3.456317024937236 7.7419822350920775 -0.1175976306115265 -0.18154122334302283 -0.6973603104355732
Ni 3.088651864205406 0.32018770129462265 12.070764174699072 -1.9924992776566393 0.05934980271322682 -0.6299390435681216
Ni 9.218605700242458 8.840922773057542 8.900871788932973 -0.35588901426139996 -0.2731408872288909 -0.15457240806366282
Ni 8.13268169271421 0.9249812731131424 6.201551788390093 -0.3496281209533527 -1.9864926664512432 1.1676958112740277
Ni 7.371031284483361 0.6834264725234463 0.8011783760304267 -0.009040512935713462 -0.5107609558433527 -0.41280038273646324
Ni 7.6214942056727715 3.3136201325675825 7.464282807863506 0.4959321183606362 -1.5682991377236668 0.1572648672941614
Ni 7.478150098054743 4.986371391816746 5.597059312361033 0.07726962041644113 0.1459083046307616 0.7037574722111686
Ni 4.5473155752099785 3.495693975845526 4.8656057164358195 -0.512607265023472 0.6272432419035133 -1.2177883570550447
Ni 3.00108082712113 5.962634624435797 1.3302852835137895 -0.6507320690540729 -0.07984226623962379 -0.7083672030690381
Ni 3.352800104922019 7.1563809403706165 10.273884534756776 0.21919220092657735 -0.373072468019222 -0.0642842639003667
Ni 5.431927500700658 6.849872930644514 4.863779443843669 0.2931782654957402 0.46222238481301686 0.39516081527782915
Ni 8.50482108059784 3.595430783612997 13.378470087982649 0.09280705393040792 -0.20283818504858614 -0.31235380998292656
Ni 7.310286850447609 0.11635710774707969 10.313230531892318 -1.330998657232153 0.9318678015629822 -0.06207645761577051
Ni 8.893834964594861 0.8878583196567972 3.7314688628693125 0.41235995276493503 -0.45004538313085074 -0.5072339165267007
P 0.033764938109711706 7.082842280265569 4.602979838542554 0.7152844990141617 -0.15041236314870227 1.3445802525713295
P 5.451972413537965 8.86241219528977 0.8360173162551929 1.3693836847682546 -1.919991597405216 1.6970697542328774
P 7.293074676813328 0.5942373973182367 8.209409529405447 0.647419202630756 1.4746868142831442 0.5881915273176902
P 1.4168854977255054 2.984553388459766 11.393825800542292 -0.5230510860646153 0.19574913941228866 -0.15969713088473786
P 5.479080414520566 2.9410211280582956 2.454596659215495 0.0042114669781862955 -0.7375754492018781 0.8165489396833034
P 0.6930896775795969 7.222378135842443 10.689074992574609 1.4142471209398482 1.4376665283050531 0.7153834864858711
P 3.8593914257068924 8.61947197887131 4.146590847189851 -1.1519879136204678 1.1960993021173851 2.054319653397546
P 1.1000783236122424 5.41071009647137 2.2667916780135484 0.2143050480376051 -0.3229560109788051 0.07500807807577405
Ni 3.5986574799237285 2.9451295378957973 12.304051503985633 -0.5124105756316336 -0.5468157925843808 -0.5724072679002401
Ni 9.222723490011095 7.258312652023876 7.0337439687280865 -0.8071374165614164 0.048095827065962334 -1.8605446069924927
Ni 2.5116923000394014 4.822897951981189 11.014439477863105 0.47587828503355456 0.6095663934490405 -0.12122262895862349
Ni 1.977627160957629 7.299743807850916 12.331357421515198 0.709348850256017 -0.1294938678284802 0.0205431142586743
Ni 1.5372112543361625 8.446665507555583 5.773689981600845 0.7082003384738706 -0.5282881660938386 -1.3837242697606429
Ni 5.133336152853212 7.093713620452016 7.393650050424344 -1.3362704471540536 -0.711522203758252 -0.8345122090299434
Ni 0.04982525620051049 5.267975684377173 11.935181022102844 0.09151687436407466 -7.301932978051941e-05 -1.6374582132178315
Ni 0.2539644494824228 8.840059819393044 13.348431796513209 -0.12784810469494112 -0.7809461028780292 0.4620611766448042
Ni 8.461382619507729 4.946562964076209 1.6838524077484407 -0.20023699998031322 0.39678472403449727 -0.04461198228241994
Ni 6.545456645561706 0.6301494016649438 3.062699470738742 0.491466883500431 0.5339777602794481 -1.4219707148363512
Ni 1.7518522185177698 4.00300755132786 13.626461397317764 -0.6290859515392069 0.2699874292015737 -0.048000696248994744
Ni 4.470690917761237 7.418596915273245 2.608768021343632 1.001354692710211 1.0933438787250138 -2.243103417235595
Ni 7.127650211301514 4.077146527025602 3.476846880214267 -1.814962290377003 -0.49359549980765965 -0.500572445346125
Ni 4.7845152737733 5.043044935739539 2.6308296193751466 0.017070068108409314 -0.9076924898683594 0.9154194261989719
Ni 6.983818347264423 7.802189199073744 8.180071918791855 1.7689552275192693 1.824563046691561 0.722802918878394
Ni 6.938832197536896 5.49018625298541 8.14636888822764 0.18537139572239042 -0.22776117354251096 -2.111777895515014
Ni 1.713122482857854 5.927900739439752 7.68167302986103 1.468188093932678 -1.4983512477796195 -0.8577758075435743
Ni 0.5764567998571233 1.7061062943682397 13.029313407368074 1.0016740237228425 1.44369499388732 0.7710149598072463
Ni 1.4536266879846218 8.211069777216492 3.361294570558643 0.4960922980875843 0.22791801083534943 0.0549097646640022
Ni 0.47097384627583205 2.6444652252673286 6.845320850064288 1.2647510989578281 0.06745751942202577 -0.46832335550443216
Ni 2.8708780030244254 6.449368631006081 4.007465832596728 -0.7994143368855459 0.2936932574589458 -1.1559427845031576
Ni 0.15776762772562103 0.49710539642719076 11.105294428838043 1.7302331283587233 -1.4395310923176177 0.07061200589060743
Ni 6.19962796451413 6.318368512762829 12.536090364438008 -0.4471243528293138 -0.22634012482526827 -1.593704722280965
Ni 7.640366627118097 8.095555925278523 3.756331308337991 0.041372392299199715 -0.7430117897261009 0.8415791431790538
P 3.6616061977764036 5.306555341138915 8.791744732105405 -0.40495466143979936 1.149539452079975 1.281202045425
P 1.4526699350087653 0.11114749399422977 7.546406918937195 0.0374961971732451 0.7364418498180672 0.7484748697232013
P 7.898277213629371 1.2029386484479505 12.239143318518678 -0.21627271328693717 0.8212617717779404 0.8582355207888123
P 7.932926679245193 2.4644643467704075 4.956996261478612 -0.36027197382044407 2.4691617491543867 -1.2159284210281704
P 0.5041572286551211 9.138557367929131 1.78445498315975 -1.0093420817910617 1.1979674656743755 -0.8238837827818197
P 3.7368332454859043 5.233129240207498 13.110476075500337 -0.13925711786283115 -0.09147856492697148 -0.8015195561540067
P 6.879532272896066 8.41443606417281 5.9101914294552715 -0.5488765317681515 -0.3125078190622876 0.03386579950950942
P 8.240494621189645 7.104087824288265 12.884148655116578 -0.6871131787862682 -0.2582148620466779 0.3257279172969874
Ni 7.798024509649428 4.772893539095985 10.063536765056048 -0.4991033169997663 -1.667658905170928 1.2228788842040748
Ni 9.397846804317377 6.210227286697639 9.079190845777237 -1.6536093690563975 -0.28022376221760126 0.5922847235504575
Ni 5.502417683186556 1.1564517097386884 4.928152973235879 -0.16720166679189916 -0.354003624313229 1.1690266142703094
Ni 2.949341126975793 7.781947307682585 7.7540223146980525 -1.1863033990728857 -0.934754636192474 0.30107592307626213
Ni 1.5982277063748531 1.923983334791715 2.835631035795249 -0.7429901924595461 -0.35507140345611105 -2.023985264080063
Ni 8.655312695741383 2.4029695182437885 1.5214313961863255 0.8192408846931697 -0.28677853261698355 1.0020512045566032
Ni 4.243143168336702 7.9009317341408165 12.989267667369798 0.9654119560670148 -1.0296900493197942 -0.26554764826266525
Ni 2.5959616013638587 4.115435405922133 3.3510798255517042 -0.7688467485113339 -0.2671553590694173 0.04194626252479873
Ni 4.20777144802342 1.1467810007376293 2.734438462715495 0.3182364940159487 -0.16892739123375422 -1.2721178237355446
Ni 7.878616877968634 7.2741834955057305 10.709365659607675 -0.5208880169750255 -0.705837494668649 -0.05342315281614671
Ni 6.1350002389881375 6.407543518071336 1.0366634231821155 -0.32590532341511613 0.8685854965645687 -0.23065495015053822
Ni 1.010931458097144 3.916852883845097 8.966507857056069 -0.07682816200364832 -0.6068646782471613 0.9682100876374421
Ni 5.877042752821184 2.0771482303089757 12.5993645659011 1.634415569736766 0.9278591946242213 0.24123735365207488
Ni 4.7522014110103035 1.244426083861806 10.772186810396903 0.44337774130268803 -0.18935300607795777 -0.455110456358584
Ni 4.2930444019794125 1.0068980877087292 0.21521313998089436 -1.2432340508216588 1.4433424956439078 -0.23266401016076707
Ni 2.0670835642002108 9.114994980915883 9.68198086430514 -0.15746232801694818 -1.3822340583683614 0.12320443527534267
Ni 5.6179596749179295 6.085605521626763 9.899563374890949 -0.46467727411141263 2.1854487428366043 -0.4288623212953324
Ni 2.85505405919825 1.3395854852349829 4.504354552614681 0.599818055813025 -2.138607099892717 2.014094744439228
Ni 2.607892873768658 8.53027821370053 0.8689249286590881 -0.8477564756343593 0.4508881907471202 0.4853749116700802
Ni 3.997623470855883 3.376915907872284 0.8855152128590623 -1.6265791044114828 0.044907659145967824 0.6690946307216606
Ni 3.7150530453884656 0.18751138935739475 6.6403271450559 0.6414444731045598 1.1684614857954585 -0.5812894008812182
Ni 0.9853617658208226 5.014389246119525 5.357647826035879 -0.39264370528293024 0.21818330004608877 0.2010633525363505
Ni 4.470531458931927 8.943914416929152 9.03545222689078 1.2801507213423502 0.31702936108172497 -0.04344110190277034
Ni 2.6100877776544458 1.853418112856731 9.938635478037325 -0.0785204621044067 1.8446880995762103 -0.09450141091369531
P 4.511990754552375 1.6993902636749727 8.426745347802383 -1.207031889869489 -0.02130287524283428 0.21060420214725017
P 7.033494462559873 4.3599420708402805 12.131141853427412 -0.6161669294846936 -0.20662593422579256 -0.7538932125252951
P 2.375439420360075 3.0830145255927612 5.425082026957717 -0.8008518406630207 2.0277190200908817 0.8156457111427436
P 9.080767612201173 4.846610417892614 7.350021176732174 0.4295529196044538 0.23392590759232618 -0.6247243321364014
P 5.487165915159667 8.265032521041025 10.908922756529725 -1.338930767595036 -1.1345445213330396 -0.6821164969026252
P 5.3308118430562175 5.026039120590248 6.59112471628281 1.5670374974024237 -0.6779855054533872 -0.4550654620532615
P 6.52475513754489 6.2597345632326435 3.0638391323717475 1.5816503622195923 -0.061628057224442256 0.7804354817901978
P 2.296610479094409 1.8490376850162902 0.7529795998888722 0.270043993471122 0.11125034823726003 -0.14806520307276438
