# total energy = -340890.2764265839 ev
CRYSTAL
PRIMVEC
9.08399398403136 0.00000000000000 0.00000000000000
0.00000000000000 9.08399398403136 0.00000000000000
0.00000000000000 0.00000000000000 13.29534341981186
PRIMCOORD
 96 1
Ni 6.5725876522218085 1.5640003436885304 11.629251090991522 -0.031187481346397903 1.8990540759216001 -0.8980955902085436
Ni 4.703401443628271 0.2135964946554313 5.984141050508436 0.46322125839117645 -0.8056227796891029 -0.28593623922134626
Ni 2.8784361181862277 1.405566403046543 4.771844796977681 0.2544062869338651 0.8496863456672206 0.37585697274289465
Ni 3.187936880276312 3.9520370417980595 4.785685170348596 0.005195942378642665 0.021584925259627342 -0.27674403119911695
Ni 5.034458523655598 4.507823051218318 2.037644336696016 -2.7814445966900614 0.4926637320220096 2.2633552255060954
Ni 7.1511472347852045 6.148537724860497 2.6685349923200374 0.8836750439078395 -0.8769356683014767 0.5658054463130062
Ni 4.9780741724392215 4.940775292772001 11.510297096993886 0.416279085313683 -1.4248886598140944 -0.10053630425386556
Ni 5.601272501881508 7.950357033402375 12.540646399621902 -0.4656314104945658 -0.2421171851538669 -0.04379514280807941
Ni 1.8501370730206772 6.612103026443048 0.4901968470088521 0.29493587161679524 -0.18643300421768536 -1.8825432227507706
Ni 2.682049250303702 1.6573202148091737 0.2451597404644245 -0.21918628738930637 0.16672652692769352 0.9718875364890294
Ni 0.8809257757078802 8.910943986741461 4.688297486681684 -1.6251313162213625 0.6977452045788176 -0.44079583950812473
Ni 8.67160799487778 2.575757435645603 1.540292027555194 -0.2812151795965931 -0.22298020721409983 -0.3071105593061163
Ni 6.956522661753006 0.646148132070457 4.74702278317089 -0.34515157323923784 -0.09537404332663575 -0.13922446485268278
Ni 0.4030649926513142 7.434749529770747 2.2879029230340917 0.6991711383920669 -0.9986424359853705 0.84083558014481
Ni 7.608244732587175 4.0085031489611005 3.896134142267597 0.34275684775481613 -0.49912928514169524 0.1215761556433003
Ni 7.643127269830753 4.121498951245699 12.440878709507642 0.13545831294203123 -0.7519363459092405 0.5836327043024142
Ni 7.978108635297982 9.087900191300024 6.951656366127645 0.5737714952376184 0.5289178292580375 0.6151821969739212
Ni 6.6286540636456 0.8264036432766431 0.448016228926345 2.2525059414964175 -1.751480210662958 2.2347118507377903
Ni 1.5896989629234473 6.618298310401412 9.309013691051566 0.6673606787496894 -0.5101063529784893 -0.2219491948464242
Ni 0.14120887107915658 5.078588566866352 1.3325392662874693 -1.222389346162166 -0.9247422462617945 0.3920466951288797
Ni 6.256728094280031 2.086820538614794 7.020314101737197 1.2314982504419694 -0.5049888292462658 -0.02630315667090309
Ni 3.272590621050504 4.37415207842164 0.22425656170109226 0.6914002361973963 -1.0962510250694797 0.48212040928852457
Ni 6.0251498333554165 5.820042331161996 4.997706500431622 0.36563940877994444 -1.5024611561829349 -0.10629069023913952
Ni 5.213195191052636 2.7569649494307287 9.336402841583626 -0.68854425480584 -0.060328364576412226 -0.2434474739295162
P 9.283296903828502 5.6393435210450065 12.521381973389492 -1.0774081813313638 -0.19419722154413652 -0.3401204385732336
P 3.875913171459211 6.278647771980227 12.758783074515444 0.1788737038131887 1.0616504042764747 -0.09915022253961633
P 2.3449967341876357 8.312417785203746 1.6015971783613736 0.005442254061493853 1.5740488957232506 0.9126932855170604
P 6.577674688903164 7.786790636108664 6.056401498167676 -1.2744742397828632 -0.6424438609033516 -0.9222431339890246
P 4.698396162893581 0.9638117712353015 12.811154117149993 -0.12120180302301707 0.43286964268251255 -1.8065794656299468
P 3.9681792992672875 6.16910388744369 8.116940225128012 0.4289692791868419 -0.2920089277779875 1.3726620984092102
P 4.978428448208101 0.838975891074849 3.599461796608601 -0.5325356285162828 -0.038450847777030554 1.6071585337930256
P 0.30292940077706254 5.597102948601612 3.660726977840856 -1.0923354920651576 0.5554703829355854 -1.1162277253017225
Ni 1.5474765584682006 1.252528354884421 2.7060945826171783 -0.009866094160802363 -1.1013017001195098 -0.8068381401534427
Ni 1.7338892008576408 6.521490185556412 4.954841857595354 1.427669050772709 0.42963596623656336 -0.25954257971916594
Ni 5.8158909458702475 5.501548414938802 9.136426887642523 0.7850369851179513 0.2274122748435245 1.0191626674259093
Ni 8.448850292198873 2.618679307644536 10.484056484885468 1.2401101604806966 -0.5457688393771052 -0.4780009878035123
Ni 2.506909844559907 5.002537368480095 7.074359324479557 -1.2123216775135186 -0.36523394581140967 -0.20734738577284936
Ni 0.9062519511857693 9.142494995683853 9.072676325631663 -0.9158143476445454 -0.989873945764121 1.031442513234527
Ni 1.4032954045280808 1.08974318108106 11.32752622782865 0.5488446500889516 0.49249892430937114 0.3102678739881753
Ni 4.211930112250858 6.968495365942337 1.6947172016123924 0.2767833690774846 -0.26987481488310944 0.049221713140289426
Ni 5.7694354001765875 7.9758467207735935 8.228806886949233 -0.20149349809523362 -0.4092900555903596 -0.6253755925671551
Ni 5.365170411908117 2.8528374228861235 4.7743047425728795 -0.01813064816243974 -0.008010529009302334 -0.08466925531462192
Ni 0.7269493509579299 7.6075997690079324 7.162653930078548 0.4006637473739293 -1.0402539408785698 -0.42571503391560234
Ni 5.142894160915125 4.508249998939789 7.133789538908895 -0.7400755899159125 -0.16792723210401403 -0.6682644215108813
Ni 7.975583284945452 7.1164009574527345 9.065017610228 1.1544772557012246 0.2621131686598196 -0.051407922158330815
Ni 4.883164602355654 0.40862439702450937 10.553498169183595 -1.8736965709934184 -0.8264659416866992 -0.522244788113236
Ni 8.43857629490135 7.146605237748281 5.085136309794783 -0.8844908549409155 -0.1557052361165254 -0.5428475519652521
Ni 7.225554230244096 5.822640353467117 7.065876690813398 1.0454077171653673 0.7727748799211465 0.32259785630843796
Ni 2.3161368850150197 5.375898608909332 2.3683398737592034 0.6986409769202097 -0.5214606016490438 2.0705122039970085
Ni 2.0589508447962275 5.22038063036505 11.625036117741256 0.9833400013003452 0.18493045153022988 -1.6156308329300948
Ni 0.9852863332258789 3.4715300912677813 3.567672359347169 -0.2819895958687724 0.1460522864077936 1.135633126411528
Ni 3.777969547354979 2.454286266890104 2.5416306867089697 0.5052600806297814 0.6447370278129025 0.9111447100830179
Ni 1.410653439727898 3.150528992680205 8.333069337331233 -1.9420637467139072 0.19169528105788922 -0.9795005729495969
Ni 3.9113589163353666 2.5731594133404823 6.83618608385733 -1.644371395397897 -0.7096344998172359 0.5700351681236376
Ni 3.9187351195233315 6.66023911104037 6.03846606026827 0.6798364426191968 1.1073934148395443 -0.9064797005071809
Ni 0.7720395723422906 7.478325449342998 11.530093845279023 0.31276827181252587 0.4477339613888547 -0.18592392579175077
P 0.24474460193524963 5.504573384965393 7.931510470897362 -0.03543031578315189 0.12596168630550564 0.3028083323863366
P 8.664758663346099 1.605532364594165 8.344503360671984 0.875300446690899 1.2230241515326872 -0.8899979008020736
P 1.9217552822988968 3.2925118200544534 10.38661520565352 -1.4837095866070447 -0.9130439839882598 2.5983134031520994
P 4.117874437610234 5.620748585175839 3.890097828205525 0.14351460758760445 1.5458657484208151 -0.8200911485086071
P 6.614673796765947 3.8385052838631037 10.447893104477478 0.822376344998358 0.6896757973071218 0.7790159757348519
P 6.512142755654422 8.082901590933895 10.331306399335487 -0.8072675143813776 -0.910157406469084 0.5220622397887847
P 2.5624766363096367 8.470234014248712 5.886938680320629 0.09167088344343567 -0.6918329528594408 1.345039194485619
P 6.913718881677032 4.069583925113656 1.56108619838964 3.0508373297304296 -0.024069125134061772 -0.8923769425572116
Ni 5.540845773302269 2.8658638703880217 0.16368267241785722 -0.9347350958084482 1.8673747425404483 -0.03389022498954163
Ni 1.5727300619934987 0.858315714458072 7.0656504993609595 0.22508182693813492 1.5961287583414254 -0.9545446743352077
Ni 6.911066355407469 0.9518844870163388 9.207689912752453 -1.227194995080925 -0.3167797069647641 -0.26947089457647144
Ni 2.9333306943744923 1.567252413566968 9.321737641550804 0.5837383766423431 -0.9927723503578385 -0.3359529374591053
Ni 6.238269418321971 2.2456995949664003 2.5383204792684597 1.1417389821989496 -0.5647988594253628 -0.026892710625785948
Ni 4.0588466441183675 6.778739813733721 10.315538402422101 -0.28092515916000005 0.901479161968796 0.30233884894908575
Ni 8.024800364837562 7.323234418520187 0.07675066592994403 0.5772651102131736 0.8702153188585077 1.076004873225934
Ni 7.656962192805223 3.819910347993936 8.421988921722503 0.037983935442941034 -0.795691379508004 -0.9084977593784741
Ni 3.04164823971106 8.5541246995207 12.58433496072067 0.26362420598770725 -1.0132223906820743 -0.4768439913809336
Ni -0.07518912734864952 4.938422538306874 10.084651433446508 0.44215775285265785 0.4883795028243589 0.9447312877892116
Ni 8.689812319001772 2.3743834550165346 6.029052317209541 -0.26164008567814295 -0.045175310985057684 0.12364563657781931
Ni 3.6994747545628557 2.516847734076697 11.571269773616962 0.36427286744972104 0.9156089165019586 -0.7172267103421971
Ni 1.1177400508166604 3.2737624562860304 12.849337777840006 -0.2690052677939625 1.163773850511802 -0.40040458017527175
Ni 3.2798759842977305 8.231915429721303 8.257445086666445 -0.15223758928289913 0.5266413745190349 -0.9230700007656942
Ni 5.460261661873162 7.713855247689735 3.850145513869333 0.1959766820420625 0.9729031222377372 -0.49799234332377457
Ni 3.0725610715443654 8.28364877597187 3.8339914472078083 0.975641604214823 -0.3623095730757631 -2.0329766689453956
Ni 3.329629019840197 4.313561837949073 9.346759503227219 1.8232178455175763 1.2787731242685332 -0.6328654731862972
Ni 7.165163837641153 6.347513531054069 11.456650661591366 0.024845598288770112 -0.7362047941065967 -1.3814431870359498
Ni 0.6976216760905108 9.208263112778514 0.3820082943881339 -0.5305188551965703 -0.3147477641363999 -0.23295274504577942
Ni 4.310100836206937 0.42939131587673385 1.511441262376652 0.11579862972957478 -2.015329645287594 1.117841606756062
Ni 6.070851407540946 5.719773204574859 0.3472647422538864 0.004788165417262722 0.6690102985379703 -0.5521554596297393
Ni 8.198777019339904 9.110701016425384 11.004515749751938 1.4619004611517534 -0.2755998902923447 0.8166885505849613
Ni 9.478148576712547 4.865414477935356 5.758877982263961 -1.0064020253261314 -1.6933866489543354 0.9055515322659565
Ni 8.226574041205879 9.26358463668825 2.4352552993053918 -1.4271206344684066 0.08905015799113696 -0.5499767068108657
P 8.669773028074864 1.6578289184773092 3.8292986558692585 0.4761924738398637 0.9312761907255702 0.2181280213281211
P 2.0325436740235507 3.2186226122577715 1.716296229534819 -1.2502678177399886 0.7301259349023684 -1.3560851678871355
P 4.780297453463397 0.8783241198051303 8.098153616983886 -0.3663870855792464 0.9711318892699274 0.943966127488413
P 8.72493104009127 1.7906550798251186 12.545579008404003 -1.5780415618224113 -1.2199737947421376 0.6765078924665962
P 6.464905986470411 7.792177444594455 1.5966909131620883 -0.7359294289580228 1.3224924195333547 -0.7318619437568686
P 1.7790366514046667 2.944167899304593 6.094572441265987 0.16322699841486726 0.16014475994511773 -0.25069258552770374
P 6.9455673648999445 3.892028176946218 6.073804614014355 0.3639633066291022 0.4602714317342331 -0.9412191608708951
P 2.526694783652749 8.388741503412218 10.333047800999445 -0.34555112267050164 0.9307108051404035 0.9941779724561136
