# total energy = -340892.8160251753 ev
CRYSTAL
PRIMVEC
9.06830304383174 0.00000000000000 0.00000000000000

0.00000000000000 9.06830304383174 0.00000000000000

0.00000000000000 0.00000000000000 13.27237814277203

PRIMCOORD
 96 1
Ni 6.5589039930547735 1.8516658397543508 11.414802463300749 0.4002310307118849 -0.2205713406622911 0.7161237070860055
Ni 4.62850714742481 0.5279393657183851 6.175677512024666 -0.11622131908929016 -0.25307856926137706 -0.862675815948353
Ni 2.7212798157331313 1.5199291826544117 4.824177546662364 -0.6552461548743425 0.21157530781126788 0.5035950342225327
Ni 3.287395829877656 4.630837701273005 5.010336202976292 1.1205440932888897 -0.900179726431082 -0.538778266991885
Ni 5.103912927547939 4.595897530155897 2.706503016139223 0.2877786917467237 0.28513945435166377 -0.06592822726169291
Ni 7.138577120051641 6.049401393985284 2.822065841119235 -0.15997481002615674 0.5941683137264154 -1.4506901942582306
Ni 4.944845826181419 4.475280033133146 11.36334528526106 0.9543569838044338 -0.28838032988646467 -0.10874146577247723
Ni 5.552159140451826 7.840708609562246 12.470128935090221 0.2166244401994011 0.17716906241725616 0.7788246856596521
Ni 1.937297824145437 6.1826510369634295 0.302450572848005 0.6560941046969345 0.25952329644545624 -0.4011100908827286
Ni 2.5925915291193533 1.157614208137683 0.3204883341688045 0.3541802591004094 1.1628814206045197 -0.3135550293798794
Ni 0.5592957435249613 8.774054618401406 4.339922009728131 -0.09758930581039967 0.2050357069205372 0.5015088411174653
Ni 8.7327575669435 2.3583754015271707 1.5998653659869317 0.18601674261587317 0.027238781111295022 -0.04932250038421183
Ni 6.807130648644862 0.808910756290765 4.782223950073683 -0.9576492814024604 0.7133024355871264 -0.8435200689555085
Ni 0.9209587070623697 7.154437581843446 2.4998527157367074 -1.398590388239198 0.31281403744879677 -0.06855923712663677
Ni 7.40900298116851 4.0310601467218605 3.901628259269359 1.144708606350235 -1.43729217568477 0.15555328391969342
Ni 7.712355850156185 3.9619596785380127 12.562332718601102 1.0405632445888724 -0.5036264016811004 0.04173131830051523
Ni 7.960582505746275 9.022399161929341 6.680333103188083 0.5625416879600699 -0.03247097604451182 1.055588257242795
Ni 6.990328504058262 0.5313590227462236 0.6240443331416928 -1.3256625897312202 -0.05830079262342218 -0.3123944334128749
Ni 1.7419937843454976 6.655218438275331 9.30380401738088 0.7281150751199267 0.11871966003111169 -0.624775497089311
Ni -0.09465675944837855 4.881594413375337 1.346204076462121 1.858315717661974 0.705775788192778 -0.17565416843462653
Ni 6.445396045514455 1.9538928184730542 7.14117609566601 0.4907567448072839 1.0794349819534055 -0.6956780376371439
Ni 3.835057847597754 4.197599529687264 0.4349919813687802 -1.2701912961367932 0.42797117693963066 0.39720535651168365
Ni 5.786611043919701 5.631796976618565 5.055993294473936 -0.1071797777123122 0.6243587212668666 -0.20082038328760896
Ni 5.261828354444728 2.7314725882053947 9.69697207889261 -0.39852638931595236 0.81260692431642 -1.2648012354694733
P 0.28388684995835195 5.623082337520839 12.282139388418509 0.1421786623850003 -0.930153647085353 0.0064444700737630945
P 4.1678464278354 6.092938316262273 12.554355332530063 -0.9912566850442606 0.5153642589433189 0.14193723579815556
P 2.2825915940977195 8.211112510275825 1.2994959686570626 1.1383546391077493 0.848951524383725 -0.2741377039245214
P 6.214625873028553 8.04040170797124 5.72389919513684 -0.04300324303440336 -1.552630063727842 0.7973086033964527
P 4.736818957396973 0.8984548065577717 12.765014729649648 0.5832475530488536 0.4890919555103512 0.6267485616552819
P 4.089314924623835 6.078936856567278 8.265121508754744 -0.6185991930752701 1.812348249792924 -1.03636746133997
P 4.598110196066246 1.1491444132185604 3.7674835747938715 0.07894597967759952 -0.30938341450069295 -0.024523953283293248
P 0.08807770568625493 5.423280419476911 3.628177212301292 1.2421583012589767 0.20005008078048772 0.009550876913228713
Ni 1.7318644899936135 1.081875742222788 2.4664985907987793 -0.7234924887462507 0.48143932406109985 1.3024648114585182
Ni 1.780198544510662 6.47744342800287 4.777816754858807 -0.34347932774313744 0.4369330141186088 -0.31837533358665815
Ni 6.0756269260046665 5.609225970672424 9.163860153193639 0.5600970830743193 0.7271570820820316 1.4642666473910848
Ni 8.726074227697897 2.3675253191646384 10.28796426158332 -0.6315770933921767 1.1929592138265068 -0.5090619708743749
Ni 2.2938634946164234 5.480963894295475 7.015858497244349 -0.0620782573879834 -0.3449703104663672 0.9180645771313027
Ni 0.6276925114028952 -0.029891846886406677 8.99048326983314 -0.2995556297769938 0.24923811246936434 0.336488241137285
Ni 1.2634140982034254 1.1504502488377828 11.347338823792382 0.6094110988180989 -0.8514164409844498 0.9768145414770015
Ni 4.091781503015699 6.803321961422131 1.5875750950512928 0.29201818374936805 0.33880891885066167 -0.5579039320777425
Ni 5.512231402733521 7.7498532826942705 7.793487235812411 0.15512982322902963 0.3933654139403032 0.9088523145044155
Ni 5.34929213602389 2.909165983751655 4.965647606229573 -0.7541930031539011 0.16115931725256116 -0.25765718977099494
Ni 0.5906883945431826 7.343937907780175 6.872026144768756 0.2740058063323475 0.3338847420761669 0.5198022401100144
Ni 5.325288338217769 4.57171236629155 7.3243748579097 0.10495963013254181 -1.0301317648429031 -1.3795629392941016
Ni 8.143562721889802 7.254252391987753 9.168014342757289 -0.32805219455478984 -0.01590407282476616 0.4732063946283463
Ni 4.692193838770632 0.4783901586112267 10.55935771062082 -0.15021155999180583 -0.8035589551815386 -0.17204639647871015
Ni 7.995422925531359 6.952749456793975 4.813599371316373 0.6562419431287085 1.0175349020144993 -0.6395176883954922
Ni 7.462279260772198 6.4231152252614745 6.948461056347237 -1.1709659973848672 -1.17188362410313 1.1014991608422966
Ni 2.3455890944222855 5.299561562858506 2.4931494262247 0.2132313553574521 -1.5662175726042897 0.7239791985746821
Ni 2.6391300596599714 5.322522505829833 11.210208853998507 -1.4917586821637663 -0.3827634700547408 1.1022272972575728
Ni 1.1713254821395176 3.3437281275624415 3.8641335472221465 -0.8882780898974895 0.20866841857711807 0.12153630354430037
Ni 3.4567735916542857 2.984886313060728 2.9323862801862433 1.4587277198507265 -0.7051183571144373 1.1186839001516993
Ni 1.2624528580948313 3.4074057506053523 8.322152972593988 -0.30206605490367333 0.16718109796660885 -0.01650391119229416
Ni 3.799455690368123 2.7660953687206087 6.872026144768756 -0.1513914392325199 0.013001554465990512 0.7860957653997688
Ni 3.8402993266804653 7.231382132045539 5.987156562802353 0.516352333888201 -0.600553648427469 -0.5674596940869776
Ni 0.9760849204599569 7.64312842573158 11.699707683676035 -0.6354877413004926 -0.37246671611442306 -0.9586283574862781
P 0.2536105070285076 5.536407498294957 8.10836138364885 -0.2348039393219053 0.9182522676620767 -1.119279110533537
P 8.719082566153311 1.797437388344979 8.134082718026365 -0.9626207664751227 -1.2275919734090277 -0.48479229969373283
P 1.9405714814964041 3.22096144274972 10.509998031044507 -0.4092211500256372 -0.12124474044581054 -0.22699344213855102
P 4.039276029159468 6.291352783960776 3.7610069928546457 -0.8255884241777524 -0.18257917768923396 0.47772536554462236
P 6.99612314961856 3.9338116663014424 10.449555071650044 -0.28632961800502305 0.2932983360133723 -0.6911940337238612
P 6.29617712110957 7.915694406335507 10.363616578620556 -0.05593614904598753 -0.7499941345812051 -1.327347947853443
P 2.0237731607072713 8.597449419204498 5.858666872022331 1.9331993543447417 -0.7144969701158598 -0.4247632115252943
P 7.143301705868411 4.033744364383596 1.70001933066012 -2.7710043751933435 -0.8863587613875895 -1.2376650413743138
Ni 5.702937812957448 2.916184850204975 0.10520138207359885 -0.014324387042472103 -0.6657614525833695 0.8723351934149879
Ni 1.5585964262680505 1.1597724642305645 7.086334626979837 -0.41923405417694903 1.673323302545557 -0.2877961752482205
Ni 6.799195883597505 0.649470947674592 9.07890375736944 0.7591991981192409 -0.6259450919173801 0.7918031001971911
Ni 2.9021199123896015 1.4795117565788982 9.1672979468273 -1.1894838536833967 1.027235674242031 1.173296959510889
Ni 6.147411611850249 2.2049578528743696 2.571297340223118 0.5284648008810189 -0.30375964055601234 -0.14411650283766148
Ni 4.106027806889299 7.090288407049149 10.29310054835226 0.9731003258502079 -0.355945064310316 -0.1819160901839383
Ni 8.339909616524539 7.141361089045399 0.020001955731379795 -1.56476644198006 -0.04320404619129979 1.897037045491572
Ni 7.8456417663459765 3.868202494738432 8.099043702407524 -0.42972518351625993 0.1266836520731947 0.36632949286843364
Ni 3.0599083830456326 8.380009651998158 12.289478365964596 1.51602758201346 -0.8926250540122757 0.5350414256572721
Ni 0.24249367448958642 5.037052330183173 10.16226126028793 -0.849725426435272 -1.6011213264600104 1.2505475537639366
Ni 8.607252254651575 2.2286351917756857 5.722956091634068 0.6069325553706192 0.7218760361887503 0.37264746466666143
Ni 3.538796391486688 2.441078324077918 11.760933237611738 0.3675032014615606 0.6463989888963577 -0.37415464533980725
Ni 1.154068501699378 3.4212711857566784 12.758724047920104 0.03247946068494407 0.09058459235779237 -0.4647268964024255
Ni 3.0107944544782153 8.496002314536163 7.961011436473978 0.4957891650248687 -1.1048750192930648 0.17586602733511647
Ni 5.514580093187539 8.028359001705079 3.5867405089785525 0.16352138972683453 -0.44958875520940633 0.6306836350436299
Ni 2.9980625571907975 8.415811311891837 3.6323576999433858 0.5042964311649315 -0.7301125651659297 -0.10635676759038457
Ni 3.3869113860258913 4.356077191364552 9.169049942949757 0.30355755184753525 -1.233407294539224 -0.051959166676110516
Ni 7.201837601160634 6.0600475816031105 11.365110883837882 0.08073341059532546 0.14905816311365297 -0.22900095948688304
Ni 0.37588478299314726 0.03357267103808962 0.677925468549563 0.017919303482582045 0.2763989891548724 -0.6365586057671682
Ni 4.625795724854341 0.23119003491069315 1.7124955018054397 -0.23080201725136382 0.21922999614304825 -1.0055335066782491
Ni 6.030231001630867 5.529878320198844 0.3034834525495982 0.4402973026051514 0.5562270585959518 0.7895132757217499
Ni 7.868920099919197 8.756870184384557 11.520596912384743 0.7671747601255497 0.3748609273782125 -0.23188753700605869
Ni 0.05854587042542553 4.9231363090118485 5.86793105027648 0.03084835283942429 -1.1367142752908488 -0.13487647229663222
Ni 7.9902086513573805 8.516659908568027 2.6251041155471158 -0.6790591981335402 0.49433752018000676 0.11022833473064886
P 8.513567617275285 1.4373441480415108 3.6480195659014334 0.8042832349420729 0.5639527093749835 -1.2256302216969666
P 2.1213571683354067 3.086297144517417 1.4349165633521646 -1.78573167564666 0.2004527155355451 -0.8859540697500031
P 4.7490974395388275 1.1513933523405544 8.241973758743447 0.4042200972666199 -0.48685021066402606 -0.11869163500665365
P 8.393167759522404 1.6138042543918392 12.629264955558867 1.1226994490689954 0.4335188462307372 -0.27993219911911144
P 6.290391543852182 7.562456803032956 1.4842236467715924 0.434332086160652 0.530012604984113 -0.8201705955962907
P 1.8836860173340315 3.3444173185836976 6.143850489296994 -0.8277237253532003 -0.5254152154214177 -0.9197432503853064
P 7.020453406329487 3.907196197256876 5.9792725802512985 -0.46257102640168724 0.3022352334916859 1.3719319051114052
P 2.4088133023196328 8.501116837378117 10.213466339506686 -0.24153663006004852 1.4658543035931786 -0.10129683656897394
