# total energy = -381164.90878268523 ev
CRYSTAL
PRIMVEC
9.28552798905707 0.00000000000000 0.00000000000000

0.00000000000000 9.28552798905707 0.00000000000000

0.00000000000000 0.00000000000000 13.59030880753663

PRIMCOORD
 96 1
Ni 6.299506502993906 5.111618186545579 -0.033498470952004526 0.13506801948214803 -0.11930664288283323 -0.097138077205594
Ni 4.998251174722476 2.3187913473238506 5.31391920026385 0.06865462505392048 0.028208858334048195 2.634639748386959
Ni 1.7643803247239684 7.697349893922713 3.2133739754061326 -2.2390549581978343 0.9939931101388173 -0.9352716850382085
Ni 5.689298742410158 4.721180303579096 11.320264869129113 0.9821274690494828 -0.7557374648228856 -0.5847354504482897
Ni 2.8607690478800656 6.480379303657532 10.537817063299213 0.7319005103042879 0.286349672609681 0.23917147226198163
Ni 1.1311537401325646 3.970454647187418 2.746642479863407 0.5010920652950208 -1.3046453640496047 -1.3084629380234822
Ni 7.453279789428468 0.9717583658221893 2.9664114289278674 0.6419093285561203 -1.7693671182457076 -0.1803148071350895
Ni 8.333872840967816 7.269463476376611 7.195878452329224 -0.7076316104545942 0.1356568021060825 -0.4114762646084011
Ni 2.8098286410603803 8.87151419993001 11.744690570375235 0.4153915405024072 0.2706708284218435 0.535006972874911
Ni 7.347647622461508 7.479520691665513 9.9253557050605 1.4815426608627131 0.784408607505333 -0.2559672036630818
Ni 7.542550855991438 6.961434654752582 12.430647811592163 0.780971556799326 0.521544933832734 1.5621174343929871
Ni 2.4284812900436723 4.119617369599271 0.2195795242924734 -3.449865084162833 -0.585039869062586 0.2808215437026002
Ni 0.31963016035543873 1.895566264853118 1.8174731169429983 -0.3062314991352726 2.8421426859010666 -1.823431761300595
Ni 8.547170705542186 3.8546269704340905 4.5039230898490725 1.7882534136272492 0.2892221090614696 0.3116562696952697
Ni 8.582641422649585 4.808204272356727 0.949156462023466 -0.22109044639055475 -1.1963900938849266 -0.07547961839555387
Ni 7.624105648754343 -0.02784637003491695 0.874092253359533 -0.8195177925036402 -0.2743739883050436 -1.6617818775648603
Ni 3.9371288870569314 1.46988051745216 8.023473424035535 0.317059442988712 0.3481615637101552 2.701111506856948
Ni 3.416099337755768 8.566939594736336 9.516844470319711 -0.12162552082399697 -0.32194171078167777 -0.5277114676547622
Ni 6.2100682969262415 2.2181547944416504 0.6104426844431244 0.7325139755185708 -0.4333738360124407 1.050515727815894
Ni 5.083733745845704 7.041178769547962 12.544154106335844 1.284803389623013 -1.4638362447218853 -0.617283302477324
Ni 4.406670183384133 3.545353888052891 0.8595214027613831 2.80608039296087 1.6317994722701574 0.712176035292167
Ni 1.0349185275406545 5.767148609485668 12.88031064949436 0.037757678364747874 0.6009205448485845 0.5112353243766099
Ni 1.8087558632203733 2.770690140377738 8.821062211885154 -1.0268893466462057 -1.325012357741731 0.7601484494063876
Ni 5.352735493123554 0.4187763859874457 1.7666311367205219 -0.8069975485494424 -1.2998237742912453 0.7031452925484665
P 0.28343795771944025 1.9497194643741542 13.04918376227372 -1.5046293674788473 0.16368182656409874 0.4824801066207884
Ni 3.706597082442945 5.011919471995276 12.260863788512218 -0.0413281693248256 -1.1063310350133013 -0.8207827752589929
P 2.8481685863317034 1.3116922617868012 10.12423685880216 0.1588342686638103 -0.9170145386002336 -0.28592338370553977
Ni 3.1668850507281454 2.090618066831665 4.099815981056985 -1.4889962889272808 0.12654969759849174 -1.2323459431542454
P 7.686216545804448 4.822076851246376 6.974219898308911 -1.269649307590394 0.06534510106471327 -0.52426413253611
P 2.700064414116249 6.070525381562364 6.229852042965254 0.1361154869100559 1.3462527551777461 -0.9657387432788143
P -0.02045508971620212 8.319842408101511 8.812567810835455 -0.3903657078820309 0.04366890164286028 1.2139957227818319
Ni 3.419637123938469 3.3814086050036085 10.433918504417058 0.623219465456101 0.7564746000992262 0.5371211910044362
Ni 0.3064725671247617 1.52808220719802 4.075095119759856 1.1676410467766922 -0.10340231294775096 0.8437872065739662
Ni 7.475964334426735 1.8402988019674515 5.141281734417647 -0.7661193222778419 0.2704641117276761 1.574722010530875
Ni 5.226963015840901 2.3994268728109356 12.020030619092223 -0.9220019645124958 0.18187006743735132 1.3252974930823176
Ni 9.626864049284903 5.30618714106612 6.263080305051336 0.1417300048833559 0.3114737213708184 0.011470205423128632
Ni 3.601113483924603 8.157652089851522 6.928883307660513 0.10472848795834222 0.6963223560893621 2.193090832762894
Ni 5.40334162093385 0.37952831607394844 10.524239764201193 -1.6216382154664395 -0.9500820105781638 0.7248387183615
Ni 0.2943939522521684 6.887995413495401 1.321795844845587 1.3554295365810074 -0.32217131029398066 -0.5955903908849226
Ni 8.651205761686509 5.542020982190138 8.790252829853124 1.9211395949667298 0.08688400357775358 0.6981930907495136
Ni 5.606118982240501 2.231117391583517 3.2148828737124027 -0.960069975028811 0.7716063135343421 -1.881263841817715
Ni 3.8415622324837995 1.568734248950952 0.17954125594289247 -1.4289772280611712 -1.9997114791343624 -0.29969935444370965
Ni -0.14081317559955603 0.16509668852606735 10.954753986182215 -0.017461132899240894 -0.6999401553476075 0.5008845772699051
Ni 2.8981247271792987 8.39059813175554 0.6907597163184857 -0.07783294911907887 0.3127854982037065 0.6265904388108628
Ni 9.217790111544977 3.1492982606230626 7.125834000122951 0.1766584413294248 -1.0967032821155498 0.048441126220523024
Ni 2.6728021037949596 5.762580129690683 3.0455334133446623 0.8759041417131689 -0.34815256484909074 -0.8653291944108
Ni 5.954381996855725 7.673318947358852 6.095294527605294 0.42736439659356723 -0.05058311226419031 0.007360554130129258
Ni 2.5176966434384114 2.0124617773308833 6.466336799604778 -1.3761438863102236 0.9564033248105014 -1.3897231676565551
Ni 8.068789586522248 8.835876343317915 5.438433488497276 -0.24002225029805116 0.3234000404947592 -0.5213261329537087
Ni 1.9340640641010975 -0.16270937926734677 5.318866529602809 -0.9050635368859447 3.1164737367833166 0.5700354252339537
Ni 1.9130973417899693 4.1225887385716184 4.920548018989978 -0.4724360921212251 0.09462353831385639 0.80945629450258
Ni 7.692103570580913 6.26827927220014 4.860057446582606 -0.9658094486157496 -0.12060710686181164 1.1303058006613436
Ni 5.195819354799481 9.105518792030427 13.07069740218632 0.8238228476368973 2.19345901473559 -0.2089908349135433
Ni 5.730767910630486 2.8076279709152354 9.903829065408646 -1.0445744226307947 1.1771405016266954 -2.4826423001393247
Ni 8.29922853585585 3.41877356983088 9.754376634521988 -0.4214593439630419 -0.051366784507750236 -0.11953881349829736
Ni 5.288396069344188 6.741980485088629 10.309784922833215 -0.6645265517350039 0.3566366910607019 -0.46241136089537144
P 5.316577646941298 8.457249652016515 8.651413757514572 1.113280726858257 -0.8315703527928001 -1.1767615210207218
Ni 6.0428359369513 7.428106722915859 1.0943273359315306 -1.465300745082554 0.10879905848329005 0.04142972789969639
P 1.7705552008696284 4.869535185051592 9.717124953136787 -0.944553881671083 -0.42386692496326994 -0.4393755621218304
Ni 6.096422719261982 4.670583461296838 2.2808887504231445 0.2933209617211916 -0.5433296338079933 -1.1844604323268764
P 2.7639859891338787 2.616271809096045 1.7423318383963449 -1.5688840636928592 -0.8857884907064164 2.3807294272529065
P 7.090800631386168 8.916391156940499 11.961048016438319 0.15431812596101166 1.0213769014684086 -0.6616219764936992
P 0.3763136662669898 1.1452120295829844 6.254640688617065 -0.28797358136634915 0.13684465176659658 0.5189869432975707
Ni 7.565978243232792 3.1085626491177836 12.732148907005065 1.8703528513321659 0.5696998962714059 -0.803221626446778
Ni 0.5503430327661774 6.740903363836153 10.762138706760993 -1.0868775542743798 0.1273336269523678 -1.3679934892889472
Ni 5.431374630082343 9.37949758233696 4.371336892091704 -0.19548817244141817 -0.44127149359296264 -0.2689790425417174
Ni 0.6988297687368211 8.082671450939936 12.642548204196727 0.05048721011627434 0.5463280543146848 1.7855948929584797
Ni 0.6102142604533751 3.9421616432538453 11.554807093302966 0.9079385444408944 -1.0376586693475676 -0.29770443550086795
Ni 4.3978117896353215 6.283006119669339 8.243391870101417 -0.8799438590001812 0.5705432181083078 1.1610659646623358
Ni 7.216944529790366 1.6342622203192563 10.887930683652527 2.603982942733051 -0.12946198614928026 2.696213041114066
Ni 4.9748795006493545 5.574028197339147 6.268638622135234 -0.3165629629682677 -1.652765275888547 -1.9656307354005695
Ni 5.407501537495137 6.412000675181381 3.698792596126513 -0.16903203513241857 0.21024579036656696 0.5258304485819653
Ni 6.760597968805995 2.7873576632070005 7.707784041779673 -0.38441077585017663 0.39655255341903317 -0.7490073451879037
Ni 2.346601503799417 4.419530639717576 7.44825074744277 0.9162203248337124 -0.24181585186336418 -0.16768760528938217
Ni 5.595867759285901 0.5712818984931898 6.888696470862314 1.5552140224049344 -0.5262274269100679 -0.8106099484910492
Ni 6.329210907189345 4.020522214371476 4.405583776603619 -0.044089791230362774 1.457185315064271 1.9334271540848316
Ni 3.39972895182374 7.671053278517436 4.848247183470328 2.463440787510209 -2.5906497159592545 -2.191375135623368
Ni 2.097405787827872 2.0115517955831015 12.052769533850672 0.6587778221766848 0.02228015155443905 -0.18285917082349798
Ni 9.12139704497641 1.4484495187391027 9.055100231886511 1.0333646699579042 -0.412339898160277 -1.310272223318079
Ni 7.615219398421416 6.583745801783077 2.2972786359640534 0.289310812120534 -0.06862274337472053 1.635221610577829
Ni 6.508579452310719 4.976058762710255 8.973707935864281 -1.4477007726126034 -0.05112767191375065 -0.1129796722235409
Ni 1.7598675580972156 0.045832437845658935 8.125482377961838 -0.8717111866777438 0.8017411852465095 -1.042853840395262
Ni 0.6678142479823347 7.280736107415454 5.2017175222095915 0.10002362628350517 0.7612478531181536 1.3750982186545284
Ni 7.999250267041274 5.114078851475804 11.359718149212265 -0.3152504148044312 -0.043158537665345026 -0.8020152648435026
Ni 4.046456694183248 5.818590434819437 0.892315102135259 0.3059147392258022 1.2459334520306928 1.6335308531389676
Ni 4.003009708490702 4.296367395813765 4.029757600558654 1.6288524738266914 -0.4588110451386227 0.08632658841238681
Ni 0.495730199607231 9.124201274444063 1.5083207464263004 1.3377586016638057 -1.6826780042875795 0.10961846906079187
Ni 2.9181814677426456 0.19069224656443093 2.7872768791130653 0.2896085458666109 2.3090295876147593 -0.04657784775953914
P 4.2818726865455305 7.8863382460920635 2.626435748087082 0.5272877498537821 -0.41668686227506296 -0.38208238482731616
Ni 1.4303705956479749 6.630591290737746 8.073037715599902 0.9342815532107973 0.8171035266351927 0.7229507573101678
P 3.090910860316431 6.927867470893092 12.847449165765802 -3.3057462673323266 -0.10823675822191682 -0.7708846048769692
Ni 0.28484657232289384 5.865213071101179 3.5834384813031535 -0.2820003945020498 -0.837744599924312 -1.3262004645125611
P 8.697317693926127 8.339889863136818 3.3428485927177705 0.35048147009258346 -0.6372795430935928 -0.3277236075707775
P 7.729050686646447 3.059293637345044 2.665834243554804 0.3223348324550384 1.0431793420554807 -0.5420124576584666
P 4.5267970596193265 3.438830310394227 7.091613115089545 0.07446094732305242 -0.11899502517968538 0.38959951913996776
Ni 7.03691671217825 0.677087704834471 8.927011943911033 -0.5551916753529019 -1.475018743701266 -2.229925227982424
