# total energy = -381166.7210071082 ev
CRYSTAL
PRIMVEC
9.30570998607657 0.00000000000000 0.00000000000000

0.00000000000000 9.30570998607657 0.00000000000000

0.00000000000000 0.00000000000000 13.61984720020072

PRIMCOORD
 96 1
Ni 6.98285574178179 3.413250602869843 5.5247412816700185 -0.8706143540691392 -0.08346417926292723 -0.9464310440891378
Ni 5.514144869921945 2.9738442918728145 10.853955641899217 0.39863900363441673 0.0954923140720549 -0.3089157308356551
Ni 2.407973384707938 4.2902113886139075 3.583680955553851 0.037004088028174974 -0.49781519431596205 0.5886232155384701
Ni 3.6691110937922113 2.109511354325937 11.993963718243386 -1.5803673817421107 0.5649706091165366 0.25475647118443223
Ni 0.4064687511636145 7.692751119505149 4.390753068994797 -0.8768577638756897 -0.09440370899356644 1.2662788484562646
Ni 7.002648986524175 8.91271106272903 11.880224680225613 2.9206312663262732 -2.202850226142503 -0.7914711707790693
Ni 7.650047217237727 1.7573832955333415 10.895564262123301 0.5549975570642248 -0.2101635150654058 0.6963287838472653
Ni 3.3270145901628934 8.678123424407081 12.258066276334691 0.3719069869562111 0.7646957024574379 0.08088639123342199
Ni 7.456665261905568 6.581630758089888 12.150551827601442 -0.6891422934011551 1.1709567414134867 -1.9008242804481459
Ni 1.1801780338333332 3.082879293587213 10.69889366894819 -1.0742436675604532 -0.3885371393137244 0.11766267952150704
Ni 3.008908206395291 3.6266305285599647 6.674937249102086 -0.45963482659149874 -1.0184234752670396 -0.6607979379305071
Ni 7.548317197715512 7.879982000660197 0.5086007773491454 -1.3492748298335215 0.1928000840862938 -0.4352363431424762
Ni 4.797512158304139 6.513996859271057 11.69099027975085 0.3894552802526196 1.4960490820090042 -0.5649577536007302
Ni 7.732579557444692 4.092613946742819 11.68785797783252 1.6062689320992207 -0.5542629928910455 -1.798268631771406
Ni 3.613602534841423 4.578790755189415 12.106218495548223 2.7366050717778676 0.07943217528539867 -1.0589977971449762
Ni 8.404163327925739 9.821711407310909 6.028988847975211 0.7135027245233905 -1.271936560962674 -1.8901788849191576
Ni 3.3233853633412993 6.656206716418742 13.611579905451267 0.8158668260146142 -0.24021559725577982 0.5174591937991346
Ni 6.377910159171085 1.103899130611269 6.582308213763252 -0.8192979631833501 1.0279468413764425 -0.3992203300591834
Ni 0.6607370351393808 0.7812599356005937 11.463756943883018 0.4618063803215208 -0.02552488374398185 -0.24671611737845894
Ni 0.17778372456714528 5.885135602477029 10.950520061912032 0.5225962579153838 -0.9913916679602283 -1.8117440405500218
Ni 3.8717894532135304 5.6857142414853445 8.715966954446507 -0.7025968762441642 0.5976516442893256 0.4096145288093139
Ni 4.864541185986037 7.339822769669843 3.500368796865734 -1.5846827212880128 0.5492529412709638 -0.14956775576021986
Ni 7.183849767729497 7.337058973859553 2.9984095046001054 0.2569326529001446 -0.9070345445693864 0.4898429747437628
Ni 3.3155499556905763 3.6361595753940987 9.935992037638982 0.3295933137896646 0.48988874038003377 0.1883685306775014
P 8.493637727642726 8.055087541947202 10.427899302179775 -0.0882906541172931 -0.06697389491738788 -0.41243040099155426
Ni 6.148226629913188 7.385588250461121 9.863316305251074 0.13821196442776842 2.246265359903344 0.9367194732283287
P 1.6447935126757407 2.267903840814012 -0.17129020026943192 -0.48501161479339056 -0.3315347537867516 -0.08705061106260492
Ni 6.196839657902948 3.9663447704807497 1.2947164323228357 0.42014319625477964 0.3528463707803342 -0.5219534821250623
P 7.545851184618789 7.5257136286138415 6.5132421662063615 -0.2734195948115743 -0.8722158942283043 -1.0112992055174326
P 1.53783368424651 2.027314019671735 6.038195917250301 0.040489732583930266 0.5472731918367736 0.5904661822844799
P 5.346279170858529 8.005255465973779 13.481523305301021 -0.3694276721777831 -0.30941349640768 -0.21391526879835415
Ni -0.10601809059757614 3.603915290940707 4.410065208540575 1.20870542091717 1.059795353345607 0.4607689401959419
Ni 8.663336651536536 0.6591029524986836 13.419484929784304 0.7155711770166451 -1.000647382230541 -1.3334566318543422
Ni 6.089321486885779 5.030368934603481 12.826449725145286 -2.5466432284713174 -0.8561267019759256 1.5030720502940564
Ni 2.7502839196626314 0.9899972426720152 10.176954087173215 -0.2742150941296761 -0.04918288948255401 -0.10505373250824487
Ni 8.991241947722443 2.9872724311127117 6.7058675673318655 -0.12497952489789443 -0.14909852943328517 0.3576039400699777
Ni 6.893772181876358 1.4342332170547034 0.9130455366314865 -0.40704111165518286 1.405903376960843 -0.3550251235992079
Ni 0.620905805486898 3.6706465359090394 1.9248386127946224 2.196082825511682 0.12101025583750129 0.9677442037446172
Ni 0.561847118247807 4.920077662066222 7.722112495062824 0.20926182918674285 0.43238730372945533 2.1194133005730853
Ni 5.378058169821973 6.342557767644841 1.4020000994530704 0.29698684060855307 -0.31645291975296463 -0.09654183838249179
Ni 4.366722934580945 1.9714332323289885 8.739719778708348 1.5169169265969487 0.320346598380416 -0.10370261779698915
Ni 5.482412399507496 0.7792880556941945 12.665899244554833 -2.231611614545912 1.7721811906557348 1.591983368714484
Ni 8.618818135858318 3.030190364705509 13.969332335246353 -0.8960474494302633 0.1626634126019134 -2.332526385185118
Ni 6.142326809900648 9.250750276886002 2.2847974263830415 -0.5217850748679982 -1.0600108117905227 0.4114500393561559
Ni 1.2612679890214589 6.1993894223878625 0.792472385337359 -1.849745716604776 -1.3642003407951022 -0.04792664847794972
Ni 5.561799409802411 6.872350437919155 7.631445103349609 1.2113048062132301 -0.46065761142905826 -0.7733713758545648
Ni 4.053846359720358 5.416500057001471 5.78030398987882 0.007273650843277795 1.2547536214254844 -0.47708156131303636
Ni 0.5393849959350806 1.3929996169355174 4.14104644396248 0.027020494452901854 -0.5108812834713008 0.719539931856406
Ni 0.5195042775205853 5.607946424695448 3.2265147854760996 -1.4299851005003954 0.8174521682238631 -0.104632071589794
Ni 7.876054991125037 2.6120941291480957 2.833255489372107 -1.0881191399909649 -0.517988069719411 -0.31943000010341766
Ni 2.589006663136879 1.9625741966003798 3.039228070062258 -0.15231549370868605 -0.013374621534693095 -0.5983023904994471
Ni 2.355665989927991 6.5892056058662405 11.442537133828452 0.2765008048400593 -0.002700686760614704 -0.8354221224387226
Ni 5.534924519903019 8.200079806324776 5.589271726270897 0.5028869524119145 0.5206514754841872 0.4360349277843717
Ni 7.992022746639659 5.233196185381583 1.3994801132395125 1.4791656759901042 1.964363695762688 0.174711344905383
Ni 5.851569907232185 1.564401485722537 3.903448408520568 2.061675065321353 -1.6481874267098775 0.9374805197640693
Ni 0.3361864473359994 7.7826628875826875 12.371915121728092 -0.2076957702512036 0.3206882979905509 0.13892107467965106
P 1.8302190861297907 6.080639259643351 9.207112081354765 -0.6224553335965667 -0.040123350383447026 -0.023988135384481267
Ni 1.7849933365068518 9.199261784568364 5.949870772693484 -0.4956672947350238 -0.9563714431313015 -2.522700344502475
P 8.974519587213713 5.455900432290262 12.963029627864602 1.0406015540259757 -0.7451812865735941 2.0973527212286203
Ni 1.3749279285059397 5.311224562045852 5.581413054345677 0.989133982274303 0.38925833375046515 -0.4128955135534308
P 7.44485631617069 4.6209177034493 3.549427568354864 0.06182680349880965 0.7425767590712115 0.5317653260091616
P 3.974077815323684 0.3645455979483258 3.555978788053331 0.7092976853031074 -0.09348813915783255 0.16337637950853798
P 2.4896402939035993 7.152573277095198 5.085350790379648 0.1458481408167875 -0.26866948172109856 -0.23225520475812259
Ni 8.386566230695909 5.517271588414394 5.968870240390019 -0.8391530502360645 0.5422613404444789 -0.19618956938381696
Ni 9.860143988780608 7.993874582889653 7.428618783142487 -1.3910136043332044 -1.8160200422175563 -1.0544888535310293
Ni 6.231605789711857 6.091936391339288 4.768348994365182 1.0937256875444648 -1.7081131565312326 0.8481035745611328
Ni 7.063340825832983 4.220502316509909 7.832515436117669 -0.41386173412144206 1.1762172184814776 -0.6696029378166468
Ni 4.3988462448069505 2.8986913795364244 4.658872902006313 -1.5960233431118125 2.4602233090141756 0.28351863091878915
Ni 3.9124088764859852 8.64927572403031 1.593195212982475 0.17387445082638445 -1.7333333645506017 -0.04855708297309702
Ni 5.530383333521128 0.3985989123866351 10.326922114580293 0.06871941685358489 1.365769227944119 -1.2749666060382492
Ni 1.8895150689687554 8.813996093181677 3.017544835659704 0.5533229975752793 1.3796336446310369 0.1711411110556214
Ni 3.1023189213572375 7.433456821666965 7.284493810918175 -0.4230935371323552 0.22309205020161577 -0.5566615750302091
Ni 2.7926155935380947 0.7580449813651315 7.656028927496498 -1.0848173293112415 -0.17347824382923027 1.8297286500529004
Ni -0.16543318652196734 7.833369700277213 2.033579554079374 1.890293556120151 0.6936995737545344 0.06384589081136746
Ni 3.6032825026743778 4.065664611165035 0.7764553976313914 -0.7464077027815275 0.36173827395332536 0.36681131760085856
Ni 1.7364547541954833 2.720133419914006 8.381967348913264 -0.7282009499655135 0.3724075807417135 0.6945482949080748
Ni 7.1610693901416465 2.113270861084716 8.610072629789258 -0.4297678638287373 -1.5767925199066588 0.09664134007483356
Ni 3.940809902792407 8.157022287084995 9.979193795380645 -0.727339887516799 -0.8548802311633342 -0.8967074516117652
Ni 4.842021368272558 9.119549074430484 7.746246853426422 1.060383621748909 -0.5723964692669626 1.5600664654012293
Ni 7.659687932589449 8.820891624142705 8.137681299838839 -0.8805586097660447 -0.056815723437463446 1.7992196828307656
Ni 9.52858154864371 0.9836972771381202 7.944252815957685 0.8441109084619721 0.12824971100873397 1.0886544436691443
Ni 1.6663641479897269 8.457215179489602 0.5549581012836379 0.30625052529866614 1.2607085534573386 0.33179314965446083
Ni 4.867184007568943 2.5657982228982763 2.058285283024629 -1.6485651217642707 -2.2472140969698593 1.4912357197807609
Ni 1.6868367095474361 8.229671963485465 9.2911733496817 -0.4977977108144652 0.6675900211516761 1.5085780677139504
Ni 3.474091333535435 1.2082812774261882 0.5579256921385258 -1.1038044119367056 1.471229194751847 -0.27358208853136756
Ni 0.22588586908894245 1.2510503196622023 1.7806177917593815 1.143582977386224 -0.8278916183896322 0.3218193262712006
Ni 7.885193198147615 6.139386205604177 9.164740392927166 1.6027272374945496 0.25632792943661015 -0.9183144883585797
Ni 2.5797567875967147 6.625898019603534 2.700719848131418 0.9858722808038957 -0.4132675521808689 0.2384914154758215
P 4.276867000762201 4.794664611105657 2.8069547617673103 0.746182731254915 0.33538755187393854 -0.45335079335499984
Ni 4.118195342980157 0.8041873434032681 5.792207853853649 -0.122147454765738 0.35476209974580836 -1.543426285741387
P 6.315301343643692 2.859579481251401 12.902339649697755 0.38260380454842496 -0.36829664389713346 0.17350241219894635
Ni 1.6117675485992364 4.344063531220481 12.656433476547333 -2.6770711780782928 -0.3472681053616084 1.2801419795916018
P 8.603687051725212 3.4507340019400488 9.509049794346677 0.4942788990279294 0.39423213281597264 0.006284033236498856
P 8.126313444748432 0.16711193656969947 3.472353026944989 -0.11404899402831971 -0.313036437872248 -0.1668399125771062
P 4.763248534824372 3.9296616624532548 7.9288211573980725 1.417815040796765 0.12318309511910397 0.085319230193795
Ni 5.886112702005919 5.200021329948297 9.742603568309962 -0.6396143618743565 -1.8979567290923638 0.9493063087544038
