# total energy = -381169.0500036024 ev
CRYSTAL
PRIMVEC
9.23670687463303 0.00000000000000 0.00000000000000
0.00000000000000 9.23670687463303 0.00000000000000
0.00000000000000 0.00000000000000 13.51885417166488
PRIMCOORD
 96 1
Ni 6.854135137623206 5.25360784107577 5.624113390376606 1.3082814181402953 2.4304424782073175 -0.06255905367914388
Ni 9.195187682001025 6.953522101484091 5.484463622104048 -1.148091663889855 1.199148116246038 -0.7795721053486381
Ni 1.4496456929537964 2.6224765234589973 2.0340465824798115 0.0642886347757409 -0.9786533944579534 -0.675271963176966
Ni 0.9229732964978694 5.8686062451450525 7.245077824120938 -0.09515652799919096 -0.6599209346421925 -0.10531521369974765
Ni 2.8767722950253587 5.891494804294428 8.473657721455021 0.8345006390657176 -0.2864021231141713 0.13472117766569056
Ni 1.972073822690943 1.207699398216618 4.131875395586814 -1.213431879858562 -0.7643048947769224 -0.23535415539842047
Ni 7.834537657894779 5.646528106473373 12.860729467509351 0.16793340275160112 0.30794693916448257 0.7697414924114614
Ni 1.8080114386670532 5.277854196106887 2.4182390837368812 0.9369225903780702 1.113545036263237 -0.34609542520974584
Ni 5.934907325683477 8.446395581693366 11.12939654933404 -0.43637457051197753 2.040859928348214 -1.8820673115556166
Ni 0.569482684569536 4.50699560354424 9.076626238746199 1.4952816077153603 -0.6238717543281191 1.2149750559759656
Ni 4.032487508055261 1.6461012072992591 2.938782925311609 -0.12785658933537336 -0.513962750610102 -0.22453443907509715
Ni 5.011236657831379 7.350460334286852 5.166784645639007 -0.782085101578479 0.8451753451707444 -1.1451019851339117
Ni 4.980404530938476 5.936893217619359 9.926029166549649 -1.2644561934252285 1.8822861124346422 0.09972974919217019
Ni 6.910091106681686 2.7036117549231258 13.064066328330313 -2.1353029752201484 3.3474919838105444 -1.094018279084219
Ni 5.3339117689388305 6.768815678033708 12.421244192733319 -1.9873799541522033 -2.072257468822889 0.2557646007339724
Ni 4.608941135155076 8.552488394602857 0.9469905812033597 -0.9532727496013194 0.3337435885126123 -0.9424257795844865
Ni 7.957367383305751 7.283678945001145 10.69300741863665 -0.5204581285264586 -0.8967953833398813 0.5435808305868509
Ni 5.58216673433744 1.0504906505481908 6.5045969124826115 0.8294990720860682 1.808011312980467 0.31394789394292383
Ni 0.8977090563907789 4.274951058366436 0.47611251143903877 -0.5456780794355118 0.4908441623147676 -0.5999720648923861
Ni 3.1048450563313987 6.095792282609955 12.77332990157585 -1.0211167058284865 -0.3134632409970214 -0.6910618790213712
Ni 6.7480977449537844 8.834679020338353 8.870598725269785 -0.6626218785131234 -0.3947676936044685 0.001697699417397076
Ni 5.753221305316969 8.302903343442543 2.8289418568319733 -0.2612757603601888 0.6003204493707404 1.2532744657767965
Ni 2.5382931787909575 4.886873639111772 5.894274129333994 0.33775168123074084 -0.5579779798487875 0.4578671931681147
Ni 7.546998978992421 0.9506049045266649 1.8089711324909514 -0.493206491899357 -0.7241836012760045 0.8687773008604004
P 8.211155136004795 3.562782500039112 1.1861132147089144 -0.14392212743866825 0.707517453474233 1.0319631616246874
Ni 8.51268742552511 4.277980698156991 7.361016042679066 -1.0377548286058 -0.34671146152718996 -0.17596887146156792
P 7.0121567154793425 2.085740735076822 8.279243519285512 -0.06642342173055658 0.4244479942777206 -0.3934708291699159
Ni 5.066906288982825 4.560005063172272 13.184735588049179 0.511489349368945 0.564759264436679 1.9159097140263586
P -0.16455931884319402 1.2311698698867397 5.31403160515465 0.6115150325349791 -1.3505632096276416 -1.630366596478373
P 2.7201639332910355 3.6336280402633676 9.210598203423471 0.12443265125548893 1.1395322043556182 -4.23064792199012
P 0.3258867140195736 7.872694493183749 7.5705849094960245 -0.9380554184309328 1.1381060134320529 -0.12008980090576094
Ni 3.5401987522101277 3.9030997209025386 1.71535341562147 0.640267164967007 -0.33645533101682057 0.2617457580180718
Ni 6.362548371485641 4.601561006518938 11.271181844190673 0.3755924062275983 -0.4374351505660079 -0.670229258546736
Ni 2.371330468870012 0.26469260860370425 1.6828402081130762 0.36520154991157744 1.0274909847859466 0.8823416698083966
Ni 1.9249019616837362 3.447203589370779 4.122709811549718 0.8051846637104197 0.956690774143933 -0.13101416112774855
Ni 4.67142745583527 3.6440747555167747 3.8770318873144167 -0.9968403497796251 0.5817457716923465 -0.9815420288596579
Ni 1.4598430171268835 1.7292408041126264 9.185182481326853 -1.3382494252572952 0.563387580900133 -0.14211644168849719
Ni 8.057825805141345 6.354632513862149 8.38198710235337 0.5278047986995168 2.3165032702839845 -0.44061714783841543
Ni -0.15938583943255444 8.816177896861275 12.432573013474524 -0.15434049455851484 -0.8468771583531995 -0.0496675424284564
Ni 4.7194306204435446 5.998012505711132 3.389284820143113 0.21539082490261613 -1.1453040738423887 -0.029831224428819594
Ni 1.1531381718665945 2.00981500617938 6.664727230473455 -0.08085990887086075 1.5590801902285603 0.8723832730441039
Ni 0.6031458620594057 6.7594311840483305 0.5709697943447778 0.08340272989737249 -0.937068114816999 1.849140736030925
Ni 4.322113682666965 -0.2892049807871632 9.433929763191427 -0.7913516144820694 -0.2888773241275412 1.2530029572829646
Ni 5.7398835008731846 3.405139627156794 5.727708597800226 -2.2089553105989768 -0.5707507061334235 1.4867709991411877
Ni 7.555432092189911 1.254704998503611 11.537868657766271 -0.12023815355816711 -0.9239248925668218 -2.3125262879141077
Ni 6.110238491855162 2.8484710257623704 1.60160522021682 -1.0699332131105574 0.22424107620439443 2.3508616931591964
Ni 2.617664199279488 7.287355154259196 6.3257557977730885 -0.26274874536128945 0.3574054509059264 -0.7715052691801035
Ni 3.4539556219527774 2.6845287189253013 6.0999367928966075 0.6965843515014971 1.8249114311699153 -1.082108929241143
Ni 6.555835695440371 4.836348853580263 8.709130008481225 1.0628577943210147 -0.9618928871701629 0.6839985444166866
Ni 7.727890642584576 9.05690494631689 4.232549956358685 1.3665189616259497 1.3811300266709052 -0.09140503137655871
Ni 4.380110963901397 6.216645352791724 1.153877108400876 0.24759440621835427 0.31942202968361766 0.7849233423582224
Ni 7.9170583953606855 3.22411864967114 9.999355686187755 0.20673931987520525 -0.5565918981345382 -0.17712998164920463
Ni 0.7138339365414618 3.6352998841721798 11.661011507533642 -0.209634124924497 -0.9505383813892919 0.5220337005436945
Ni 3.77787768846183 1.8270113443047709 8.250543224294011 -0.19876504342047704 -0.6798978919847517 0.39238093853984685
Ni 7.752358678575979 2.7116015062000463 6.0579873658454355 0.5364077098771795 -0.9303495651462429 -0.4418379076193939
Ni 7.894345333638203 7.410212589790204 2.2487667606113817 -0.21434567146755346 -0.7157501257966704 -0.18771984134990896
P 2.5965029042789967 7.447501174651393 1.5065955316508852 -0.09745715110790959 -1.2810583207582842 -0.11782131658655837
Ni 2.8364725437869716 0.6059316527936476 6.2136840646305895 0.1683774322675552 -2.1754070423298857 0.3599511001459155
P 6.984612856163992 7.7690586442507445 12.789173624541517 3.2978972036015524 1.36258465956855 1.487457483685251
Ni 8.927729603417772 9.205662107374469 9.852730357031577 0.6846040392111693 0.959037934219871 -0.5432643277876966
P 4.409843922699556 0.419449010648984 4.742981451461769 0.6606994646794299 0.18955072391106065 -0.3885093713995825
P 1.7315684541956136 6.104918148808333 4.3474739845235115 -0.5030692436260497 1.076950524968655 0.6709311697097671
P 8.763861190234131 5.213788398584665 10.845608897013829 -1.2611037320132283 0.305280448075913 -0.5494671141642989
Ni 6.715538353911998 5.184517275120432 1.679488207259441 -0.6144432619253676 0.3888916944396657 -0.4071236440666601
Ni 4.52192212153673 8.46997689384363 7.177348748730015 -1.4073071992869053 -0.5463031146140204 0.9206901876796079
Ni 8.76206003243182 5.069705011106417 2.9029445033989476 0.8558335962155389 0.46074220072306454 -0.8807002775502316
Ni 3.152210888178854 2.405543230407254 10.656601862933925 1.5545344798394067 -1.9587430071418006 3.489459815736319
Ni 2.0878097573728107 8.721113711725938 8.340308310807881 0.8677393465141894 0.8449192632958805 -0.33847441832937836
Ni 3.05987153151368 8.177699784415191 3.9126938881295183 -0.48634164645872374 -0.8498850919415879 -0.9564984556274688
Ni 0.17764219018265118 -0.4058867542329116 1.2433992695291016 -0.005190543062003964 1.8631722744233268 -0.42029360578971486
Ni 4.754382318515068 4.067199051753142 7.943218596015593 -2.524624815218697 -2.893842171157887 1.1206862752937088
Ni 8.762826679086137 1.834474603301016 0.028212596878874476 3.332524306757119 -1.1301188814615182 0.9648943930006478
Ni 4.620902670303761 5.631490748000741 6.577463444128128 0.09518969522997155 1.3735938661948603 -1.1134221375321276
Ni 7.061157444408897 3.880007954206236 3.72259230430821 -1.542100110730796 0.37434953495943274 0.44192866756098725
Ni 2.2972243711882383 4.961755620154542 10.705702348295608 1.189590811574906 1.506798350105708 1.2234869501017187
Ni 6.757519185765876 8.170227288712267 6.338206878375734 1.8990070247337487 -0.5646546205380146 0.6488909020802761
Ni 8.224585307515364 0.592102455554566 7.26508637812795 1.2558977623322563 -0.3218463228543941 0.09589777704058967
Ni 5.706732960603973 1.7290006497389847 9.949660356915976 -0.44554261016449076 0.21289094129889785 0.48166840935277044
Ni 6.2965336288542515 1.571939689377414 4.115409118591015 -0.9018617421191951 0.39186234703221545 -0.6333164446807866
Ni 1.9907319701815551 1.589969740813887 13.234755125725373 -0.8148581822444418 -0.6331138417516774 -0.7237701678876697
Ni 3.885429901026528 0.33189611538461933 12.099482591916372 1.9925553277055554 0.842260999737427 0.10540417386912816
Ni 0.12045034977058497 4.609467627435752 5.172854085597464 -0.32194762431894874 -0.7845235358166424 0.08129108287100839
Ni 0.6004681407933024 8.320508506371803 3.4689375601853385 1.09682746639824 -0.23045800364838373 0.2528137456357646
Ni 0.9319652304494096 7.083953636491486 9.641457317832431 0.16904334798632822 -0.6056691152771634 -0.4935849582846983
Ni 6.0089487664185 0.6390886587575344 13.08611527084261 0.4358621496519332 -1.5095517444811295 0.7664880184711702
Ni 0.8461737751486389 6.550478405566829 11.91490917704216 0.022335687382722822 -0.2763167138537112 -0.38032246471341596
Ni 8.725131679131094 2.4437093024029024 3.5639888139313265 0.9806850801760015 -0.6043084874842108 -0.24882210797786825
Ni 4.2818139314285775 1.826928213944664 0.5637956442675706 -0.7359291718477067 0.04072267453034277 -0.5628553625457468
P 5.761534341327638 6.954085540591481 7.909435341338903 0.9362957554273488 -1.3104154337641625 1.5116482219988419
Ni 2.9273709742102962 3.6309586320332747 12.906381890267943 0.0018946459195515754 0.5349666065552787 -0.6953479079912347
P 7.004832007083275 7.1486567667745256 4.263305418586157 -0.07324301575555127 -2.416536409649187 0.1697195481177464
Ni 2.1281649288512687 -0.018054066873837104 10.835361694624678 -1.8143665657745334 0.05412532108949389 -1.580766416952742
P 0.41197004925138553 1.5189025196293466 11.515332940812014 1.102643815969701 -0.6839229539837447 -1.309029094939597
P 4.945480542986988 2.86239997943358 12.055978627131207 -0.3966453702431556 -1.7366997099196735 -1.5065756925719407
P 3.0001746962503986 7.219132838731641 10.596496765235454 0.4571382854218901 -0.7481521962764599 0.08695522313532121
Ni 2.2049958550032063 8.297204295421896 12.944140623499067 0.017595601594576148 -0.24181148098799002 1.6113134365016637
