# total energy = -340864.30732688314 ev
CRYSTAL
PRIMVEC
9.32411573465999 0.00000000000000 0.00000000000000
0.00000000000000 9.32411573465999 0.00000000000000
0.00000000000000 0.00000000000000 13.64678587373885
PRIMCOORD
 96 1
Ni 8.556200124689456 3.9252289059254797 12.008980753162561 -1.681623594881136 -3.471246378052086 -1.324052564931623
Ni 5.55964381245405 8.695054854809564 2.402420866380434 -0.6559241547779735 1.5370522638942432 -1.1886659857677917
Ni 6.887761520188266 1.913392446495909 1.7609673984724437 -0.2567200226687063 0.062372391589634514 -0.07688652604540953
Ni 8.089220441060304 4.406362597097091 1.8663616072046236 -0.8996189688316055 0.8717818920146793 0.09744480981273541
Ni 8.727689259551733 0.7101619436521517 11.846815733940906 -0.38627431142147667 0.3485428583089739 -0.18662609406509792
Ni 5.385842296912901 8.12104364774174 9.21624774400797 -1.0311884882421918 0.40864676557940594 -0.033390916755619914
Ni 1.182158001495957 8.648751296538247 9.19905220994354 -0.4213143337447454 -0.0713447702915739 -0.515300495584919
Ni 0.048937620939792 5.768103065831382 8.74843541685211 -0.2504187630410268 -0.43007125400176904 2.1865864559854726
Ni 8.309707803614037 9.016559686213768 2.5574762474261172 -1.0417145845844962 -0.824960046565134 -0.482983014399136
Ni 6.3443334124216735 2.2783942773636037 10.866375650214113 -0.43524354223132783 0.04668249165820348 -2.659564022432465
Ni 7.182907076676439 8.010086671618366 10.916049876289513 -0.73739135821553 1.531557302217943 1.302562770488963
Ni 3.976287763173512 3.371245899253706 0.899144051867794 0.8436239415232245 -0.04097952773615523 0.6838280802770933
Ni 3.2736317326120594 0.5808000956657593 8.765781069178356 0.3417705725821469 -1.3300398928633095 -2.103415382482932
Ni 5.61473068765883 2.1919597253750602 6.3329822340407835 -0.4576247381400054 -0.9845448202417237 -0.2758521155124668
Ni 6.759666819517434 4.661871337996991 13.374095619347193 1.541324666017352 0.007193946645277933 2.8711257033969777
Ni 6.941580315665922 2.769392882882992 8.179528230685962 0.046302739721281544 0.08310731014414074 1.8582139019767867
Ni 2.538378593771 7.319934280130985 12.223275970519358 -0.24050407503047613 -3.927343880914288 3.085128389702816
Ni 9.476005484405299 7.9157079731040145 12.579784464450011 -0.5162536035268077 -0.6853884827856778 0.19859046551582574
Ni 9.31723444327683 2.866745974286701 8.564285997773002 0.6072945666957282 0.17105549332035058 0.9653705613061181
Ni 8.60473214659888 8.702709953750514 5.0976198962878865 -3.086390544244691 -2.7937969476078273 -0.578333660687004
Ni 0.6814492619484277 5.6850997883985865 3.312961784795757 0.512947164861394 -0.9386403444001253 -0.7371429896501498
Ni 3.1475044203413978 8.736584465872884 10.843967935506576 1.5298470043950556 1.7981351915173356 -2.3404754648288657
Ni 2.582957190648803 3.712088946496556 5.978547423428603 0.13112703255652902 -0.6602500358468371 -2.4962634904671845
Ni 0.7583555001638221 0.8253697840960834 0.6400585802081532 -1.0298018923073102 -0.07275502037553923 -0.9384966197334095
P 7.822830457207803 4.152709355209676 9.697884005012611 0.09328964999378127 -0.2155674596897965 1.1167833406948768
P 6.212024211481282 7.186375647694749 12.829943960206888 0.5751118113155966 -0.4059319377514041 0.4895742944634085
P 5.5836067896504415 4.309307877393882 2.064430998523614 0.8339013149188218 -0.6411441682553216 -0.2678536706880225
P 1.8750889794442434 3.9974068850995157 2.445271704630029 -0.7559210415886014 -1.4259140157548151 0.687146603127365
P 9.083954394064166 9.306231986820897 7.102961176762202 -0.1968346591669836 -1.0265476470360708 1.1205597770181732
P 8.616937413972453 2.6993780985375793 0.4594057044942764 -0.43038955657313616 0.12318000979531041 -1.300143362414193
P 0.9814657364472603 6.200909865637662 11.029605483441928 -2.723885053108038 0.18447510916036616 1.101772211998025
P 4.99458375640122 0.669566608976022 0.7230124398280536 0.4965617815248351 0.838592292636588 -0.485296493023661
Ni 2.8990540349814475 5.000551190411216 3.9030076735307544 1.7088747172876053 0.5294947848074301 0.5800660699970785
Ni 9.179489282917954 2.394348979470349 2.567983593341532 1.081899384333498 -0.7082725864727027 0.20732938805072032
Ni 4.7171167231676625 6.5352167078164385 11.301763365229716 0.5671812436146103 0.9679892298758878 -0.5960804431474638
Ni 6.030278549414324 4.488368194156341 11.362818606856058 0.049063590295870346 0.6661689724344334 -2.047315711275887
Ni 8.571025468558043 6.117104714259773 5.22065999386994 -0.8175884366914113 -0.2744529211720951 0.793254487931737
Ni 1.6422751360136125 3.2753753422368552 0.5475736095804113 -0.8704582881072493 -0.18904087415417767 -0.2678675546450935
Ni 2.882438460909864 6.0356678882546015 6.647540599292727 0.9210899942211879 1.1499755111761292 -1.0717265575655543
Ni 1.4132655317643545 4.059673329347573 10.495346710996321 -2.1438652629678625 -0.2510304284830967 -2.6174951182868726
Ni 4.828679766807676 1.5159333690832169 2.9321070925158805 -0.7185477431464656 -0.4723576734748058 -0.7332099731443309
Ni 7.812685819390809 8.332971472137382 8.722793166428843 1.1631644990625776 -0.16068006362329748 -1.1494702894049365
Ni 4.160038110103202 7.06781019320863 4.395356410994904 0.7991567123487849 -0.5944279951457053 0.9966588298964383
Ni 4.493347271908432 7.846849379098039 0.4759494828754278 -0.43893667481219895 -0.23153272476980125 -0.5556025376380754
Ni 3.678820501890825 3.0120156959675546 7.734247628975661 0.840300019356314 -1.0873385530711983 0.9291827985316513
Ni 5.9909028090639875 6.348249540990733 6.286569583616471 1.4001713595730723 0.9322292986674588 -0.06301876692438178
Ni 6.4681483440134615 7.753617546807484 4.083063805843632 1.5660468513543806 -1.3544795139629124 2.447744459820875
Ni 4.199805463310446 4.037472610007258 9.76046746919245 -0.6006580352158172 1.5001625899567457 0.30202645991498955
Ni 7.129740969293626 9.07886342692439 13.772336057650568 0.331875424955622 -0.535043225429485 0.15795597982391504
Ni 0.38633167780717653 3.3360660109416487 4.713299430224392 0.5550464080242893 0.5013846568347752 0.8813715925856435
Ni 7.956519627263006 6.977422216188463 0.951875655461754 -0.9643575466605715 -0.5824592528196033 -0.41138884710091733
Ni 8.177696974374145 1.8993596524567762 6.353002042732758 -1.0971239145927363 -0.1529677825807043 -0.701658680700611
Ni 3.056081466485123 8.9565403538351 3.7676867832384424 0.7669479888267243 2.4079185860731886 -0.09069386424214702
Ni 5.279966963813665 -0.1503895935791177 12.111740899226266 -0.39861894902975864 0.42324754621171623 -0.24801452447490832
Ni 5.782210452795639 6.4734630899286145 2.108906097717805 0.052890420241128264 -1.4673059484380406 0.046044858074204574
Ni 6.816543924925213 0.8917248530525529 4.212858292795749 -0.5130988599479099 0.09487242109986888 0.16384149207041462
P 2.86432170422014 7.550883300433491 8.189613194162856 -0.029711925242135926 1.0298705407617168 1.2002390353173717
P 7.689122638921317 2.839333074303279 4.310310219825249 -1.0023851908572543 0.4069642356706604 -0.4221751390831439
P 5.1961804606670565 1.5850903347896925 8.503694164694 -0.5720100324618214 -0.4573264901732963 0.15479043761173986
P 1.2651146583505495 5.2972631983270135 5.332277117380668 -0.5144864843240559 1.386056260327929 1.500332025655074
P 0.8778421772752343 2.2132280331513132 6.77616118008569 2.5932591285576434 1.9387493376286933 -0.07295479509117113
P 1.7159542978057887 1.6972594459463464 9.790518161490603 -1.4363514090380554 0.399069663413932 0.31484623738747713
P 4.669899401563564 4.953809398704791 5.884412084332471 -1.652355442044638 -3.130210883863751 -1.5106634894880693
P 4.979898274267244 9.199899772055272 5.100336011173999 -0.5520595574818234 0.3795459915587076 0.12711096941860045
Ni 4.528200816173068 3.0454706228860977 4.401087944879193 0.6183400258766125 2.5434062095912586 1.2254193912377411
Ni 4.658011154121774 5.418775073355569 13.405278259284115 -1.4805345313131728 0.781105511274029 0.8437620097629854
Ni 2.8779162648241634 4.359201220186838 11.993723702739816 1.7003867344212522 0.4582538870835721 1.800473609842525
Ni 3.093340632585039 1.436631765559747 5.635740717431838 2.1559617891210805 -1.1660755020617852 3.1138560966548114
Ni 1.7630504059065584 4.489645597999107 7.833104700232202 -0.8134769856261991 -0.05455315265553186 2.2884399363888654
Ni 0.8543593920343339 7.080938548030623 1.4568492455033026 0.007044822661923351 0.5215392774057792 -0.940838894713341
Ni 1.2293939713313358 2.382153036212419 12.073925083422605 -0.5236486104392981 -1.1789973523297759 -0.8663344957468627
Ni 6.61107771266852 1.902259452421009 12.971651869713023 0.14739517358893325 0.8156858203520596 1.8072870332199327
Ni 2.7261010139635946 6.185291971939625 10.007760731801401 0.90579038774964 -0.017102206897925385 -2.046396027675095
Ni 3.7516791415066266 2.0108760755185866 10.456536012053807 0.3080191871633147 -0.710124552079777 1.5598985723647973
Ni 7.246851861739808 4.1642992309509665 6.263929698429483 0.1845980078914756 0.2691600482042719 0.5158535398749116
Ni 3.2001483772483366 1.6298181175177449 13.088441080169604 0.7011984532347407 -1.1791289928116337 -0.8838411371720585
Ni 7.97325641483792 6.106978724674061 11.597844130516643 1.2964438020754188 -0.8411042604251643 1.0844720301566806
Ni 6.444362525014241 4.690198001313193 4.1269104596436454 -0.2963013845057542 0.6957929659484533 -1.0487195551474195
Ni 0.6273992284028839 5.17442729887749 12.99113927140192 1.2708065611232888 2.24923961204032 0.8377656829702346
Ni 2.9878662364583497 7.147988263602318 2.2814693707018803 0.7755886952208578 -1.0305608819605219 -0.2391308488320333
Ni 2.9298702371736955 0.7482490912209546 1.6073320802388265 0.05008483247153309 -0.31442689046187144 0.5996252230759286
Ni 2.558583952364223 8.684900892876929 6.434595513880692 0.6023685901490207 -0.14179968177902674 0.2838364192695241
Ni 6.803201115443486 6.097430830258067 9.464209545708352 2.156671156483279 0.08585916185766503 -0.0626690968944469
Ni 1.4910566285540436 7.689243852424646 4.683085565902529 -1.1433088977892312 -1.744940609772227 -0.8612766216079812
Ni 6.202159297133506 8.480628167422235 6.929687406166312 -0.20452611427397033 1.7575714111623604 -0.7245990915468682
Ni 0.732062426468839 0.8293996668759593 5.204584286093947 2.944316268648039 1.3252049333685114 -1.229997497526727
Ni 0.555558782215038 7.214553125160702 6.900251173088876 0.31224016722319775 0.19983256545304295 0.7186595861339816
Ni 2.478974653024613 2.2191581706987473 3.833491729372115 -2.0603332065814777 0.9574844736898219 -4.012911993894096
P 7.323925001625169 0.6439010482636525 10.08810010939567 0.8844273486928317 -0.7757380763145285 -0.09701723535701355
P 0.9078602351686452 0.3861377362018516 2.844208654371759 2.251276182854374 0.1690114663071283 0.5486500175796423
P 7.800471227901597 6.290999470957329 7.443215872308128 0.14857530993996346 0.4255466266585381 -1.2159042526584543
P 4.638486455970317 3.0657878708670077 12.27290917048594 0.6197338209003456 0.3233085092222173 0.21051755597071486
P 2.4160555206817116 5.5561938896670195 0.5796746749079366 0.9319012259040789 0.6299907227416633 -0.16849955966771626
P 8.201743868611302 6.693969100713628 3.1985064004840233 -1.6683392190674042 1.068380781021773 -1.8252040227096697
P 1.8357691837877506 -0.03862887868752296 12.378780773938919 -1.3813655397204792 1.9305583171774687 1.1077487412964342
P 4.854377029513223 5.886146369841627 9.095569444917686 -1.7937527461789238 0.8169384618122383 -0.34032972637056225
