# total energy = -340890.26451643324 ev
CRYSTAL
PRIMVEC
9.06465913595173 0.00000000000000 0.00000000000000
0.00000000000000 9.06465913595173 0.00000000000000
0.00000000000000 0.00000000000000 13.26704491525505
PRIMCOORD
 96 1
Ni 6.57751599072799 2.1490493550110004 11.392623871905723 -0.8604186444830602 0.5193376417687701 1.0352513454576557
Ni 4.157415202388414 0.5191248625656338 6.324970965207708 0.7126889703728436 -0.1606695221003362 -0.8850140744342371
Ni 2.7414338851245645 1.582027740771068 4.672281488157253 -0.07605425995210127 0.30821767632736596 0.4615189309880891
Ni 3.4051482168855967 4.092657278513778 4.987626471208816 0.4362691552823648 0.8154708761277761 -1.7455206506454133
Ni 4.905222375664702 4.441936718986546 2.715073856761261 1.2117354659927455 0.1606173287061621 0.2723045073705246
Ni 7.360639075456628 6.084008760953805 2.3319089080258726 -0.31272610572068077 -0.29910645805471714 1.9378566506110946
Ni 5.247730515866705 4.830366421667398 11.397943920271068 -0.8336992262103449 0.16146373586685742 -0.0905964194323343
Ni 5.695207407254076 7.724340388393637 12.062012680198881 -2.223219019606842 2.3475755662087567 0.7509313016834938
Ni 1.7441582315915791 6.292269301410097 0.49131086289921 0.8927129857403915 0.7048008258740184 -1.5239620063691883
Ni 2.9810581457105094 1.7727391014091498 0.34117654179534135 -0.1532809429457489 -0.7273180331399282 -0.518285803465488
Ni 0.8877763857809108 9.038579973075052 4.6912266254610016 -0.41870312137414345 0.14080029398023494 -0.31410575967702675
Ni 8.704175638016377 2.303039782052197 1.6306786720739175 -0.18485871775203003 0.8315711241237485 -0.9732923872563561
Ni 6.870975261097175 0.6440630575214151 4.937317613775414 -1.1896558604848866 -0.17153269006708521 -0.14575995197835542
Ni 1.008289214214352 7.426158430687012 2.5418065258970244 -0.5113253129872549 -0.004833673943217482 0.2242631876915815
Ni 7.747700014628931 3.8715702455767174 3.6305400563803367 0.5763032605205365 -0.0985580974815722 1.503596555338959
Ni 7.57286993655361 3.9127963146951164 12.94737514728889 0.8861253052205449 0.6532574065790878 -0.4904500122001425
Ni 8.040134978531453 8.7671568887276 6.876680557469892 0.12647744959965962 0.7560100017579818 0.6995089813474598
Ni 7.168622403922976 0.5600708337210252 0.4073993145638936 -1.0799090933763467 0.2890117928228764 -0.773543639766371
Ni 1.4445259284454317 6.594367191803431 9.324344254421677 1.3800941292072233 0.5708170405949846 -1.0046421052122312
Ni 0.15963861606223312 4.915791768055215 1.4760645964937267 -0.5770830761093545 -0.9239102372788023 -0.053949971853894184
Ni 6.267214583942362 1.9890399943957895 7.102671570924335 1.160890101206104 -0.7275337486951599 0.22154527453978617
Ni 3.5895958981567446 4.284501721526486 0.7581572009190739 -0.022183735185890827 -0.19686422685333838 -1.2688738628769503
Ni 6.081787919499538 5.544298964271863 4.689568699330449 0.05388466583359753 0.035840149627060856 0.6122781359532488
Ni 5.444633038599743 3.3437442168398546 9.109206357184354 -1.0067367829577307 -0.6585682772690401 1.337017609732723
P -0.14635707769981487 5.749967012255009 12.443214223795518 2.004167972243819 -0.5374672614899453 1.1419377284733172
P 3.882320931147171 6.012261984992475 12.673557180034425 0.027107911960385575 0.27760817897162515 -0.3864375764722183
P 2.5344695909048447 8.377449069128168 1.2102797300424126 -0.15521004164766172 0.14043339755911943 0.9968385500074124
P 6.202492918703715 7.8306779030875555 5.812451519653195 1.6751073910291734 -0.014723165142787547 -0.5613085868839172
P 4.7729690008983345 0.83540169256209 12.453615919994586 0.7558685910841111 0.8272048767352527 0.7022536339721325
P 3.756403753019713 6.023420580217794 8.06157380352528 0.5014329935742075 0.5423042778672725 1.8719338226660407
P 4.623057670405792 0.8662414754017154 3.7620029928821657 0.8476924551656432 0.18736837154776118 0.5842184016025551
P 0.13534442348434808 5.6557126880041055 3.730202356188857 0.01569427080680523 -0.08528554874238214 -0.6159635552246359
Ni 1.5277123040609875 1.0074280716096362 2.5585498575304007 0.42739422139023814 -0.25225658758071395 -0.4556287907558992
Ni 1.7484911385921498 6.422319964040192 4.989124859341022 1.3863113137615286 -0.5441536723711854 -1.171269387557899
Ni 5.9371703498612485 5.86508818151703 9.140489401848932 -0.08759877025659107 0.45286665462972975 0.18343021283561955
Ni 8.751674451160707 2.2903673887743774 10.265720875317802 0.7816521278061184 1.1256346204379195 -0.7123246450548895
Ni 2.345589291384159 4.875173031089616 6.889323943838921 -0.4733832865258428 2.549018927792346 1.4955266338466309
Ni 0.48950880869060454 0.05462726097957775 9.16280477936777 0.2695418570237229 0.1634154602765895 0.12964093492930576
Ni 1.4260068301145414 1.030515758075019 11.556736803648878 0.6775764429404265 1.076666932289965 -0.38434212739577034
Ni 4.12126534230834 6.632103367207981 1.6569743413583424 0.2830419483926867 1.0278259995278622 -0.07772110613156293
Ni 5.7090763355195 8.309228445516675 7.878594597011647 -0.22389551993951762 -0.17160570939686573 0.303397115010271
Ni 5.051335614037497 2.6308994333150317 5.31148770138807 0.8349094444683621 -0.35801814478926086 -1.7739560231679703
Ni 0.8785811956943445 7.221097714856664 7.0247272876067495 -0.6555348897593549 0.0857303495892846 0.662185305196337
Ni 5.27053719790318 4.706470662496272 7.090080759577488 0.3257256033041423 -0.6913768391586286 -0.7521116951448401
Ni 8.285560620875483 7.2451734491527215 8.904587996713058 -1.423732434722464 -0.10384068603675019 0.8717446110188406
Ni 4.387340277847558 0.37422175616893927 10.334576931524985 0.07153246082234777 -0.32251558100727684 -0.10917315399325714
Ni 8.395487740532216 7.369404600706735 4.961980737974477 -1.0778997762558018 -1.097713468547619 -0.8862980833529832
Ni 7.204917298547002 6.307225988755162 6.9855770253986655 -0.019568666160546942 -1.1455172182944595 -0.4541694326015533
Ni 2.3847758122282308 5.251374508783502 2.671054059739984 -1.2561178487628626 -0.45790550260521784 0.7849166574900031
Ni 2.076822152122829 5.529877091807621 11.28063635525897 1.3169936012023127 -0.8565779305807312 1.7045192685323869
Ni 1.0443302983864617 3.136272301716302 3.6431036737501916 -0.11520547623026611 0.49806304866071 0.7810510038870098
Ni 3.871225788534831 2.424624053179085 2.4580381991738607 -0.659092010982994 -0.18406039022045073 0.3158721075488302
Ni 0.8561534164039436 3.251837639269176 7.9953446854954295 -0.26996660326596733 -0.04909238665127674 0.22776837263136257
Ni 3.629353492517628 2.9179409251143325 7.3443571349662 -0.25443945416464564 -0.5763616245622977 -1.8926078060756244
Ni 4.339451684366357 6.835079211469017 6.146038222470341 -0.8850081608969662 -0.003453248655923085 -0.9777360248500063
Ni 0.7015284632329565 7.704135263489304 11.599337075071226 -0.44900640034337513 -0.8320632332688187 0.36612946104248556
P -0.0031989181600446345 5.376249251126303 8.131795903843313 0.4792011787592005 0.17634039586837372 -0.24248305313371787
P 8.387257030162933 1.5486063430490942 8.099929095139327 0.25212134755443033 0.6330125402871227 -0.8535548274836912
P 2.017693381485336 3.1282138198679608 10.59350982224046 -0.6866611788505143 0.5402144852177793 0.3193405257134049
P 3.966903264248266 5.9332362878565466 3.9522393653888037 0.33765166531776686 1.5223527529005394 0.29997343404070276
P 7.0375746288032115 4.154396670942409 10.509357153975825 0.28703101494742184 -0.0895342967164071 -0.9057564491879111
P 6.423271753234877 7.973455346949451 9.9022969409461 -0.22538136045642476 -0.07791625286150451 1.0471354984897514
P 2.5142735306595076 8.195684526920136 6.041255296794409 -0.5634408027355715 0.8028362180829012 -0.358968167407356
P 6.807722070616042 3.909297356322271 1.7958005003634416 -0.4827449302464009 0.19811866808572975 -1.6182721272076839
Ni 5.663526424059528 2.6807006698446014 0.37400964314840923 -1.3115451764932315 -0.33232562511916314 0.3577335236693065
Ni 1.3485583836440926 0.8392886183400075 6.924600877257582 0.30644490069765934 0.6818686425578773 -0.1179357306772356
Ni 6.683708470877956 1.036235557902132 9.355136901034516 -0.5672676326808295 -0.0672474602937487 -0.8441196502127204
Ni 2.4015091727367106 1.718260500837123 9.008177106799083 0.2968361739633017 -1.2010149942514476 1.2626127124585869
Ni 6.47400664964114 1.646268979082874 2.7247322509225747 -1.1104645975657004 0.7987831310594501 -0.5607848531699632
Ni 3.775240114415498 6.863043684474792 10.170012579763778 0.9380564468721972 -0.369283433290435 0.0703896054671562
Ni 8.21269889185752 7.365914706992887 0.4317107299938729 0.6815955914021488 -0.09614177473059571 -0.5754797361779765
Ni 7.491958790346303 3.7582801374320933 8.225262509227376 1.594008626674629 0.7815333428400669 -0.34473762563027077
Ni 3.199171970496551 8.13656482094164 12.311299867275638 -0.19451860943929725 0.306052293244931 0.588316997151961
Ni 0.048952784447449826 5.008677328797571 10.386199258047055 -1.4234012766352906 -1.8203369244253556 -0.4975660544196334
Ni 8.519954573220154 2.1780834577784214 5.820676791227082 1.1836227669169292 0.3070606799047873 -0.24250567884153715
Ni 4.088297177536217 2.755538494523911 11.356617233437802 -0.7679340068890774 -0.6459613871383069 0.023710456243062394
Ni 1.2799570443547252 3.4029998927033054 12.608190111075192 -0.8970969737407002 0.5106550263931077 0.35680252721460487
Ni 3.246616395686898 8.393484450893878 8.251452122001536 -0.7651860118302951 -0.47838511061580835 0.030746022933605108
Ni 5.796595618135627 7.806547780837516 3.611063730059362 -0.9743784212316831 0.3840143117427064 0.04430627811654305
Ni 3.0517806152051774 8.302602179789861 3.713021201525925 0.8511960974435275 -0.5239484010679042 0.0031552577995300497
Ni 3.17816915560048 4.186929732082676 9.170725478399357 -0.12864077579956557 1.339372226007829 1.0835024671545597
Ni 7.2581540408364384 6.5007473936823175 11.324417751748625 1.7772501205382103 -1.8594572874655848 -1.1017902097201542
Ni 0.7300576644942443 9.250665799628084 0.39541130304034855 -0.5732279640293224 0.00201420221655137 0.007399892008496933
Ni 4.6075571035209055 0.14394678487251003 1.5281247460453513 0.03546168324171957 -0.20595153386658724 -0.4593280939843573
Ni 6.04349879989617 5.812912004330243 0.2580427412019683 -0.18175642467762249 -0.2768849276523554 0.5411999890595002
Ni 7.962287687065135 9.20062888196459 11.148151831688176 0.06867416543794624 -0.9632589142797541 0.7813456523092932
Ni 0.07478978198662586 4.796219851225664 5.990110677801483 -0.9020725725784206 -0.24667060885250422 -0.8871439762930463
Ni 8.111346939611959 8.842592980900712 2.5294287340366077 0.14221620049115508 -1.7207221035444946 -0.23559558198526523
P 8.438408900883058 1.448704736243053 3.6337770461081687 1.5155041054098222 1.4429923113933407 1.4391451697331084
P 1.7435418347797824 3.347614826231578 1.5490070009767622 0.9631475855128702 -0.9062472727814006 0.1967261586135773
P 4.577888474623694 1.3342634164058087 8.32882533180231 0.27154911726173875 -0.663667031948186 0.9775131102059229
P 8.550747219832996 1.9406528446697529 12.48870702790381 0.05712168471365647 -1.4114644159883885 0.5947229006783048
P 6.3628829949968 7.793630641766779 1.467958978418601 -0.7713479176666328 -0.12015047894036728 -0.712585869136076
P 1.692163347584733 3.1782326082134587 5.864630416237681 -0.6551775064199362 -2.2143021767331863 -0.02332170544507596
P 7.083061087650204 3.7972037831652523 5.875178053446601 -1.9988259912056159 0.9256459890229866 0.011089167934626065
P 2.221920148687959 8.509965319005449 10.29303722520529 0.9589597726837678 -0.05804316808666132 -0.635330646897338
