# total energy = -340867.1718753852 ev
CRYSTAL
PRIMVEC
9.29307981320377 0.00000000000000 0.00000000000000
0.00000000000000 9.29307981320377 0.00000000000000
0.00000000000000 0.00000000000000 13.60136166552529
PRIMCOORD
 96 1
Ni 1.503248608914988 8.977273191383716 3.841228606762407 0.44095344813191156 0.3421896623974365 -0.5546067493837094
Ni 2.8104968690995973 4.4539687610259495 6.864471025311992 -1.5807610176361033 -0.9962253419034455 -0.518387619150675
Ni 1.6205737429873899 7.965702855221411 8.32042900909687 -0.1368384811190095 1.9942126608033204 3.7192385339294916
Ni 7.287819139980909 2.7268684428407823 11.621697146348323 0.7770925334598939 -0.5474541974993281 0.6358456388605437
Ni 8.22289813526797 8.28615613032784 6.116355787834754 0.374779937628632 -0.9713260075586045 0.8521828868368292
Ni 7.130905485421502 7.333987161055894 0.5996694373468824 -0.057150223958746735 2.0754284103517033 0.6135554600037756
Ni 1.8063517037985886 6.1917096557269895 13.095812879001642 -1.1229187641686533 -1.0630909933777433 -1.5664348308214182
Ni 6.443654345615061 2.7840115913089956 4.536584241572774 1.349104365693928 0.16891376438699943 -0.05116829534369898
Ni 2.3435288958715486 7.221754634783229 1.3252238646864904 0.3228220565041021 0.6194723397088429 1.9918382470338727
Ni 8.68887174894388 2.6997977010148095 3.2645716232375834 0.3563068185251089 1.3777749941557433 0.11467942852346702
Ni 6.6395617635461734 6.855402837919687 4.266610976627241 1.7081411815556904 -0.3387307573145586 0.8041338538484022
Ni 7.759470825491928 5.862214213852053 6.101761005810144 -0.6913711827316738 0.5774175766306379 -0.6902715219095918
Ni 4.479106542227204 1.37413984949575 9.770837165549626 0.6135058377127628 -0.4385885474441608 0.06424569735294743
Ni 3.2267710913284424 1.6702266690348229 6.2273021518455876 0.018283114579903996 1.6406564084401551 -0.2940591254387968
Ni 6.730067068950619 1.4979980187565003 2.165867511068178 -0.0958890352898413 -0.45175516673310584 -0.1643109755076654
Ni 6.605781418013248 8.954588783283064 12.605238624144228 0.6082926689429395 -0.2269697879894672 -0.00910659028695851
Ni 0.1994731726989215 4.377347317031735 5.970535282783643 0.031476730452042564 -0.7074639745284784 0.14710875269676602
Ni 6.656484462092379 0.4657310642898284 8.426845925951515 2.7315263717033798 0.7969496773951371 2.184463238994883
Ni 9.09063018032749 7.399679943056513 3.96734034790534 0.3538010213841197 0.3329357478993363 1.0698157136960866
Ni 8.306089786770238 5.982875563618078 2.342549405247292 0.9768248258896468 -1.2182789235382179 -0.2841647491432203
Ni 4.148170672963656 6.73576372694558 12.763178234727524 0.6422682545574357 1.3721285945032433 0.6116255899709144
Ni 8.783094286318937 1.2383772448491188 0.238927872834984 -0.9284999135320139 0.25794978131074936 -2.1470418609236313
Ni 4.944838535825026 4.183670238282988 6.009924931360221 0.4421587812939224 0.6752912464506757 -0.8079216030256084
Ni 0.32479314343211446 1.0988788220720238 9.012112948028266 -0.34529555501626985 -1.5988081049458014 0.8613514407099747
P 6.519467291655667 6.418916166850646 12.283934102916533 -1.5938381625350357 0.48907524333980285 -0.7850056176593836
P 2.9854390987164656 1.183297160124594 4.1021708566353405 0.7123647542642054 0.665872267129621 -0.7500599548221341
P 9.172288473641883 4.192164113335834 11.5210196356563 -2.1390426447682387 -0.35405324660424187 1.135045115118542
P 6.78606716858787 2.2060656575983626 0.11194629941092808 -0.4509280428461202 -0.12557499239004824 0.02099305731189933
P 5.283710695345828 6.659829970865928 5.74579980161245 -0.6797184289840938 -0.8273421736440654 2.368681494949437
P 4.357246385150658 7.8756622038132935 1.1581928340110743 -1.1591895735752296 1.5331578139358435 -2.0134740801360933
P 1.9733390569983502 7.233984327966539 5.0311573087225705 -1.721844647184712 -0.27637893455021434 0.6795189113787781
P 3.526379988159669 4.646614307902852 10.910849017992444 0.4944552767047936 1.2435464398557552 0.7328248218907701
Ni 1.4251681513723091 4.783631478339564 10.323433435836678 0.37131229079500566 -0.5203704539086587 0.21124337839314591
Ni 4.403265716946819 8.814458431070966 11.241212433532517 1.0021586766687451 -0.008913757549862069 0.49106939095169627
Ni 2.4640322632788227 7.137652261448161 10.691826922360079 0.5789044455888094 0.24228790640377623 1.2352901133842338
Ni 2.666584233357402 5.878003156647223 8.762609550236894 -1.3981944383523597 -0.9486553054339661 0.2989712180284335
Ni 3.351233310784417 7.274836707323551 6.877052926224517 1.475617810737846 -0.4414046767367173 -1.5379040703715772
Ni 6.173021271994744 7.716666899350344 7.437265804819351 -1.1289240898224686 -0.7949035934993859 -0.5575619753572914
Ni 7.0777118959220635 7.831380677963392 10.51428820621174 0.9010986387009255 0.4683092144370451 -0.6877469557155252
Ni 2.442574541728472 3.7937790699655536 12.67120555200268 -0.8140734815596172 -0.3491174998655213 0.15337735931429713
Ni 5.079476677800548 6.60941501226452 10.533166168774486 -0.9566267536752171 -1.8195031156701502 -0.29773323185627437
Ni 7.313096317381062 5.250655210047173 10.575113272946844 1.03992252568108 -0.39974123555965996 -0.019362977907644074
Ni 1.7480562134194855 8.973927682610165 6.443712892018597 -0.6621300264783694 1.7557346150639375 -2.1527576803614856
Ni 6.959271592258478 4.034692873980837 2.1503071780392014 -0.7312243101728696 -2.356113428476439 2.571913315892016
Ni 4.842150002636903 2.2794902820978518 12.231310179216587 0.42252480911307877 -2.1413175568453444 -0.7167831950468752
Ni 7.333857057936924 3.588875950665562 6.723792381384228 -0.3964170562824334 -0.4739311886095128 1.04848841297322
Ni 3.103043025186664 3.2001371242590166 9.416345197288317 -1.6028570782041944 0.5153879130924027 -0.06967535300895097
Ni 7.795630199486045 6.403350257973713 8.354174040926074 -0.09299551579213015 -1.7078683875102778 0.23092363043089262
Ni 9.274819024471254 3.7589300202410776 0.16703195998340883 0.18489882696134607 0.7378688120725808 -0.016766677935377575
Ni 4.498073718357246 0.11698872457906158 2.757662921793314 0.24797647214812132 -0.8024757494196889 0.5046604993725695
Ni 0.9875477245522318 6.391706028825775 6.987101578714448 -1.2573008133273702 -0.23920541082371063 -1.8525212224673837
Ni 2.1965123714338928 3.857371615902777 2.2063583896160486 1.5609612093013567 -2.1183540060706356 0.8234688067315883
Ni 0.1996144275138047 6.777842792852893 9.932435461699994 -0.2810012638135741 -0.0856645293483557 0.8346374217538981
Ni 4.709965233761985 5.4549914514716455 8.106384287073155 1.3134159111533832 0.5752452515696673 -1.0073265940229297
Ni 8.189926287688653 1.19465330379481 6.607078731970992 -0.08136384509047277 0.8507045025190898 -0.03387582681183843
Ni 2.6124427497054565 8.74150775364773 12.919770348721471 -0.3991321412207513 -1.9806066399841116 0.08715268385810797
P 2.668823865619695 1.3280461730601767 8.291485711665702 -0.5147515650599844 -0.8296553951582744 0.8201034898037812
P 0.5994110897249249 7.888022000115574 11.784681970023728 1.2164241297176663 0.1326074737567974 0.40851332532533513
P 7.401315525123581 7.959987611066598 2.6317686387206622 0.643342461458221 2.6585594924273503 -0.2163267064533242
P 1.1264699763738821 5.396472927174306 1.526045463282751 -2.049631246782941 1.7985375691620766 -0.7181499934874148
P 5.915835285028113 1.7590778062123464 6.306788652381151 0.9173780925872395 0.003904220150412631 0.12689319698083953
P 0.759332914256548 4.639430757119646 8.19819341159129 -0.2959632844400451 -1.0971691660083749 -0.34795381857472335
P 2.702371884154457 1.3508142188801675 12.256676570184037 1.331220800545288 2.7907771869448967 0.2070311400840112
P 6.371976820141758 4.38680767239694 8.64460416271387 2.6518795093040137 -0.3344501276613337 -1.2027250349640188
Ni 1.5013899929296826 2.7900335071013855 4.886371123467281 0.43192861892548196 -0.5097417705502189 -1.0740266664536406
Ni 4.789374601734157 0.3518211370904252 7.340872403973458 -2.218430597079263 -1.0541849491373652 0.8850323292666822
Ni 3.6909697267383867 2.351056290612035 0.6959875642453702 -0.9424561186017898 1.148811572775015 0.9265739001538945
Ni 5.003775248719059 4.671882192223078 3.6256876988705202 0.2751612600930293 0.2581768097198909 -0.703264334624834
Ni 8.634432886734286 6.261890995332121 12.565495838530442 1.181184846899398 -0.6631805792300707 -0.49389914709100746
Ni 0.2727630475394757 8.223734512461357 0.3941929350154245 -0.2223875679354234 -0.20369461951161047 -0.23236293398058047
Ni 4.712102642145087 2.3526175280396915 3.316678851693612 -1.98585863241167 -0.10841776388447134 -1.5596746292794492
Ni 1.1045661869870584 2.401945196289696 11.130593185935096 -0.7992166190524429 -0.39869505368333275 -0.3725477058640036
Ni 1.35241262862753 5.329506993223752 3.9450481077775876 -1.0133740857685902 1.0169404629636098 -0.648942838364134
Ni 8.68914124826175 0.3017193552825408 11.44453944647697 0.005941562295415574 1.0490501990139611 -0.6044681529905267
Ni 5.456757136657685 6.8103406933559585 2.4124463766066717 0.3576471346030873 -1.466502221589823 -0.9959746593452202
Ni 5.5066423897032815 3.768148755528192 10.386122694405042 -1.6904417073933984 -0.7106480286834148 0.46810326907382616
Ni 5.105218509197027 0.5145085822081827 0.41606419862250554 -0.681528228499323 -0.042169177168882216 0.5391963283659101
Ni 7.114754112509199 5.175529951921129 0.4372440570830529 -0.9217021738838901 -1.2182277585853085 -2.9434760321349307
Ni 0.9832636147061029 2.2249213167692856 7.173466862177003 0.16831084069567787 1.5967028856773404 -0.2634781673281462
Ni 2.385673013338348 0.3655163489781479 1.431298796199839 -0.2345964512967895 0.15861161113004296 0.664016959088437
Ni 4.065573778576685 8.983165004057135 5.228962373574681 0.2586756037331803 -0.7092385499303979 -0.9308596720134421
Ni 4.724044249850674 2.7965851284495864 7.905233713447494 1.4198099597396063 0.3938333547156572 -0.6474443994417365
Ni 6.820432978156166 0.38406812443547345 4.462022144090278 0.21985605976282135 -0.6294052825518386 -0.1950148323494254
Ni 4.7108016109553725 4.481020916692069 12.801819790370015 1.1224240839204218 0.7696831283697002 -0.22012551137412412
Ni 9.156518117006566 0.6346736815061311 2.3028196299454047 0.2974658371275006 -1.3453533832919282 1.2477877316306123
Ni 8.1539992406927 3.042033955469015 9.379988809999759 0.3286795437261436 0.8124027787254137 -0.595893009727006
Ni 2.3047953387377844 0.2929671326077378 10.476829659643895 -1.2251674231279353 -0.08558431092972357 -1.3060329884257507
Ni 3.8415919661875346 6.764730257076565 4.194033881017051 -0.10185502306528911 -0.1628953261070614 -0.6811384492600722
P 8.706835272441857 8.302000831602566 8.546605846964667 -0.5285925847081349 1.6854445112891232 -0.7845736723282875
P 6.3117855414576445 0.7322008381030601 10.803044644304768 0.46029585721426536 0.7535985641030117 -1.0881618203034422
P 9.224227497351242 1.148494575799751 4.603789007677438 -0.3528381432502182 -0.9357167429954273 0.7568024157522902
P 3.9876327172329042 7.570895647622844 8.875513966188247 0.9085828628931126 1.4101390123087456 1.1455501284149239
P 1.2404031362731018 2.195350736443077 1.1114309851287838 0.33270100618071086 -0.28079403289877447 0.6210013747588595
P 4.947998183000045 4.338623052977898 1.294925636202035 -0.2894457950365015 -0.2275295171476791 1.2108587198147467
P 3.0840572628967693 4.35376148017821 4.5492748715204385 1.062032984426874 -0.4486132786700145 0.7507904052302554
P 7.666828111704381 4.519206182110168 4.256764029137093 0.929869797296347 1.0457638149532054 0.535946968190677
