# total energy = -340859.0928370125 ev
CRYSTAL
PRIMVEC
9.26344001052829 0.00000000000000 0.00000000000000

0.00000000000000 9.26344001052829 0.00000000000000

0.00000000000000 0.00000000000000 13.55798081827683

PRIMCOORD
 96 1
Ni 0.5264690958584791 2.0165027125588506 2.626668843148921 -1.160797798602614 0.31533166166432786 -1.4557956338055962
Ni 5.763341943576995 6.129701739331344 7.665926574154792 -3.68571751935391 -0.8379086363060021 -2.6044341713378563
Ni 8.296077650593315 7.296895202251978 0.17737542625919045 -1.2179238541916444 3.0024743650460097 -0.6469129524182988
Ni 5.121709759377014 9.216937712196602 10.284461190479979 1.1991193198906314 -0.8045794260262531 -1.6724807520396034
Ni 4.8194992868823885 3.999054916851002 4.383919360712735 1.4097877996169141 0.4410827746209242 1.066297930350815
Ni 7.98431657127114 6.160632366098741 4.3243313553985825 -2.8345656448847567 -1.9789143398833533 2.155871029179487
Ni 4.327823672347162 4.7612322481381755 11.850448532263881 0.20030821953788083 1.1125837007912323 -0.46667116461298985
Ni 2.19198932336495 1.6979052143824274 11.847004385204247 1.7630635446251828 0.15992364507324716 -0.34067373997354233
Ni 6.604703161539133 8.493852098477088 7.902621365962859 -0.4742698028958542 -0.5025393392645088 0.35927772822797477
Ni 5.185859082636738 7.3827024486570085 4.561826508438367 1.7278813402970954 -0.6320208657978148 -2.348645659344484
Ni 2.284762676786776 0.9925498251710883 6.359344274128925 -0.31472231021510316 -1.9942283445326041 -3.1817165079422107
Ni 2.918530200272316 2.385530379085591 7.830358195447799 0.8851205181051143 0.6651880965784028 1.1705818745725711
Ni 7.567887881333568 7.998128360582367 9.996150509978309 0.07238323885841728 1.3586069058677246 2.2029913797060576
Ni 9.213010013559472 8.22348933332787 5.149944725051474 1.337169047708923 1.3199190023792238 -0.3448787791938254
Ni 0.21201698716346032 4.497807799685207 2.845765877643415 -0.9494006682404231 -2.4559925587622797 2.5785367347458044
Ni 6.453199597363999 5.5275966543875725 13.428014247931156 -1.1577703246301996 0.20340305641312068 1.320773894180351
Ni 2.1129536517328953 5.3682191660578145 12.994836331800672 -0.5360937781811864 0.057865761968532596 0.5464697220988717
Ni 5.948166102086459 1.0251571346114108 12.796415295792201 -1.8340853843596994 2.464796787317471 -1.1327974567349457
Ni 5.870695951845147 5.592264730297485 2.82180876864496 1.2397322083159874 0.2963283810889477 -0.4001721524494915
Ni 5.562084442184823 3.2503929447892346 6.989763063988705 -1.7222064013995046 1.9385233376608164 0.14634616349912863
Ni 1.9327241595536584 6.063894260279057 5.006637452749293 2.5183153280609014 -1.2237625723606085 4.393373041067904
Ni 7.037602248120142 5.882701370320902 11.107443743121207 -0.6862320617328955 -0.5916239500380069 -1.207181528073476
Ni 6.893842919937084 1.4871063696028881 10.148406265496213 -0.5621683637810512 0.6754020609969271 -1.1918310137593346
Ni 8.861017813527265 6.019985553816806 6.654013379971458 0.8993556878678899 -1.0086573970192112 -1.7408646399306404
P 1.1958267565229168 0.8671358139242843 4.136174211111667 0.3684683935883073 0.5058894866836643 2.682803966797012
P 1.5726912934435526 0.6479859778207535 1.13308640251486 -0.6241880000169573 0.2568640044457383 0.19768877963716278
P 1.231314995859813 3.5207464464982716 11.502916678679263 1.5115965428252998 2.482826905346305 0.924681054006556
P 7.371790116122719 1.4430494480977252 2.4754839413160443 2.9401857914194327 -0.7196191218337735 -0.3691610487799578
P 3.1347296306779087 0.9205775266777401 9.919208375827367 -0.15308296800232993 0.8935820186089062 0.02222101618172947
P 1.898180791115317 7.96438164799967 6.278632846167962 0.6087878634118031 0.034500604880030906 1.147495682177069
P 8.00701199971682 4.293113561985546 1.1517846565220449 0.1363404584366684 -0.14830380144613167 -0.01429970445212376
P 7.550870941719399 7.6783451420626605 6.184269886410921 -2.072764490366295 -0.9171734327756011 -0.3788294251076572
Ni 2.251099335165716 8.261460174633518 4.124486528634152 1.8930299812147073 1.0781717989702657 0.8755904671274921
Ni 6.23532348428548 7.859334236336813 12.16076358857366 -0.6178934252574971 -0.025638526503710686 0.7903311436373551
Ni 1.9688330493827428 9.074447475318467 8.419655647996063 0.8044295307119501 1.1471552681185149 -0.1743706737365126
Ni 4.741186163584523 3.05121045399781 9.465572152055133 2.1232082488391435 -0.893043629606933 1.3355001446469321
Ni 0.546297489567857 0.21670891961559763 10.729813119697527 -1.3711947698350644 -3.4025930385497465 1.2038522065899266
Ni 7.383100776584831 2.370134541503257 7.865405495032037 1.0070424871236077 0.6723537610889067 0.6670889131455415
Ni 3.213885727032328 3.970625418932721 5.945283319501848 -1.0912818539896625 0.29205983562058085 1.1233229415856074
Ni 9.128045740210997 8.06687235017232 8.222996518310191 0.6211314725788206 -0.6759749027812616 -1.1615153934949287
Ni 7.429241972130924 3.500598464102618 3.481093364455589 -0.5388913955309815 2.132260588849399 -0.7199942457850053
Ni 8.19171573350392 2.471393206131713 13.338992587783004 -0.5033543789666363 2.121231841839063 1.4974675596230853
Ni 4.3317050537833826 8.861749625301634 5.981822032955374 -0.7377528553200069 0.2758852827432475 1.4284540085678494
Ni 7.55650311335 6.3567764485105 8.42629846095051 2.765519955040005 -1.4388790605559154 3.4955857261283994
Ni 0.6524759672769251 6.578385727982328 3.5884723840122326 -0.8268919734805242 2.075880153177141 -3.0445293852345308
Ni 8.677898128011272 5.326959803487588 12.840913157050023 1.386684123719915 -2.394569932680424 -0.5702763376001662
Ni 3.6054142897609274 5.961505455948409 3.4708563367105603 0.3572406431932879 -0.15342363917120028 0.5926431353311405
Ni 6.230886296438346 9.240587274981019 3.645619472838452 -0.20345216448350123 0.016935342302757932 0.7317621849542107
Ni 0.3534863929335502 0.9494099842439343 12.915821039737018 -0.4536343860336897 -1.4068899092438285 0.9731610038848142
Ni 3.5909077424360567 1.2161507442820267 0.7468315162818219 0.3320104078715895 -0.33972885956176974 0.29432214929219636
Ni 0.9258169284446284 1.6910873224085416 9.293725146896506 2.2648240967421382 3.582201563646431 -1.6239640353861386
Ni 8.542021987423018 2.108470146684851 4.750458867206614 0.9441245074431481 -1.207359705522553 0.1808154009205918
Ni 0.06576394088343217 3.7646713533683207 8.410774787893667 0.004677350871011299 0.5415949105050737 -0.020490406643867937
Ni 9.207192573125234 4.983249118978008 10.5321785497605 -1.2897743604750431 -0.442540075892741 -0.7053268735808176
Ni 1.3361864021592138 3.4934563517223656 1.024405869612658 -0.23510295861956287 -0.7419254986404576 -1.7980734850414646
Ni 8.788272017778727 2.4602678144732395 11.094238709141894 -1.1297237029056286 0.41452559295768615 -0.3915034210308999
P 4.419114875339883 8.257671427599117 8.457346733408219 -0.3355634153301705 -0.34632990981805517 -1.444310773094448
P 4.555472714817595 2.571771843942887 11.860345591754234 -0.04385864905616318 -0.08983203046248399 0.5735339253055155
P 2.1450885257239403 5.125841253698145 2.088755693289711 1.0452819902207804 0.5068194546971013 -0.6344168768338172
P 4.175921780244205 4.738610927213951 8.278476187903667 -1.0873094996054757 0.43468047063900617 -0.944677808843457
P 0.41082060325144454 7.138684907385142 11.984062540759712 0.5778927164948434 -0.2031608584953275 -0.8995822020563992
P 6.239603193649523 7.399191372180808 1.0181854695305053 -0.11970644942441319 -0.3634272316199741 -0.027898783292797113
P 6.585212883396395 4.457057926324985 5.549362959783006 0.8366138287539785 0.7688824868452758 -0.8321159408836251
P 7.230050217899318 4.013070501846231 9.804183312744573 0.4074720285450144 -0.7711211463678074 0.1301484706933436
Ni 1.957318593236629 5.927101039112796 10.748089887176436 1.042317251165502 -0.5291260886141017 -0.48709780789845786
Ni 5.3066172888481145 1.082414458375795 8.128456626845674 -1.3141905845358786 0.4556007657314412 -0.5801658287997363
Ni 2.4917079304506413 6.909331391921236 8.177523216801214 0.38569684165145185 -1.4311688363958515 0.41699590887504956
Ni 6.617060590741801 3.655751823709425 12.095142304669029 -0.5122349692857178 -0.9220027358434444 -1.4531365989161942
Ni 0.34066579172178707 6.153462463397944 1.4499451529691387 0.4585611339113458 0.5785280360859971 -2.057746419690907
Ni 3.642801534335115 3.5431639717384935 0.3618772170503241 0.4205720562620822 -0.1620769439708241 -0.6290288730490263
Ni 1.806444942993864 8.34558147492544 13.17182269357222 0.7912955644331533 -0.8316251172901353 -0.11535460021362069
Ni 2.64361908599378 3.7927766308802346 9.653025274888224 -1.861846870743684 0.7707365093348791 0.98221797188076
Ni 3.9729227520978343 0.10989404356603222 12.080053086956715 -1.763759542250943 0.7312541349695406 1.212188237259448
Ni 0.7778584828271106 2.7260637036127764 6.406607272281047 -0.014087331331001544 0.5536425856982272 0.41415998208815125
Ni 7.505109547220765 0.5914187803499213 6.2049319897366715 -0.3444494049658906 0.4986885980598509 -0.11423848433130647
Ni 4.74049140557088 6.580942437472534 9.733627394255038 -0.31150483171907 -0.47296856758592737 1.4439461906661777
Ni 6.135824873291588 2.9791964700236435 0.9679053689111354 0.6468198784838601 0.3218512079504005 -1.6760304170640747
Ni 2.5032964941182096 8.080267284675362 10.724770102862495 0.5065026947876309 0.6825096185759859 -0.4637524483042981
Ni 4.33877305864218 8.127084711354733 0.385775040031615 0.03314074841802679 -0.034483635599166416 1.1480332998480938
Ni 3.78033583071593 1.3437638962280158 4.0193714938579665 -0.8632591992556486 -1.5066867642285084 1.3527206222902768
Ni 7.527740131585171 7.574020278733992 2.6600894826372152 0.1402361939466488 0.18573572104034464 -0.5552569813731986
Ni 7.440219148746487 0.36938801434981655 0.6105033198126919 1.6082167998542107 -1.6809268259244277 1.7026616464983582
Ni 0.3033424648848544 8.741084053492079 2.6766163862657604 0.22120974557723838 0.5892045419632369 -1.390778862614579
Ni 2.4810735011218084 7.4138368711084075 1.9385740220285346 -0.516040201964421 0.8115388880632218 -1.0770891074290483
Ni 4.09789582359198 5.836587965095355 1.0671798046526262 0.4381738285042453 -0.6950260058754417 -0.882616777846654
Ni 2.7939925104667216 3.3677607318940317 3.49086814653554 -1.7270187351864836 0.7052353423082758 -1.0494235231929798
Ni 4.062175998250535 6.411662331588315 6.127637844858816 -1.8107348825592169 -1.3210608292931507 0.8662025981546888
Ni 5.614441406092977 2.152045369300555 3.0255581354460657 -2.308138700369373 -0.6617253348407829 1.5529344823421383
P 0.5031483852005212 4.557269822212886 5.272115605890591 -0.4511026207507715 -1.3936111898570513 -0.5157095580978797
P 7.606210733366129 0.2778253925597656 11.717294916745093 1.8165039238325105 -0.37973471053074603 0.12123728424664282
P 4.645643041548306 3.808478161988572 2.249119737998842 -1.0311224108909467 1.392386059200699 -0.4451253201214141
P 4.11346766653777 8.69437778809489 2.8111928661964916 0.6899624753096053 0.0347955104126304 0.2569619634761832
P 0.4560836246682921 5.929917124928096 8.580886750706222 1.810315278523295 -0.497739089662388 1.2794495815102676
P 4.097784662309796 7.068718143691177 11.963738553000603 -0.621234316705272 -0.8729082923096385 -0.27802315502185665
P 8.56670905550781 0.7691545544321882 8.499579683541562 -1.363130247659375 0.006679211792388497 -0.23810523578099635
P 5.150898859390211 1.5480875963204002 5.909151271072309 0.18690685853031036 -0.4594851883875119 -1.0596272031988592
