# total energy = -340888.26153653587 ev
CRYSTAL
PRIMVEC
9.10949807732935 0.00000000000000 0.00000000000000
0.00000000000000 9.10949807732935 0.00000000000000
0.00000000000000 0.00000000000000 13.33267123834706
PRIMCOORD
 96 1
Ni 6.268163429647565 1.968070555088844 11.304971450160696 0.793418267203111 0.8926114271655209 0.5751786599977902
Ni 4.572803909281395 0.3782636963265447 6.330352149019738 -0.6650194322110224 -0.5645787729947568 -0.689742131768683
Ni 2.775745955817588 1.5276263379381188 4.591398216128304 -0.5711929358771647 -0.5821509775505651 0.8904635275845826
Ni 3.688663384276266 4.54393591085015 4.979565758429746 -0.2846314043669937 0.06526154021197147 0.2585521907814386
Ni 5.316220912744756 4.243951039805879 3.1127919075869066 -0.09942430213660941 0.5740476317171403 -0.6323697644968012
Ni 7.44685045552863 6.008406100752985 2.8764705836036746 -1.1112590684425376 -0.9722503191450869 -0.8150929239630672
Ni 4.9789417578325414 4.993015931886272 11.460430495294252 0.8181805617494555 -0.6206015682172795 0.7202696109335789
Ni 5.981660615302013 7.886711664822114 12.661584275524001 -1.4062993268476813 -0.15246333214046 -1.6466280526425576
Ni 1.9575490851651816 6.466978218464826 0.2833682361631003 -1.0449063520489166 0.34280004228792577 0.7041055995792067
Ni 2.6027474836788205 1.7466004453190729 0.2539737087607847 1.3314177470474424 -1.208399973861609 0.3898430026093415
Ni 0.5989850053796708 -0.0070799016663814635 4.659595560229176 0.03094502631828864 0.5031949705706366 -0.460165245173672
Ni 8.622048543764015 2.319906687436568 1.1267337382025955 -0.42230189446899535 -0.3014646738742486 0.21212166723304116
Ni 7.177938081375799 0.7898581340415648 4.843999123575239 -1.227022474058803 -0.6647780056241777 -0.40909696574294707
Ni 0.6469137169436175 7.567232468551316 2.32828469253509 0.48982086325657576 0.43577601769603014 0.8064807568140239
Ni 7.439070944433559 3.5016089570793065 3.952137388260763 1.0790647430981803 0.6248048076653497 0.5922826666679283
Ni 7.389342196110378 3.9627590626598894 12.638212037097038 1.0527762417152966 -0.6500620395702418 -0.25503929253217367
Ni 8.253560249493818 8.95592985600824 6.784516180760964 -0.2665866310501409 0.4178063205914869 0.6409307666929349
Ni 6.739780348165194 0.6646271353562253 0.5166834258824285 -0.47069031307471193 1.0229380753079416 -0.8447608833411451
Ni 1.9680341170977667 6.6679792867467444 9.274525430995407 -1.5057038314899487 -1.476152085974761 0.7361382025347193
Ni 9.17344644374609 4.649123281593469 1.544656544018021 -0.24812996700685008 0.3446098418031549 -0.1475592099706233
Ni 6.311196697110233 1.8814756692928813 7.059182113704953 1.6426130179458935 -0.4564991091759944 0.2707860138434691
Ni 3.5506362740742436 4.441827550352891 0.7521302380797976 -1.0263314172602067 0.32215922610912257 -0.12873899194032667
Ni 6.083267953421954 5.929408536096706 5.223314055944373 0.4761094272077542 -0.9052810522133893 -1.7430760457596626
Ni 5.518916347611784 3.1781215817899704 9.008365947068489 -1.3266308671817606 -0.20156188943932382 0.4625473722526034
P 0.24866651536032938 5.37340123024331 12.684663188122789 -0.1432451559763017 0.4164269237454571 -0.7359003754923004
P 3.9330165524427825 6.341194273264883 12.944463331656884 0.9362890705591294 -0.9104515406707352 -3.3946452444575796
P 2.242767460325248 8.596323322063213 1.1353331040969137 -0.2646850431520538 0.5601189374511902 0.4227996600410202
P 6.3172271846335795 8.014290181082629 5.811590846696109 0.07475533863501964 0.25822900311406494 1.0722641752365791
P 4.710093150164095 1.201989121175203 12.711047937462093 -0.26018972638486154 -0.4338019246887948 0.21186275714469963
P 3.916309733533694 6.305239085569043 8.233204165778305 0.3129194526784095 -1.704447277643871 0.014610550824323224
P 4.585657410634025 0.6257277579813126 3.752306890442213 0.8842861951292771 1.122562152160183 1.1025402005123013
P 0.3052528936043185 5.818919437651594 3.6158201963129972 0.11463340577687998 -0.47288526384350166 0.3374997131209349
Ni 1.5297761794116982 1.2182222462002823 2.4207460948945494 -0.6853308900748649 0.18658649907641414 0.31601377533301706
Ni 1.9482847259336968 6.431241658715451 4.9392079504619515 0.6824062602289022 0.4494882250758001 -0.3577183541606549
Ni 6.287776178345093 5.863792823663682 9.21414221408113 -0.0024232647295119557 -0.6378395293621208 0.9675446861393014
Ni 8.598281864083637 2.4577698266787418 10.17696056037083 0.4705285906858671 -0.07464041032371016 1.409559742766508
Ni 2.4030035260890794 4.895398553789328 7.166390882003301 -0.41841515782007943 0.9132499293514788 -1.7258321710775504
Ni 0.9059085808748981 0.1761066327776888 9.135279469991838 -1.4739471079036421 -0.852482677465435 -0.2703029035594635
Ni 1.1560863619151718 0.7765600891977876 11.60243663412195 0.8176539998220241 1.182536732941602 -0.5745443688479008
Ni 4.25050076870208 6.752223922118201 1.588588007960753 -0.20700568616271442 2.2375117820804307 1.218294864377818
Ni 5.493591943812838 7.832783438027237 8.079651738527886 0.479702029655019 0.694112750032553 -0.32213094397434844
Ni 5.005933199723288 2.5217002820244248 4.9601005835960805 1.8060050811837154 -0.21953055810260255 -1.4965589317658872
Ni 0.8701091655909139 7.210076389506259 6.955720992788937 0.06335609565914249 0.6042143851085078 0.6218984326518322
Ni 5.532626141754738 4.9284478116967305 7.205108980372602 -1.1168085375058572 -0.5430743232640776 0.14466723313480892
Ni 8.5504752197898 7.214430729440035 9.432210837383805 -0.3534145845789784 0.47083995127869877 -0.47959352910161285
Ni 4.8652461161725995 0.16224653192153926 10.743973050479443 -1.4462061903449481 -0.07174097728872807 -0.7423083359011732
Ni 8.245789847896516 7.2493747628834715 4.750057427828251 -0.15411732280411522 0.5835280604037499 0.6636858010012634
Ni 7.645974967270051 6.6475011357611224 7.154937510457828 -1.2868397033267516 -0.5298457403889455 -0.31036171925356226
Ni 2.217005800633371 5.600637652101115 2.5681386797532975 0.5461794445519625 -0.3546492283170279 0.2443396467264824
Ni 2.612594850767547 5.3064737501314925 11.379914377359812 -1.7732859936841396 -0.672706259332319 0.638695706714829
Ni 0.9518240934318064 3.7328899959467265 3.825303117968008 0.2674754614129974 -1.1468333660027217 -0.009577873496422215
Ni 3.7231792713245415 2.5440367705550058 2.493049089640093 0.03041126530200569 0.5360127884316059 0.5415144349761254
Ni 0.898824124459632 3.306674814311812 8.103357384573208 0.10600786889139806 0.07932907404863111 0.7069106731281696
Ni 3.9786278077741923 2.7935185859656966 6.912256846081775 -1.6328420546020588 0.5866177550726671 1.1322495546512759
Ni 4.1101598460666295 6.9570327604677304 6.1397349972451645 -0.4521706570039697 0.2634650547020237 -0.37426443144479415
Ni 0.896083076580818 7.396657122819209 11.611236408967196 -0.2004663423822999 -0.2537478274142598 -0.4029497151946286
P 0.12394473760029957 5.522068233839998 8.117622858080097 1.0080740137119155 -0.6160041786545842 0.5862639712776742
P 8.445506476992946 1.5259319713530093 8.245377187647561 0.28489828487513513 0.37723971202303413 -1.4348984786416126
P 1.75215723895841 3.2661011112468827 10.539902992399012 0.055944376576103655 0.17355254871059142 -1.4221596909187055
P 4.179829285007038 6.151088164315174 3.562035899582877 -0.24185853217584152 -0.5412832928019259 2.791575514476476
P 6.666448891121485 4.094819451822952 10.532449601324087 1.698268916747301 0.03741495031334847 0.10428188733922686
P 6.36559861778912 7.716318509045395 10.262543380964612 0.35573037719634865 -0.29001760837957147 0.5318601997158131
P 2.2546371359187827 8.506758739994426 5.917626311681758 1.46572471999385 0.12058139583019878 -0.3038735404260573
P 6.948242095120254 3.9797573854975985 1.5808012092674657 0.15870571350574603 -0.48414720991056615 0.6302560605879081
Ni 5.224679569660006 3.0413606917778955 0.41879367380218085 1.1119303834779495 -0.9034298579372635 -0.10612922496061078
Ni 1.3802802115179948 1.2283337887243218 6.917442883161897 0.9355092549703113 -1.728632873751139 0.4021537016558945
Ni 6.787459459490259 0.4933503582958749 9.299444462143613 0.009640094192925332 1.0286058151166801 -1.0512158392067121
Ni 2.748954922877768 1.7418270684879047 9.048563427875543 0.18287922542815602 0.2691592768733235 0.9219461715738961
Ni 6.411556034035767 1.8263449887924432 2.748943080530668 -1.2136375681114646 0.1312959540342255 -1.0207996888087
Ni 4.127850490734814 6.853548865807292 10.422508894644691 0.3425244200290359 1.5287334596159028 -0.35810581940706065
Ni 8.331883711315161 6.801497195552912 0.7619858037165167 -0.23678266031483092 -0.0062022721559699635 -1.7717893545339551
Ni 7.680818796238024 3.877047798147559 8.440527225512191 -0.0787282072398386 0.4521984249181116 -1.0989997914592105
Ni 3.1150383097368417 8.464864159752933 12.39893012633875 0.7049090693171085 0.10921814829857963 0.9081740574904683
Ni 0.16085277876282034 5.037852879907282 10.337353309496295 0.5850768929481085 -1.1966094089845842 0.20675037561879875
Ni 8.636377783755288 2.2969598625554375 5.962503341492955 -0.35157393182581387 1.228806305432103 -0.00313520319487202
Ni 3.6535189418819023 2.970352156665384 11.506708565862384 0.4549551617276423 -0.8039937287261121 0.3588570957507884
Ni 1.0972845538136635 3.154828595993602 12.64225209935777 -1.2178446642142768 1.5531507121180026 -0.40297542622624144
Ni 3.0345558969441497 8.254316337808678 8.129889707776377 0.37721142988826 2.6365138254812206 -1.1645827195663427
Ni 5.9196522639856735 7.775430040071064 3.581808975441147 -1.4587117790111266 0.7141539849541443 -0.21498459060313296
Ni 2.692093437801143 8.326354246169132 3.3992974547817894 1.3850059646865438 -0.21586365077397662 0.0951812105895393
Ni 3.3702044517556415 4.350477506721299 9.144318824628419 0.2598485409953589 -0.3262714485052832 1.287138465514093
Ni 7.578947282682771 6.2881314487581 11.549385651962268 -0.5141766663931209 -0.40519325981316673 0.3801846535839711
Ni 0.11301060742768292 9.045858817987805 0.27842451172364424 0.5173923451169412 -0.008961322958345857 0.2966471978809471
Ni 4.467662086026923 0.41065160469588674 1.7108219818799586 -0.3533829600100946 -1.1658782984493148 -2.0572103446817795
Ni 5.966274673569488 5.641794363023286 0.4550330778284273 0.48112384970321004 -0.9699376118515101 -0.4630541366856928
Ni 8.03233609616382 8.896207988632021 11.21174940473749 -0.16191625002324372 -1.3182706681425231 0.1807233554274178
Ni 9.199408512388894 5.0862607510539 5.807924273843923 -0.5800696695415043 -1.2800432492302083 0.21594438341324101
Ni 7.798076251525804 8.968382539459016 2.4718367131342567 0.5437417816447475 -1.0601892463499163 0.20956213403598103
P 8.647864860442507 1.5963392796127398 3.3854182239803245 0.23578892894299394 0.844248719591417 0.7311052680965021
P 1.8263814267835208 3.41293710579192 1.7575792120307598 0.5502361311198395 -0.8940283621177053 -0.8867822220782534
P 4.743069532089342 1.2326061431781727 8.478258765273065 0.21391089792298 -1.1785139849354542 -0.32785756204548056
P 8.314092862171513 1.5390223196476445 12.247164982550688 -0.2609397171770087 1.5419232188332994 1.965107515907248
P 6.402054827862278 7.559726242389326 1.3441464776658736 0.23545314287012997 1.1176752563815269 1.402695411546507
P 1.6933189928658239 2.992834397160275 5.822870226834185 0.9831965337439453 2.224941658724904 0.5038917395273451
P 6.906976070224851 3.7282259330887917 6.0701520985335655 -0.4243392366139982 0.6794584904544878 -0.5296431374598362
P 2.5592951793187586 8.690998332380639 10.32198012106065 0.19684880023437065 -0.43131978169688945 -0.14979709816220654
