# total energy = -340860.14977655053 ev
CRYSTAL
PRIMVEC
9.33809498185694 0.00000000000000 0.00000000000000

0.00000000000000 9.33809498185694 0.00000000000000

0.00000000000000 0.00000000000000 13.66724591505719

PRIMCOORD
 96 1
Ni 7.570337518966436 6.468059457112867 7.623124835711059 0.3632176867123293 0.5091334475422586 0.048614161463277565
Ni 6.704602739403026 4.745162269117958 9.159296543977483 0.741766090244458 -1.1712567891524086 0.7921028908257971
Ni 3.7357142088137345 0.91228611652384 11.755991022685354 -0.3016981300412933 -0.7209591808014357 -0.05862783694553774
Ni 0.3675614229941228 8.67699514733511 5.168869921597604 0.2968775687241984 2.3615934777544036 -0.20880597259624684
Ni 2.795442755639333 1.6814733989522683 6.9787551989630785 -1.1284877736159984 -2.6990664514024614 -0.20951842528223916
Ni 7.562007938302316 2.3281551480011866 8.6718806727502 -0.4826533989738591 1.9339827694779854 1.4378112814130335
Ni 0.7951611934343138 6.444406062693342 4.991619806779301 1.8210208378662573 -0.19846730967440016 1.6721907316030105
Ni 6.06822090904528 4.670233395520538 5.0626761724154985 -1.1645115000087751 0.8819871146824553 -0.43658205853709325
Ni 5.172118644818509 1.6880100653927215 7.634332417227961 0.4611944577691347 -0.25883835456328974 1.118741235752196
Ni 4.751465483185537 2.4298189873400586 13.240075771325776 0.5025092573575216 -1.2301070265213976 -1.013087664876423
Ni 5.775863833448568 2.0945627037041454 1.7500364932461787 -2.1932399567462486 -0.14210641438616817 1.298121703998474
Ni 4.647653882016231 1.0106713507380791 3.922622715202553 0.07362122503057643 0.6538947830527706 -0.6304283244997143
Ni 4.38966099570647 3.8939949176218436 9.515300206895395 -0.27844301616809464 0.09844856848690142 -0.22861143735794823
Ni 5.523912694548769 6.039991848117439 10.839820258676903 0.496941533461757 0.40293197458281577 -0.4436993863081649
Ni 6.94279886449313 2.3905616363176816 4.816938601872096 0.22734182661690522 0.1016372506275282 -0.6379110060300046
Ni 4.693158418536697 2.749200509620586 5.672535945595855 0.8439931519371852 -0.05221936231603266 -0.8171485209405154
Ni 0.07798336444409433 3.9298998925697597 13.04527657473384 -0.11083768617987363 0.22823965584082628 -1.5311502965875115
Ni 1.221824352954537 9.500484385503363 1.2543199894490111 -0.8700834212663338 0.05854916118880239 -0.12560096053197722
Ni 9.408037245845529 6.779186103488595 9.313899911008091 0.35421214077960933 2.000435244674265 -2.1091533134079743
Ni 7.482662145810133 2.7198882296826126 14.179357386439195 0.4016942455209727 1.9290629635788648 -2.6172241240136733
Ni 3.3040327570862265 3.7090632859265167 7.245362477831864 1.9848235062789366 1.4110075309566281 1.6057891642493247
Ni 3.603701561001331 8.887774625754968 1.6934812552033804 0.052974752424818444 2.062149948075242 3.0036233910487886
Ni 4.472265783323965 4.165051798717594 0.8619369763615059 -0.6978099963784821 0.48910943901184795 1.174984374515641
Ni 8.133816842323304 5.835310145677029 10.797151701582102 -1.2329316404543864 -1.1101936032925008 1.7545426516383655
P 3.408301924906365 4.801377600505853 5.329296524617165 3.8635211300313723 1.2095528565191298 -0.4220571254480408
P 0.7415390510042957 8.064416120915524 2.7378229747762326 -3.488602352832031 0.281844842760792 -0.24491351695208144
P 2.8748539147959202 2.8658146389182653 10.82998070806504 0.11784702761817123 0.053618556656404436 -0.23988289650670946
P 0.9039303891939582 6.192959180918951 7.500366239959354 -0.20294668560199242 0.04611993428651412 -2.3457315710214828
P 8.422102508537106 6.404821878348943 12.890016739630711 2.886543580613945 -0.5728114453171942 -0.352547865703309
P 3.0291099046956935 8.863878440867655 13.423394714029294 -0.7073169074276527 0.099529460255906 -1.1112158739094282
P 4.380042757944089 -0.16865626606809067 9.19823453215377 2.1633146299417256 -0.7752328545433358 -0.03463224536188874
P 0.2864628700864069 2.326614362340223 0.7511563549571849 -0.13910825098979268 -0.47440709980466683 0.30561983369320267
Ni 8.19887534959564 8.320158526350786 11.724788712336597 1.1701432443732558 -0.8832094171253305 -0.7565656171511357
Ni 8.343933316004204 4.715112279681704 5.809577157519949 2.1868654206784726 1.1560160609432542 -2.5128694744549818
Ni 4.886176840428356 6.93649565042555 3.9808858908052924 -2.877662218963915 0.5297480384688167 0.05916776860940778
Ni 3.3194312756009507 8.863523593260888 5.031760541580631 -0.7295597779862533 -1.422862116302369 -0.4565690431819814
Ni 2.5406528358853944 5.187685249041703 3.3779960716694424 1.1080521314694658 0.5608977245987438 0.1631174694201965
Ni 2.8726034339214217 4.06239812131774 12.79099744877175 -1.1766458213784639 -0.6765878537749123 0.09165134305940989
Ni 6.939259726520371 5.034120278165634 0.047897890247164204 -1.4476292959447197 -1.411988921033291 -0.38608867777323186
Ni 1.5539897271736074 4.472265783323965 6.06253027400412 -4.2233079366852815 0.681032519809827 1.7869539780895354
Ni 3.093990988164646 5.532587784724741 10.995695474234925 0.6846426057585887 1.0742580657381564 -0.5217084559937918
Ni 1.5800336738913545 3.0655845034334206 2.4498949575976723 -0.011344478478541753 -0.06786838170719925 -0.41843418398347293
Ni 2.5550148258645615 2.967683916345266 4.798911409638819 -0.4937451380116464 -2.739519417211185 -1.8328862218452757
Ni 7.988394690213057 8.722882545747087 3.299409466293843 0.03891518900795879 -1.0469596350335195 0.6374384372689602
Ni 7.748984612784014 1.264116584824267 6.816812089329333 1.2131907103820332 -0.7023004280496679 -1.9118751389456683
Ni 1.089895747996368 4.283356123194877 10.779725882661346 -0.7384061726332897 -0.9550326697152198 0.030757592897830904
Ni 6.49062963252226 8.814423890198173 7.640673917484692 -1.2266494069901004 -0.19994517977150725 0.6337363058270247
Ni -0.17814377050166227 1.5616282888140223 3.9550819331268587 0.7096771801297133 -1.0092616062621136 1.0729966825272295
Ni 7.820449053167993 1.2489328424925865 2.095708487950208 1.4355517959548956 -1.2451302394031074 0.25833596100557443
Ni 1.7710537434712175 8.232371096055504 7.226227787541675 -0.48169412038438325 0.12174559134162903 0.22533893725426352
Ni 4.0834275110661675 8.898877620608824 6.982363438838209 1.5924952753538961 -0.11838850194393805 2.174661936633745
Ni 4.3820504483508005 7.691947529043604 12.321240848838094 -0.9050571091280414 -0.48500955791086153 -0.4640329556591944
Ni 6.163021248621676 9.08172685713812 11.106373376595181 -1.8300225271442356 0.26770583225624867 -0.8202274169761552
Ni 3.4860228888833493 6.423778211026257 6.928773979740392 -1.2266879735375198 0.5246307718469093 -0.512477167203511
Ni 7.111407506277154 6.455294281364154 3.8276626942031102 1.7333382496466085 -0.5511195621660573 -0.4299943780172465
Ni 0.9980555845080051 6.659630474292712 11.297385975699113 -0.38291336536904375 -0.6015810612507188 3.1373117565745905
P 6.579238815170056 7.584680832755772 1.8674238168028143 -0.38325866452360446 0.4731529156825916 -0.18803017350147616
P 2.343927190312508 4.925378162881243 1.1752972950408846 -0.4133032905148108 0.14513671657205973 -0.12672067595871722
P 0.8887494482907521 9.305364892255843 9.00782237255287 1.3909105030964368 -2.4265593411028274 0.2954778601631944
P 4.012177846865232 6.270465368712892 9.129132629783268 0.15010331654871567 -0.6849637365434332 -0.055430155943846475
P 6.128115449829657 0.39349518019187385 5.385263462680323 -0.14481430023563446 0.12347183000411639 1.1185923688791573
P 8.278109084948845 7.176680789732535 5.617183454178099 -1.1127346245467997 -0.1266628261375883 -0.03240027070757646
P 6.934394579069691 4.138643666298164 2.102200331535069 0.5556146218229334 -0.6664399667076328 0.6432882111815179
P 3.555031410304702 1.9569845513224422 2.1570877858260604 1.241894763184945 -0.005483905932706685 1.5437049933240703
Ni 0.3394444192052605 5.805932499074651 2.9499928955289265 -0.29411183305360317 -0.08708583517591453 1.2294066580202632
Ni 6.567164658445047 3.3449896413831213 11.85584327161073 -0.06968718008349288 0.2755780359154738 -0.534803084394221
Ni 3.7086150573706 6.728564290954744 1.2521161990490872 0.0437437207448537 -1.026392095294813 -0.5026491253694956
Ni 1.4049724085211117 6.72706085767344 0.3628419498241158 0.4919052565894303 0.37161053876171485 -0.9785829462313341
Ni 2.064904914254319 4.996235627095753 8.698874303720796 0.8531195397184855 -0.07776815731941446 1.2217743382859862
Ni 2.7314301149974693 0.9240166313559784 9.542142560728367 -0.4655316516919079 2.544020960357122 -0.002609669708705183
Ni 2.0965330417311963 0.6444462091262831 3.531096939228238 -0.32022267120804204 0.8984102932354849 -0.7389759290938306
Ni 5.524099456447067 -0.13561995387804182 0.39834538669068986 0.5880652861524711 -0.3808425988829441 0.12542252597258402
Ni 1.0341753356389647 8.800771595432542 12.6089223403109 1.2279714682356337 -0.326644772684302 -1.0708187010393042
Ni 2.3104407819475594 8.050240892834656 10.21856240684338 1.1882265842375277 -0.10188793318575355 -0.5497759036539693
Ni 1.1951454157825743 1.9558919942173951 12.074519976900149 0.3061332829945115 0.19843877042930985 -0.6567721046005657
Ni 0.7521900820642681 1.9610092702307782 8.648633485459474 -0.8512943135842888 2.027027907561128 -0.4692093576538113
Ni 4.803282571868499 3.7731786456124445 3.2438935582150767 -1.0903485435421156 -2.0399101628404352 1.3822926795204387
Ni 5.449348006653031 5.6110931486745805 2.271523337580086 1.7555281554800863 2.2531098936290035 -0.735547877248888
Ni 8.59157959314822 0.7424224347832484 13.3269583402238 -0.6957230319424663 0.5422479707080402 -0.08731620601916575
Ni 8.213050577676508 0.035213022114719654 9.035662034922757 -0.6842811086541118 -0.7776255231452285 0.4875762901967732
Ni 9.02290619726896 4.3560251778228825 8.131287152410849 0.060262801445799444 0.003319037070903961 0.7075380222995233
Ni 8.680356861504483 7.984528718918274 0.7349192755191 -1.0983765560529148 -0.3268018670874565 0.9522569067422955
Ni 8.521824024133672 1.3829625188066155 10.894940231531278 -0.7980539662029094 0.8307440002367629 0.3490465374182698
Ni 2.399918407422444 1.925113633377777 0.41667326558022827 1.4230624052386331 0.074288169190614 -1.086332223293871
Ni 5.429299116870671 5.386409246926385 7.35803499726595 -1.266168033910013 0.08489088440712478 0.16891479282826394
Ni 6.1650662914080465 7.524151301517179 5.727546662739723 -0.3132030453570993 0.15998560865943415 0.5598800819675067
Ni 8.983583479582178 5.395364479949805 1.0594834404774152 -1.0848566671896092 -0.7322504374445389 -0.984085621217118
Ni 6.527421726487095 7.164998832993954 13.044141996201676 -1.5452985630634353 1.3537372364802491 0.7155665490309546
P 6.903746951558881 3.954010853640116 6.95829543300446 -0.6976580441816501 -2.4397519285337013 2.0993576674737913
P 7.036572013628884 7.498191397653666 9.700709949050367 0.3471629472423118 -0.3371377017958258 -0.6099381749661624
P 9.314964453828395 3.6118537178620675 3.754651865301218 -1.0223942869893294 2.159669834100287 1.2066007158693413
P 8.317301069306815 3.60867876559099 10.567910809515418 0.09472278289588203 -0.6074866281018764 -1.1471634956486307
P 6.530297859720894 1.1780193497085876 12.717386180366825 0.3803471473037643 1.1486225966926606 -0.8512066389664887
P 2.5933290293005298 7.612424312748037 3.4281827289802567 3.3978418970180067 -1.434734956480555 0.6671534478348898
P 0.705570577010958 1.9660705176746718 6.375086582711323 -0.23161037208527205 0.20121761872602767 -0.6230844825401334
P 4.884131797641985 5.075842886245554 12.679212982164072 0.31002284785690476 0.5313161542868851 -1.0837480075064627
