# total energy = -381164.99189196597 ev
CRYSTAL
PRIMVEC
9.24763769404053 0.00000000000000 0.00000000000000

0.00000000000000 9.24763769404053 0.00000000000000

0.00000000000000 0.00000000000000 13.53485253077947

PRIMCOORD
 96 1
Ni 8.120619014564118 0.5497951917809037 10.603650478203436 2.444899791283228 0.599440360758632 -0.5099731698347346
Ni 3.033049523493421 6.514711208771181 6.704583709972064 0.6687429038091965 -0.04879105336077404 0.636635995972323
Ni 6.025622135933059 1.41907777745856 0.37009139320618895 -0.21173394487631922 0.9919249147558789 -0.19302119895816436
Ni 7.035343974459303 5.592416538876982 13.26668721341275 -0.6407217360059223 0.32667588303255357 -1.8691223213591743
Ni 1.9782824407946895 0.13252235004914956 3.7564228785093032 1.9039065189178952 1.5318113272102782 1.1600984585427438
Ni 5.571711077636538 4.794678303751666 10.190309732103408 0.21640332532753054 -0.15596466042549914 0.11495453656172461
Ni 9.02712796657648 0.4836385150645099 4.545883552957388 1.4095088349239144 -0.022624422267735228 -0.11034891946891318
Ni 6.599955934860686 9.095976630683268 8.182508831157092 -1.0576286847115914 1.0324650409617702 -0.40481505053814154
Ni 8.420603140146403 1.0459170932359783 8.415064729812816 1.0434076560162031 1.7585430310470103 -1.2504030577662724
Ni 2.4952161513259665 5.395700785635934 4.606708966428979 -0.9375085447885274 0.20176886324380736 -0.1471861429019207
Ni 5.2399150777053825 8.023629788351627 9.647859939100211 0.9574973292056285 -1.625935814400529 -0.2601722428833648
Ni 4.837023237659655 6.094387571298817 8.241006614171237 -0.456352299185485 -0.6459500742843972 0.16865588273992244
Ni 0.6683064456597114 7.529269561915 4.327619878663926 2.0586380782672418 -0.27226748348500207 2.0413600079130845
Ni 7.4410933346136945 3.4123228963626895 6.907132873195457 0.6446110437579995 -2.359616813644007 -0.7148206720038657
Ni 0.41454663808115905 1.8276939053595063 6.561439523040033 -0.9026266453096777 -1.66805459794745 -0.9278239705109117
Ni 5.61752387575407 7.33455129845865 1.0427155609977283 -0.04211029890648877 -0.5015594918497427 -6.5610942847177585
Ni 8.172285567467359 7.91488681437826 6.593381789083183 -0.5121395813584341 -0.8900318393638026 -0.11014683076043612
Ni 2.5967367201055933 4.984994691571369 0.63705682769468 0.4656550646436497 -0.22031988677311734 -0.025923147623665033
Ni 1.9740007844506409 2.638757986687359 0.6487920801797726 -0.557887219907194 -0.8655973604705223 1.6656274765631958
Ni 0.6320187145710564 5.936965031461362 9.318123388127628 -0.20735664174422996 -0.06985610156118938 0.47113228570813703
Ni 0.42274929289146407 7.93212441140916 11.195556638653658 -0.5339209388995837 -1.6716394870852307 -0.172152068818639
Ni 4.25063051892071 3.446502166011943 0.2256229445280066 0.20107492250057632 -2.6972576803284967 0.6211222166074399
Ni 2.044800700152665 9.15404254900785 12.262468644196103 1.0893075038721112 -0.5103104985694954 2.5664034418173802
Ni 1.253258382415065 2.901862532355892 3.994581920963859 2.0866327637079545 -0.7717412964503096 -0.539686123518135
P 5.6101997465435165 2.4800870157344677 2.334748364330638 -0.4177962932891579 -0.7892672211492149 0.9573834293355834
Ni 0.09893585398878094 3.8243051644563657 8.355808640491516 0.38681372886471443 -0.9595195018419798 0.08398328499119084
P 2.60818529581603 1.3327048395462155 5.6428559302319385 -1.5999406758883479 1.339866649145744 -0.6336638007178764
Ni 7.479692975175378 9.037744254876626 1.2774298583374721 0.42551217387617685 0.2697084645085742 0.5581862392048516
P 5.909545785111244 6.660056333521536 11.333381584270146 1.6975839748651345 -1.3280650285251256 0.7578252005898497
P 0.40978040551156353 5.583714511620502 11.69187921385099 1.9971858844990316 1.5048430261515502 0.7461053410497601
P 2.332439229148977 7.291013419262577 9.123113824077675 0.2671985536025269 0.8118250518450728 -0.6975076346467148
Ni 6.023726370165175 2.2354130123849174 4.903731073594419 -0.9684620557472482 1.67780396402473 -0.7651425601868694
Ni 7.8268585492832266 3.3657425443001117 12.749059930039564 -1.4176589748348745 -1.6209208776844406 -0.6498872045552743
Ni 3.508526073354351 6.745717203316187 2.7000272867777704 -1.437826193811369 0.26884663072891124 -2.2847138936875298
Ni 5.223999892893055 4.124742424295363 6.615294991832336 -0.7288558099406931 0.20705093757835308 -0.07245265864377198
Ni 6.673030769484171 3.9164301331376046 1.2416100577261582 0.22764033169393053 -1.1430381606263476 -1.0708631811239944
Ni 4.112221122589441 0.1561324943515056 -0.04752361112757352 -0.46217610495611366 -0.4532901153203935 3.2329804483235094
Ni 1.3589033976945744 5.9920994485741454 2.1175010054415186 -1.2818103684329603 0.3786910997575801 1.1861118518873701
Ni 5.283989319899198 1.1267784389646225 9.950079218761019 0.272173381109299 0.3386484820133974 -1.1642880711440593
Ni 7.08235896550281 4.97847510685743 3.091820111825383 0.8270058733505693 -0.4440709107149707 1.123950547867277
Ni 2.2655140737237485 4.239366895968115 9.921832308819555 -0.19484976752647087 1.7364014619529642 -1.8780085681052108
Ni 7.998753642421841 6.738947932379159 1.3938187793200398 0.05033834324323589 -1.20400672988992 1.6344507938500754
Ni 3.0021994034853288 2.334529195312595 10.612961924797004 0.2161194755385246 -1.777181472083804 -0.31081629029247765
Ni 5.602607435834091 3.060117359603638 11.816698281536011 -0.27092073964912056 -0.7895731824254079 -0.09901369696175207
Ni 1.9212430102761306 0.18578966907151503 10.1391203573154 0.4950880251927861 -0.6674545240150762 -2.1539396164847293
Ni 3.680504395233994 3.1672604922216703 4.9935894462283 -1.1769376415872697 -1.2708014189169663 1.068305190588831
Ni 4.459118515198419 1.1214795424524413 6.644192010717614 1.6675041247606186 0.5927930306454436 0.9155071008167717
Ni 4.203180888896273 0.6647054154645222 4.2885180913647005 0.728383498289965 0.33954168325162815 0.16713970320571214
Ni 0.5973317496015262 7.4697240215276794 0.37378397501651 1.259282105423457 -0.4802062229849472 -2.366540280236718
Ni 2.3125198171293637 2.2730786415194975 7.773052092971751 0.3439097304123367 0.1733059799174241 0.45501789664477765
Ni 7.886838728651478 7.741428870435879 3.569911893682203 -0.9845425062488785 0.8840290848131485 0.6156434528810558
Ni 4.779040548076101 4.886590576761385 4.129646446669551 1.1512993721938753 1.206660108352367 -0.35992281801114145
Ni 3.650088914206831 6.237476272403497 10.465648902703208 -0.6755699540333591 -0.7052322569844822 -0.6939330299215791
Ni 6.398422162277848 9.04550302306811 11.500294050112489 -1.8403642753898755 -0.16571711182657264 1.5653773360911813
Ni 3.688568335475917 1.4892581014218123 2.0768150977713744 -0.22333553367098957 0.7516995473080861 -0.36377304499516705
Ni 4.5882525307238975 5.254887003452715 12.50739510806011 0.012966587462997024 1.198074680676201 -0.017503556101402112
P 4.236102479792199 1.126251323604772 11.719815403159279 0.34478570525938684 0.0631465507514977 0.9194856258485453
Ni 0.0013029921789988537 5.447931444450593 4.040505690736097 -0.48827640158759134 -1.3292585346125945 1.1135172683490953
P 0.4172450988180779 1.762498058220103 2.368613214291559 -0.2609206910136151 -0.7877443567467852 0.08378633848903634
Ni 7.354646415598213 2.9754644823392273 9.869993749851522 -1.362001019150938 0.009907746032015195 -0.4069796622896281
P 0.8590833658464435 1.8878682851234914 9.504877585831291 -0.5452253081688094 1.2320119568535943 0.007837493766547793
P 5.882995816722985 8.548433238729093 4.743045967108625 0.9946034900293064 -0.2981939735427767 -0.45073289611617856
P 7.860501455934737 1.11018817658617 12.691104058605896 0.27792930975646973 -0.10601095421519162 0.6572202478815777
Ni 8.383002244477067 2.9216524774450163 4.622991282465623 -0.9059806493835751 0.8684731393564205 0.6864621754658307
Ni 3.7019126769542376 8.938082461313314 8.326709098336401 -1.2557774347043082 -0.40405991753967185 -0.19436048659487817
Ni 5.136720686467283 8.881838327653476 2.3627927510022624 -0.20606517662631607 2.496012807908959 1.3187038990252
Ni 9.229077882864463 3.6634240080472598 10.848401236947492 1.1087013350176904 1.0144164109901754 -1.1201329738934
Ni 4.72330503450033 5.257402360959371 1.542026047998004 1.21310457842613 -0.4579342989606242 0.07359320000611841
Ni 6.524282513989519 6.103857152500343 5.0956010645799985 0.1839071524720381 0.5735688923085089 1.5524125484003972
Ni 7.0436576009243135 5.269424290219118 8.217563852114727 0.3931077894035423 0.7345135224471028 0.7628043989719959
Ni 0.8102299443899841 1.9623857512581457 11.890205905612845 -0.8012747871330522 -3.0463656671123216 0.2998057981145869
Ni 4.419510882106495 7.990097853354822 11.742946519818824 -2.9466863115421127 0.24589207881526684 1.6747615776539804
Ni 7.872967271813307 7.9425095087620035 12.828414835555584 -0.2803834277239171 -0.6198803737805388 -0.6413843092905858
Ni 5.266483541369426 7.852308048762324 6.7213404298325745 -0.0311352879522238 0.0535913029628948 -0.4710834347480725
Ni 7.310239258440283 0.6897868589555138 5.9046204931699044 -1.0987061714781918 0.5130029577999939 0.9390157254616732
Ni 0.6841032607070205 8.475783795448645 2.3129442837086116 -1.3985870458050882 0.6420797926957136 -1.0222767875748588
Ni 7.461484376165806 1.3334354029396924 3.1448775094675976 -0.6925932280642331 0.23851481251458925 -1.2641767145115972
Ni 1.1216922381239598 3.861739602643643 6.068040126180397 0.3429039148556417 2.303587847773897 0.7275664017053083
Ni 5.917249067475376 6.861035247830848 2.970372732915829 -0.3509013312388215 -0.8207267252100768 3.29871558573779
Ni 0.7819321724401154 6.468195590173848 6.4434969988915896 -0.32799614450587383 -0.6449591711260376 0.16009616609536942
Ni 0.362304882101029 4.347037143945998 -0.06379205570738035 0.12134835590321036 1.7299914446615625 1.1173212154762178
Ni 4.30938076244931 3.1629880835155135 8.821110014379753 0.4329598884034737 0.4751534910523881 0.31306472000702207
Ni 2.0979653703944283 3.6746506404482857 12.225085068017233 2.0073913642771233 2.6378112041364057 -0.6442132940989487
Ni 0.4530223602950883 0.7128384459291861 0.4141758078016853 -0.37104103941149 0.07373821022441494 -0.11428527840884188
Ni 7.887365844011329 5.569334434698265 10.66347437249131 -2.3759052663913853 1.2686954283175569 -0.6690766329995317
Ni 0.3542603618986791 8.110196926659706 8.462897212045986 0.5449643411979389 1.3535143218361656 0.09179043974043546
Ni 3.9446169334327674 7.423948213961715 4.638894445348693 0.3810459731430018 0.8343268324920147 1.9026952722186135
Ni 1.9341249698598455 8.811389822191352 6.459981838198072 -0.6285956421663497 -1.064158258299993 0.04607571131214
P 6.067809859996883 2.174027192057065 8.25379702213982 1.2231671048684547 -0.10019126220962099 -1.7702227813777833
Ni 3.163431970134335 3.9135078795636966 2.834239180269809 -0.5502214758318201 -0.34414318657938153 -1.574925641901249
P 8.172285567467359 5.344191442576859 6.304750988541047 0.8906807858017112 0.30150941106925494 -0.5804378515142004
Ni 2.338644394174585 6.552191885147918 12.531013575236567 -0.21140330100977786 0.33790851852357934 -1.0512523488716026
P 7.610278869849918 7.384636505282338 8.863339352814092 0.259696588798527 -1.2024303865417356 -0.1407380732837318
P 2.6435297678396896 8.123226848449695 1.086526245511618 -0.2163578168015758 -0.21139250237650042 0.19473638187705816
P 3.1404145994208634 4.4892010812614656 7.6736529323245755 -0.6003734140958628 0.600877607425791 -0.6199202258795389
Ni 9.12083428133727 3.929792969891709 2.2279584914800843 -0.2891460044078956 -0.49135246940975374 -0.3405685818542457
