# total energy = -381165.0033215635 ev
CRYSTAL
PRIMVEC
9.28526047725200 0.00000000000000 0.00000000000000

0.00000000000000 9.28526047725200 0.00000000000000

0.00000000000000 0.00000000000000 13.58991727697860

PRIMCOORD
 96 1
Ni 5.731726170885598 3.0816386063415053 8.671603923031833 1.2976553058850169 0.8885125745057988 -1.2086719965760733
Ni 8.3635589137292 0.749381786903781 0.6341907049851903 0.8487998292972091 -0.8918005012284512 -0.0732054776493965
Ni 4.531086305776918 2.539267983162935 3.351993815662213 -1.2606103373165773 -0.2565624140449195 -2.0892892274941954
Ni 7.012395694303807 5.856241511172263 5.626673664661192 -0.21210006996648634 -2.536793589370747 0.4841803771413468
Ni 7.322579099047752 7.353629009407082 7.580265499249361 0.3553956195647492 1.2127734203389564 -0.368569695052862
Ni 6.677225654160055 2.203902952553409 10.705429691655578 -1.7447776018318017 -0.5506397943161614 0.25476572715581286
Ni 8.091157233043901 6.497593008881471 11.851223381372368 0.9181162563048446 0.11445034323179645 -0.9539147540606927
Ni 8.856531952245202 4.072951563812412 6.252191008023581 1.5750212869388487 0.9837660330941702 -0.4128996273184889
Ni 6.8480744432185645 7.58612264143078 10.137262758381224 -0.13032459125989168 -0.33316663296321974 -0.6330796460796322
Ni 2.7956247340931744 0.9631043367557024 3.20701654730771 -1.6810844345482145 0.8921391155147924 0.9264376316863464
Ni 8.653064043840901 1.4980003254129637 6.638321342134172 -0.15355193721894847 -1.0047382644704632 1.273984444630638
Ni 6.114910291910957 7.882294588419873 5.340687648193686 -0.6451214077355147 1.1676263914886729 -0.2125458992546533
Ni 2.5093508745571453 8.101621721373736 9.103300743415561 -1.34961164434765 -0.281006920240529 -1.247573044516645
Ni 1.5048064211944794 1.0770251950686842 13.315183014091449 -0.26821182535838967 0.04831359950372324 0.5796027572074147
Ni 2.49909066195336 7.500661105860425 4.137260347950473 0.09696709884536849 -1.8978623696063441 -1.8353866196696262
Ni 2.399608383367877 4.50496686862357 6.496143579752556 -0.8397318055576699 -0.07058860885183972 0.5743330241680431
Ni 4.789188685638842 2.2436067254889625 12.667854594343275 -1.2023699656174454 1.230583966157816 -0.7898776010397043
Ni 1.5502577702402078 7.072601321926382 11.21684604265565 0.22516281668771546 0.009895404736841022 -0.7848845187004869
Ni 7.014893429317761 3.511583298111357 12.872654937597027 -0.14464075077224767 0.9928479407907804 -0.15838021184552722
Ni 3.856632855187623 8.89875203071526 0.541800508197691 1.5541506141374268 0.6235056292379519 -1.0792030684482574
Ni 3.0048402186076504 6.101214533005452 7.9596955895455705 0.6806285995031891 0.05432715268765482 0.014037451929672599
Ni 8.988122660861356 2.9845147838658526 1.2315969228652615 -0.45463403094279764 0.7940543581252131 -1.471397602008911
Ni 3.518407964413422 1.957537141678982 1.126980823873776 0.23792268745654507 -0.5501335441037041 -0.5937898473410741
Ni 7.934505606945742 0.4257960374790174 9.244989172580688 0.6717791195323591 -1.463785336879292 -0.4390942834359858
P 5.191156888200362 5.935045515125501 8.579341862836127 0.6750716742407019 0.3026424962324336 0.8771683531375732
Ni 4.423720841218029 6.135133588789731 5.3495754993288385 -0.8110706901775515 1.6347084183868363 -0.4799485984481864
P 0.9286745916563026 2.061290639990927 5.3357135342644115 0.3762081854347263 0.9240742736604923 -0.6117603157765658
Ni 7.57472034181318 0.4690077817464356 4.612716742957841 -0.2922354419664967 -0.711642274275884 -0.04219823063460475
P 4.502803402979514 2.743822267019401 10.249882751729691 -1.4001014255670856 -0.7373767029275107 1.916071179304887
P 5.039556443691759 3.7285334044348404 4.918177664325962 0.8715196394922281 1.2026401885596965 1.595838480794516
P 0.7901654356093079 6.433329722518756 4.781394638164075 1.1414924134057824 -2.0701345089426155 0.31070316175338103
Ni 4.03013722868476 6.669611740734621 12.856536654285796 2.5010897082112344 2.795254248879644 -1.2263601578844558
Ni 0.4861725138906509 1.8359373731186421 9.660664276360045 1.5158900279943313 -1.153040266144382 2.6749541317352903
Ni 2.763544159843329 5.114395641507606 13.439572074838374 -1.3852535619209756 -2.7598470730249436 1.1243932918316506
Ni 0.5112575730493722 7.722532400129616 2.7939376023012215 -0.4554197600688866 -1.5376407894078614 0.9169991119812657
Ni 1.8884362347130343 7.236077614326607 13.42481315363139 -1.4474356918766749 1.272620474403576 1.1452806768036212
Ni 5.471246764393295 1.5387626180198581 5.300243840014221 -0.033166202339323526 -0.3341511083636761 0.41401857141428056
Ni 7.8322748913188835 8.517694234292858 2.5451743372238105 -1.501397233694795 1.8993754638167608 -0.09004800312803202
Ni 5.941925892989216 2.862617886976715 1.1916684466310545 -0.8263163034827123 -0.4815290555614288 0.46264353151083554
Ni 4.917817396227296 0.24173896567943473 2.7986127308496433 1.8361114136507928 0.20844936058777652 -0.922196082801173
Ni 8.023625535064415 2.7080183033993133 8.898147560271363 -1.2461442824899183 1.9867742022474042 -2.454949719320062
Ni 0.3029817568747182 4.207040007442518 3.2861641058911197 -2.225509872523548 1.664253993254437 1.6624711903224014
Ni 6.226379841511361 5.051014454871009 10.493739685277834 -0.7426099263019921 0.19375910556545342 0.590436100377493
Ni 6.201746046002 0.9415253918767906 13.463924526961405 1.2389300241296664 -1.8860034133852295 0.6784783859294057
Ni 5.9701437989646955 7.862479842993196 1.289153465731402 -0.4474853357131583 -0.43316763353890564 -0.5272553539539501
Ni 1.0456317300791829 9.258258738039574 4.8008008321386555 -0.6112782339338246 0.06848878890001754 0.5375719053886098
Ni 9.201284380992671 6.986480532876508 9.47047336162285 -0.22812318486762 0.7472705650024549 -0.3065508301479043
Ni 5.003687483249746 5.32560745698119 3.1439185611094977 -2.911124869497735 1.0003941285691544 1.0414790715349225
Ni 4.843461031945743 7.816768506659769 7.6584074641449975 -0.6417584048005528 0.09198661491164159 -0.6059228831591823
Ni 8.27138413498008 4.055383851372265 10.84416912215739 -0.24897714549849378 -0.23310135480850178 0.1643415716352847
Ni 2.787565128174544 1.0848990957818154 9.598504101449597 2.2604866457090487 0.8320331513618315 -0.22495764265544485
Ni 0.7074606938145765 6.162933658052839 7.2581839619891335 -0.6220634974747868 0.3078651780839537 -0.5868041600518604
Ni 4.741453162565483 4.4692557576062315 12.156343533688398 -1.1830661230825108 -0.6595108436879674 0.19477906218953553
Ni 4.806032147777545 0.3918110563467862 11.290883922509773 1.6748137710481543 1.025762175020298 -0.49585138572137183
Ni 3.484563190711342 6.885819026236111 1.8076897543102832 0.8269125423058146 -1.362684161260892 0.07789337004336908
Ni 3.8779518127788375 8.994241647382527 4.909452305245622 1.8605710893550538 2.718494735330402 0.6150644404491342
P 4.824156975834186 7.53159030783618 3.633114355745662 0.23211842206994215 -0.8690750346064775 -1.3045252935319727
Ni 3.837356654856891 4.878206475894491 9.852132842911068 -0.679912547272771 -0.903068875053419 0.6586927186620463
P 1.5579923920492154 3.3328884641205394 13.233997340877695 -1.1276850752090448 -0.7236452122740312 0.35271678718100546
Ni 1.9194675745518135 3.391237039688131 2.1984005073144917 1.7829019195073488 -0.9320089551265367 -1.1426956896852642
P 0.21560652916170256 4.838233430410964 9.21668212810657 0.5120621911532794 -0.5807137308834064 -0.6936401812715085
P 3.9071446710831825 4.076535674278531 1.65379770756583 0.14043365466943555 0.47143593299148484 -0.1626695832495005
P 7.996540430842476 5.025953537389002 1.4218314783257477 -0.5759373925406855 0.22448635944598114 1.3642342793568312
Ni 3.0598832415173702 2.6292142994460757 5.288244498160942 -0.31915823449926967 -1.3019279651184417 0.16486941911429673
Ni 3.5146010077007057 2.871346031635139 8.123427226603354 -1.0180210976222983 -0.3661896248564597 -0.7568890619288255
Ni 6.488948431565522 3.7946630281128133 3.2367238090312855 3.3936440568865742 -0.6412002183042377 0.4586662920306423
Ni 2.683598068876276 2.414000536794002 11.587510847252336 -0.1573258024390839 0.48577703220450535 -0.17876803147325987
Ni 4.823850562245115 4.64606568376124 6.8408245119959075 0.36646550422566565 -1.6839553283381063 1.924606213359092
Ni 1.1717627056536832 5.767548705026236 1.60392286052513 -0.3009501961316753 -0.039806590473976604 0.3188607578635089
Ni 8.442149356696115 7.20533411755635 0.5659477560686453 0.118716317597002 0.1116208442028013 0.3123435255702814
Ni 5.682681426113476 0.11004890477834045 9.220921777948098 -1.036907650114156 0.8998508823367536 -0.04677093760695171
Ni 4.210559121086712 7.359738710667979 10.285664430725118 1.5464321624472464 -0.627874190619293 0.729229391230028
Ni 6.438594465094635 0.20675767611970472 7.037048988859745 0.6174709930080979 1.5295726676877464 -0.2824503375552749
Ni 0.19775375923111574 1.5873152439974096 2.947721011500458 0.960835649550242 -1.4971356302049637 0.18038011315538613
Ni 6.893600074346493 3.148594618183947 6.509434501310075 -1.781234816217571 -0.0010227848375595288 0.1590409853579777
Ni 8.897479950057596 8.899420569455055 12.028218084206845 0.4212513417172939 -0.9451748030845336 -0.5331305817878045
Ni 2.646354889913576 4.837249192821822 4.290785626914068 -0.6046010790239652 0.5356541195406065 -1.4599896172822855
Ni 9.08962912618677 4.908829264281173 13.219891173468037 0.7418712483637546 -0.33009930689180567 0.1626479859829457
Ni 7.07801462866666 6.335555931823859 3.111629068503466 0.40739515256049186 -0.3893511505745875 -0.8728195892505743
Ni 8.310038673504568 7.469871182788793 4.721191796119582 0.5139550373006181 1.0453323838427417 0.877791845654185
Ni 3.0027510350457933 8.904889587756982 11.988793797605567 -2.593014359536689 -0.6181235389904322 -0.12290824419116252
Ni 0.9892702002104243 3.081508612697657 7.942015525456097 0.6636991707377021 1.3089493907415972 -0.97186491078121
Ni 1.7214686844494402 0.6402233385858053 7.478558472302008 -1.311781975094386 0.4406006927781832 -0.6206038822101246
Ni 7.332820741130988 5.3868158927134555 8.607092720219777 1.281210272955116 -1.461657749013328 -1.391522939869455
Ni 8.162403035133355 2.5942645797712798 4.470471198176218 -0.48090196350039116 1.41908516575844 0.5233950996675953
Ni 2.131357214025466 8.625969654358688 1.8412838259849404 -0.7783855412397046 1.6509061111926213 -0.8335501022269903
Ni 5.587544649336656 5.318327812925654 0.9313506036675343 0.9539402079819895 0.15430707021741813 -1.0593909188183366
Ni 2.6626876627371585 7.9835689222384145 6.365911304714624 -1.3427007761604295 -1.1103324428632102 2.563187505983244
P 7.160746297716188 1.4328920803652314 2.3189696119843153 0.2816694935251923 -0.24276638870209158 0.8556245655285265
Ni 8.427831485352192 1.8661516100532285 12.030542184853656 1.4857389583322476 0.11647123031656716 0.6113466252779148
P 9.220133459350757 8.399047178499941 7.257477353682213 0.09938496425824174 0.4025424524538809 0.23292857667606337
Ni 6.231598157785864 8.134240840719526 12.342756276019728 0.2680151359665513 0.12434909040274714 0.501364088009485
P 3.8891498366703896 0.6453692298301654 7.448959848123648 0.8839354966580777 -0.21135830670445535 -0.16799793744094937
P 6.145356660352417 6.013617387571866 12.472798203222023 0.008406221785824234 0.09885583122764911 0.37907753656272136
P 1.2151063006170053 9.258277308560125 10.388662108850685 -1.4260207165360086 -1.3677178670300576 1.73428055895522
Ni 1.0922901629606512 4.666920378338707 11.333351917429168 1.959595327839767 0.13167236353703776 -0.6444578060095869
