# total energy = -381165.87817136437 ev
CRYSTAL
PRIMVEC
9.23488592916767 0.00000000000000 0.00000000000000
0.00000000000000 9.23488592916767 0.00000000000000
0.00000000000000 0.00000000000000 13.51618903391193
PRIMCOORD
 96 1
Ni 3.740922940974607 3.1638995727986727 12.91524541628948 1.5095581722390325 1.4676088243904402 0.44950133770192263
Ni 0.24697409133924275 5.433862202117833 11.312766478801768 0.7794327515572964 0.2963057553811284 -0.4068009706199187
Ni 5.914325604580732 5.351209974389096 0.8495771696364979 0.010686276069252564 0.34192663854403693 -1.0326313913363054
Ni 7.787326668657466 0.03007340554174621 3.5581774802335047 1.1140520578066426 -1.1362339932203205 1.726402955979356
Ni 3.591890354261049 4.986127234858358 0.8819906952348321 -0.9178768866005288 -0.7403077605313766 -2.0829573717388965
Ni 5.688975921783345 2.191401455990852 11.850291317009145 -1.2541339855636142 -0.44738789090334563 -0.46007114279796896
Ni 4.538937125859888 6.44885002839827 2.4846136969407104 -1.5054896585966135 0.5316555399041747 -0.6639578237157275
Ni 7.901349803380002 3.767482472477159 8.142044172389017 -0.8272925513530526 0.08948570286665879 0.1830779717025234
Ni 7.526681252409885 5.0735077241063244 10.07780552022491 -0.6752909893403596 1.067163363674904 -1.0888310784563247
Ni 1.0172688430680346 5.41642673776567 0.1269842969144116 0.2351286696511757 0.410894423963002 1.7125051149513408
Ni 7.217986725450281 0.5440963829282458 11.37749564020917 -0.6308281310412943 -1.0624932118927444 2.2017204834134336
Ni 4.758801286504104 2.576570072092541 9.473266809868221 0.810159748327508 -0.3300049474057865 -0.5051094139845301
Ni 4.426299224004313 0.4244778309117605 13.131544911022717 0.20179123184131054 0.47963492386250944 -0.9001753555557078
Ni 2.642054647156727 1.9607786534132294 11.563343099083689 -1.0169196370280034 -2.323614170297153 -0.3460779417082491
Ni 6.077358278136386 0.7176365095240961 2.340571642502528 -0.05106262300377012 0.7863914422633166 -2.7266744429277168
Ni 2.007054666055542 -0.08283046102428507 0.0940111372378248 1.630622935463553 2.033498088666504 1.5984887739331697
Ni 7.565827933230233 4.151690660457755 1.9781079165789246 0.20084198055416377 0.5510223744665607 0.038493270979191765
Ni 6.725240924900318 5.703483927343327 3.6699694665516542 0.5800514147090591 -1.5601731661824225 -0.8180039269622752
Ni 1.9191847278612488 0.47510901568780156 9.94398186690202 -1.2767807764288528 0.19943790111778553 0.27628817460862093
Ni 4.587457215746678 8.177149667192147 8.145463850593258 -0.22064281733017485 1.4345146129396327 3.449604117191962
Ni 6.359881138796187 7.541309311485004 11.206028745470874 0.9715337526940364 2.502806433792025 -0.5159869801289823
Ni 8.118554316919653 2.058049705331305 2.557262696392824 -0.5137848302713409 0.41251524739587664 -0.35238022977719313
Ni 7.894626806532346 7.948826351173682 12.814711679225422 0.3098539263792083 -0.15454284037730803 0.5495069662632988
Ni 7.376946814377067 0.4087803720633465 8.49808780571854 -1.009550598257442 -1.6196497242815011 -3.2874312710732223
P 1.9337850822790288 2.3371279535952603 8.766397253674732 -0.28580511296012073 -0.044785274635490605 0.27223868712959565
Ni 0.8918480123161341 4.186339951903365 8.74705570889763 0.9501375464064477 -0.3959156911659827 1.2236368454160216
P 5.63001117607966 5.878004798808987 12.029881217279307 0.22706234770327346 -1.3537495777754236 2.6687071223843137
Ni 2.6918860908242426 8.475852047738066 6.54242989647018 1.3541668678185002 0.9046259351278938 -0.23091334601824748
P 1.6509851750458353 7.176180397525367 10.600814041475106 1.3151321225135415 -0.7877101610747401 -1.6494133286971786
P -0.2247512621988595 5.751736205542506 2.1654560443926525 0.6084834447975069 -0.2685571245129504 -0.07271413983527476
P 2.973393114048271 7.148706612330619 4.798571322114585 0.3330082530084846 -0.9335410755003472 -0.037110531699052214
Ni 5.555097782634352 0.42500883684409596 9.838284905198504 -1.412303624060232 -0.5328678150447209 0.34409433561931707
Ni 8.710528965172996 0.9744374428215677 9.99623562110956 4.413690412469018 1.986768545820449 0.6123771234249583
Ni 5.74358180139899 2.690611676586637 7.224511172253672 0.1257688535684092 -1.0301268797468968 0.31127368954487034
Ni 0.7496464706138553 6.3013873722672695 4.131641723429924 -0.33742823645305114 0.3053069304384742 1.1622286175118695
Ni 2.978777052457864 3.862555621579655 10.310580974677794 -1.3392560121449386 -0.039234005799958234 0.10917161133136037
Ni 3.152217442287293 3.6988210967047404 7.148590252769795 0.9632920815105347 -1.8329836666550885 0.3873441474468878
Ni 3.576855960211621 8.559206126786062 11.011612236081326 0.5023053688768316 -0.7952100689962112 0.36069414895952717
Ni -0.0434168920049027 6.248314483691063 8.69270748259524 0.023518394836914338 0.27053687394714054 -0.6562625119539988
Ni 8.511000023015782 2.6647724661749055 0.08582902843696893 2.3357279228415515 3.1808173931667088 0.8484141638230164
Ni 1.0165669917487736 7.710215372396578 12.411808388472306 -1.0586265298484865 -1.2395632868382909 0.9527716415951849
Ni 2.323940536701781 7.768478266781002 2.765006992939701 0.5627921134079791 0.35065810487976384 0.9429577408285567
Ni 0.9569003947258281 3.677977959499851 2.1072688760716227 -0.7933215937242466 0.30341536984271616 1.1008080483125429
Ni 4.923052964982686 6.3523454719999135 10.03310774956236 -1.2124857138952085 1.1560739107643832 -1.4717282458754524
Ni 5.2152724557112204 4.242017078269461 10.83375202991771 -0.13883571405469639 0.13961578675383052 0.5281557542810323
Ni 5.540432784016113 4.804135340796883 8.401244329012066 -0.3442951387762135 -0.11371963571335898 0.4215760720465643
Ni 4.345669436261342 2.7822402132932877 4.655083360823188 -0.03156800461426821 -0.4280187423481145 0.803683653684861
Ni 1.8220799038872086 1.5472774077392761 6.167423348680525 2.1598328420407125 -0.005376948041197191 0.6397835404623691
Ni 9.474715763447064 0.768275082208761 12.420809631641825 0.13313275013264814 0.23638671042799286 -1.3614137791889005
Ni 5.410830396983144 7.328011154630188 4.341331810410594 -0.5191149842350028 1.5299994708125197 2.046198052731676
Ni 7.426353453298713 2.36049221461802 5.397392714685034 9.51308169675781e-06 0.5252095271685148 -0.7603898759932324
Ni 8.490951085987952 0.2668161669256072 0.9253023095418457 -0.29291652719392136 0.6281390142449053 0.46269752467722247
Ni 4.754876460047711 4.1659493241016845 2.5595197024773944 -0.36093634687732035 -1.501799097118904 1.0710205326374653
Ni 4.3047865969144015 5.217608881813496 4.767632607775276 -0.3804348219215642 0.16738421511635043 0.12954374722980916
Ni 4.087591318260531 6.5192290929257215 6.898094899482734 0.36731216849667714 -1.9077847709263789 -2.0712197715869944
Ni 1.1939968522350533 0.6994908824554712 2.3359486586811866 1.2391760787022015 0.4543082721722627 -0.41331563180998493
P 7.051786486072174 1.4349257873428738 13.406045426405651 -3.056708443799226 -2.3539575584757007 -0.5174075146255928
Ni 9.3784882536221 7.963454410248801 2.2103431302136913 -0.9537990544184347 -2.490917395663923 0.36827144708615284
P 7.103317148723162 2.2255890031474754 9.47463172598647 -1.7176470641635968 1.7070212090186343 0.39191839708113146
Ni 8.84327121337108 4.162042967416851 4.38011001928833 -0.9709562829240118 0.8824020907326868 0.01960723270796623
P 6.120254322583311 7.735186503545014 2.0379841455090704 0.9139968348198324 1.1395386321135212 0.8032558221188231
P 8.627008658180964 5.343175623760717 6.419662248402802 0.9851868247010968 0.7069767504794147 -0.17794219313785484
P 4.142326486277091 1.5076782175157208 6.461171213005609 0.5024930594076056 -0.17514200468489838 -3.1021537206162186
Ni 7.27500291025444 3.893584837799605 11.926333213496738 0.5600639158435387 -0.32820208986909283 1.0882646644298934
Ni 6.9989444696404615 7.317640377899531 8.808716117760424 -0.23727991166622361 -0.7244597377555265 0.7181965304546342
Ni 0.5411615362274422 0.257734580249804 7.975524405962931 -0.04807628668193656 0.23924166337828479 -0.7587181447177643
Ni 5.824100770512603 2.991151799402725 0.7309107343439045 0.34100335539881915 -0.6647798053963906 -0.3278634755827515
Ni 2.720126371538709 7.04719674783964 0.5544505368644982 0.38834096414251834 0.6745787937646834 0.2532145806186091
Ni 3.7725708945418 2.000507132037701 1.361580477502967 -0.15318144125340716 1.2962874790032126 1.2218910663695084
Ni 3.5861831948491654 0.9819731096178412 8.28538345201936 -1.2107939280150826 -0.554813980298509 1.178667994014815
Ni 1.61395328306905 2.28127536439935 0.5188565166036192 0.1966837354114161 -0.15610144311367954 -2.040115593983022
Ni 3.231498936706421 5.924659441768269 11.918048597463727 -0.23231665412367733 0.1574222188076321 -0.24356780155746444
Ni 3.1345234011332974 5.469564270542335 8.761598807023576 0.23249431735212214 0.3286047246241502 0.6588852942888265
Ni 0.5681218617728357 2.0509573130524594 4.053654036508538 0.5833537396094147 -0.20190358904945874 1.477693976540584
Ni 8.868177700319059 7.969383206919399 10.361253716439844 -0.3915458442330611 -0.3797902463590298 0.29142220203658203
Ni 0.29400090019544856 2.9196091392670245 11.178063664352642 0.42573303163773135 0.7070888505772467 0.1456560794106395
Ni 6.551181797723647 4.666997286967639 6.327252440359184 -0.0036373396422711554 0.9810380926400459 -2.0190376902668006
Ni 0.4607007468942403 3.2664252747254245 6.617431021330396 -1.0352132931308686 0.9196522333333969 -0.548521462421578
Ni 6.885577011808286 0.21217611823257795 6.226111047810818 0.23154943694034957 -0.5831279967518538 -0.4822101407888534
Ni 3.0465980536243262 0.5598741852829436 4.229175046104144 -0.05988150684698074 -0.0053622927531778615 -0.1447721341437894
Ni 7.993024514515551 5.658075993964311 13.340208078704679 -0.05373914139466874 0.033073642625517236 0.253070341731261
Ni 2.1604553537429196 7.644093590213589 8.586267112586455 -0.21011929209103167 -0.291950049515594 0.5930370283354497
Ni 1.9347732150574617 5.5751928940910815 6.841583862930728 -1.646702357523919 0.39971938118278905 -1.1582845452624568
Ni 7.8649920580651385 7.232891831098793 4.994286256444764 -0.06692067308194927 0.16191830690577277 1.2252327291482317
Ni 5.218846356507983 7.433630543293154 0.10042938285474898 -0.46192413684630773 0.7292623013504924 -0.7414069071328263
Ni 0.5676638114381602 7.45425204323933 6.631799580115104 -1.5992307943055168 -0.9761388555662156 0.8201646820590197
Ni 2.073314971525227 4.032348231526084 4.955710291565604 0.1289667916804166 -0.28113470406764485 -1.21683961998853
Ni 2.3426965897204477 5.444353032363626 2.7374473233072023 0.47327709996528167 -0.5567492496480089 0.333283103936426
P 2.6758635639963817 2.4437077703793206 3.264510882903283 -0.6660015936186336 0.9319086821032466 -0.7775576460217706
Ni 1.1413118288615967 8.677117148421873 4.879317469418382 -1.8432606231010642 0.3445784743445872 -2.715917204411213
P 6.068566666874067 7.568367526819663 6.949767779374731 1.4239466076157992 -0.9067362966026772 -2.664479200345895
Ni 3.9244293563039596 9.167387999582862 1.8778447616682112 0.025743941733323405 -2.3373274061181872 0.3846835698955891
P 9.057548268118552 0.8969041122805455 5.8166103546566505 -1.2994339950519942 -0.4842765363995788 0.7415748001692584
P 1.891101440205038 4.141098246468385 12.294554890704013 -0.014348298301872063 -1.6870807613409653 -0.8654983729988127
P 6.229955530760925 3.405853580228045 3.829961092220038 2.3967453430651884 0.41030101335337726 0.3625803102386465
Ni 5.288505099944615 0.354331485505958 4.343062428005719 0.5618603456223291 1.2305831948268677 1.4983260509686387
