# total energy = -340892.4121606189 ev
CRYSTAL
PRIMVEC
9.04893206046295 0.00000000000000 0.00000000000000
0.00000000000000 9.04893206046295 0.00000000000000
0.00000000000000 0.00000000000000 13.24402675055817
PRIMCOORD
 96 1
Ni 6.483324398567142 1.8620077557839632 11.470717389143697 -0.3357742457893959 0.6985617869428421 0.16603001508130116
Ni 4.49635994286132 0.10834376593775104 5.908464760869564 0.43852889785081894 1.3631541589187748 0.08554471594103978
Ni 2.6920572254872113 1.6058505929634859 4.873775507156406 -0.2847789856884515 -1.2384718535463253 -0.07516337270671572
Ni 3.5348385423039406 4.259911353610963 4.734024708552366 -0.728953511860822 0.13359966246673763 0.5282215745219613
Ni 5.271183781481716 4.587953231050838 2.593683572662206 -0.6637644767579988 0.09122916792032676 0.4925804282795839
Ni 7.274219140153807 6.355698263749422 2.664737595337738 -0.2503480577040914 -1.2389624200294984 -0.27997770764506624
Ni 5.248235690309159 4.588523313757411 11.567636878620347 -0.7709280565203949 -0.3233190507451787 0.015973749720437004
Ni 5.533394679710095 7.8886597106581196 12.59845952375384 -1.14868970248517 -0.10502956413852879 0.9533943627808482
Ni 1.8690659226272575 6.327103639102229 0.3609392691819198 1.108078356721711 0.7780065606337311 0.18270901839887888
Ni 2.8362971991822237 1.9817341730963036 0.18275675211614273 -0.10219389446194659 -0.8107269336848876 0.0816950031776464
Ni 0.6017349652931968 9.069563414996042 4.255808567910003 0.8750070838201962 -0.25181821449171465 0.8574616187372652
Ni 8.75549308833315 2.426706347906751 1.364823244196839 -0.16173832968448273 0.7598998237306912 1.165069172284458
Ni 6.909022348536285 0.5328535911549407 4.6933787164668415 -0.4819149781459378 0.4882774300288559 0.7025210287009062
Ni 0.6219710915901953 7.334512173072871 2.5238348677091444 -0.1429366235969474 0.45534494096689315 0.03778210384478009
Ni 7.907617222884659 3.8368375938784287 3.8181732670438406 -0.9862769724414822 -0.4359253987897008 -0.2368086284567599
Ni 7.493031361227779 3.7592430032614446 12.698981393000125 0.6725813037186803 0.18162092754102271 -0.061723702262042095
Ni 7.920973446295816 8.734173804893661 6.9523196776539695 -0.8642755563353051 0.127266006939226 -0.11697542364649531
Ni 7.0220435073474965 0.6217738248758571 0.5013262076950414 -1.3866902943675024 0.3250224065895306 -0.5006279811744088
Ni 1.8627407192638437 6.443391462311427 9.171236308373695 1.2455526716525065 -0.24803175086608897 -0.36902426609177735
Ni 0.06690237274257865 5.227984180828015 1.4916883638459422 -1.206904106042373 -1.925268529533439 -0.49861917827449614
Ni 6.588083882598958 1.7949551707726683 6.788504149687037 -0.5010676398149887 0.48889115235345487 0.5058971999931481
Ni 3.5289838833967466 4.3397500793268415 0.6070014436301163 0.037515737557270876 0.12778305578496055 -0.11061914241116431
Ni 5.794157748842415 5.553429014826831 4.764339535144315 1.201533071538447 -0.007171835158090874 1.0632671139442913
Ni 5.339955663544583 2.8304334913431797 9.055669685032973 -0.03987446759743455 0.26619968002436734 0.21768733424627673
P 0.20104373849257 5.75662277952705 12.516174871758803 -1.019399980247696 -1.1133480897610828 -0.6217256545193938
P 3.9461939352902373 6.106508778453734 12.68568489253918 0.2818548700631211 0.27904028343246134 -0.92139004196011
P 2.1838420659744777 8.353439997289042 1.4579421822963305 1.0865314837888707 0.0896530816824585 0.2748208460344751
P 6.216824306641683 7.545840927506579 5.909961454197616 0.38653913504708914 0.46730005644624034 -0.14001302219224918
P 4.644780523071206 1.017235673960151 12.498586462921226 0.08394394711282316 0.07405908389894342 0.2376648058094681
P 4.0127126333223595 6.085071858900191 8.34702158992757 0.05457320726018988 0.39052665893992744 0.4605766216794777
P 4.549712445051143 1.1147831593072168 3.789460101389409 0.8761890199434393 -0.9687929567241058 -0.08897431044787903
P 9.151999184152977 5.580575810377963 3.8625410847994255 0.8629794632317008 0.23038344165670643 -1.5192846554981772
Ni 1.8374037100827876 1.3074439673335976 2.468977528152603 -0.4346462749669612 -0.9758354653931839 0.011762025631934582
Ni 1.7802597054476554 6.5953954195340625 4.870027439583979 0.887117236820169 0.13561746422771484 -0.3976694406322958
Ni 6.171760626026804 5.8896511266594445 9.215114578916173 -1.8740786369231854 -1.067165420557433 0.09403321302802516
Ni 8.695589159483653 2.49313455662037 10.33947874726657 -0.6901843615124242 0.35889874762200125 0.3027458545795173
Ni 2.437646506513857 5.207515496982462 7.054496596535689 -0.4875683197769732 -0.5799449710381819 -0.05775726141512634
Ni 0.39159705029099773 9.01339669500075 8.797993206554816 1.5047381251425698 -0.9955411713522274 1.6185271806412835
Ni 1.3903955256060052 1.0130550674452765 11.522051074637702 -0.22712276862756367 -0.03953919574520287 0.19546760361612786
Ni 4.072299849557093 6.786916062147296 1.4969457932510113 0.13802170279383327 0.5251354793974699 1.0461427955591789
Ni 5.438480433531489 8.074461428341912 7.948786243231135 0.7687788713878759 -0.3479203942336266 0.807366758963403
Ni 5.351303024084955 2.892463919177515 4.757519355208685 0.8636001275348353 -0.48941771428088615 -0.03379895082731599
Ni 0.6431039670335661 7.2190839983894595 6.936691267455183 -0.13272240206810693 -0.23470289496766675 0.8863479627543123
Ni 5.05010932744515 4.6763793930927235 7.085011404521531 0.4390785997067018 -0.512465340128969 -0.017612056654808375
Ni 7.926638077634151 7.310369622896064 9.252157286338877 0.7659784258246034 0.13413676591713028 -0.2925023224746382
Ni 4.848969670274967 0.3128604844744958 10.331427007706104 -1.0034923078785039 -0.370043194274595 0.5418119116118862
Ni 8.214575089113154 7.236331262496278 4.812203860166885 -1.0179239099228017 0.4400329932001712 0.8216291824196882
Ni 7.2980811734432525 5.881733311290366 7.1033807361777965 0.13965898128694013 1.352751218417896 -1.0937979355432967
Ni 2.119395573336092 5.424979427210727 2.70186083825391 0.9737988945791293 -0.6301035941704438 -0.007121955756761928
Ni 2.4129700693578786 5.192711444475245 11.332582729768134 0.2943936259600801 -0.789413516919092 0.2875611764192789
Ni 1.440390874079339 3.3341513317262756 3.7903604701085216 -1.877488691045999 0.39243878836097573 0.2185949336622106
Ni 3.7860187926067104 2.751716833176748 2.5800160659953963 -0.06189519484289986 0.09877201326459119 0.026592405776547753
Ni 0.9870484373072925 3.3814681963718978 8.457993165674669 0.053854326816294346 0.5224242511138938 -0.17284446689997326
Ni 3.794334760977207 2.6324157156613754 6.815455488310199 0.7545174763728554 -0.3565395033612053 0.7305293409883741
Ni 3.960626981591589 6.890725408334822 6.171981419963953 0.47625957963237336 -0.8800158498886973 -1.0198602077135661
Ni 0.791244935249276 7.247470497604092 11.005971488453806 -0.7658149036635457 1.4832935821155488 1.6228900855956696
P 0.23163908197188027 5.415903348564798 8.168226460175521 -0.7623937937971386 0.642298850685055 -0.3822682755858771
P 8.60770593335279 1.6958331712836363 8.05242094503395 -0.842037313762395 0.6050394521129645 -1.1186504758106024
P 1.7438015590224858 3.0049964356688057 10.658394776935339 0.8653734173851743 1.2563734164170943 -1.1230912851907755
P 3.9362491591866724 6.082854870596848 3.8251128928798948 -0.8586718369952825 1.5288985244388573 -0.7270292982549157
P 6.803774222184548 3.970834176718814 10.191423743903437 0.857765008910297 -0.06598479153124119 1.08839373380859
P 6.376782274960799 7.896894238641962 10.69027325895103 1.1436431412001982 -0.8429955639106063 -1.8374023645480742
P 2.06633263696548 8.517696208237089 5.960209267869576 0.6788100582372115 1.2256034822240893 -1.4163312571623865
P 7.016731784351324 3.9360319848222636 1.6357699812335729 0.4058689457239526 0.03581958080177057 -0.347901110959917
Ni 5.360207173025727 2.8081731189912515 0.22992973874534403 -0.03166724919629385 0.22423336289491058 0.6836144216043905
Ni 1.6781877541754011 1.3676827066615584 7.353362003010392 0.10577415561403718 -0.32842603295444084 -1.8606945023067956
Ni 6.968301901088106 0.980388423465415 9.317688745906125 -0.33374873071893485 -0.7190735337429487 -1.814181703457237
Ni 2.7798137665721696 1.3666058837713635 9.41447612097776 -0.15079134375467576 0.20595127675627112 -0.026699363668057245
Ni 6.204463465734067 1.9164823255232337 2.464422295859123 0.7645671472993736 0.1655484474591923 0.525639672727398
Ni 4.193501242761045 6.765605827639657 10.538100086702794 -0.01866518050967108 0.862861706706914 -0.24642249739744015
Ni 7.917073356668303 7.294108692360936 0.01819830684429355 -0.13646464271935851 0.4383895440594772 0.7989420252348176
Ni 7.52930852901594 3.7475155875833552 8.11093314816486 0.5673573641811583 -0.4994483590440108 0.18400074062710892
Ni 2.9297455184010692 8.43232858516063 12.569985249900258 0.6878695973363186 -0.1900978546637823 -0.1357123379343663
Ni 9.218599322571754 5.09327273237145 10.325426660996118 -0.42710394384332895 -2.022411748945356 -0.1943311760188395
Ni 8.9450048680756 2.0418190805828083 5.719565593813386 -0.061571235844577826 0.7359420273635132 -0.04193726366373423
Ni 3.789312603800248 2.741799203868735 11.280136025656535 0.27463624082749477 -0.3865190804424311 -0.1541134661493733
Ni 0.9589515039118715 3.5393811060928297 12.65399191362642 -0.044828983389232475 0.4653334196381728 0.2327203173199992
Ni 2.8776055730791956 8.165095529755291 7.9012404406096985 0.49410637800580715 0.9964186888611742 1.2095819099848522
Ni 5.490593232057811 7.740383913357839 3.692964101923357 0.553994055500375 0.2972650339706042 0.33932133971070594
Ni 3.2832420411360537 8.353964835336363 3.781262674026152 -2.0412484220358844 0.12464322460439824 -0.39027726193328266
Ni 3.2515707796597333 3.8973116054344996 8.998865920235415 -0.10569727962951475 0.8974448439984222 0.6845197070274791
Ni 7.260319980831628 5.888583352701101 11.441911924384392 -0.22696078912840265 0.6722776564353325 -0.18806128384972773
Ni 0.2932342561842127 9.116798839255011 0.7784877511266142 0.6804897599324796 0.14708124189294022 -0.7294877870977372
Ni 4.298505047952822 0.26851438415535234 1.4542601719264123 -0.04135439457707071 0.43278916715356425 0.3019812084993509
Ni 6.0211140085817245 5.507487587822466 0.4728836051029359 -0.05818329320895141 1.0980520828339604 -0.27686538726832965
Ni 8.171963669029727 9.111098012189272 11.09889135005259 0.21054069589916644 -0.761124954387044 0.9249654180161941
Ni 0.26528843995069284 5.00113650827091 5.948474613046008 -0.5456027461128862 -2.030668846747825 -0.24589285014621523
Ni 7.710024746999823 8.761447285490698 2.6827096788857716 0.8006057860904857 0.6881938134449568 -0.2931929207837596
P 8.608257918195664 1.7241744258390177 3.5186463836508755 -0.2918986274523683 -0.5697394912600897 -0.16002134699337603
P 1.8521353711352015 3.3562669211685976 1.6247112816192268 -0.34500887701378646 0.7435941445921322 -0.6742828597908194
P 4.5729681999066125 1.0277595817021394 8.199840713381183 0.4501402568375022 -0.34654022605664836 -1.3227860395143733
P 8.53167680794592 1.7098137709924692 12.566978289846379 0.07031478636516277 -0.514886805086268 -0.7934550339783174
P 6.072213326740805 7.949676658125212 1.5883164777170098 0.7122482832909991 -1.0574430510633466 -0.9036671707590501
P 1.9343630148595792 3.341815777003545 5.95181276400561 -0.8549069706362115 -0.15377433764239967 1.1890277399825846
P 6.9046969591118055 3.911319351938883 5.894426247996889 0.41414121303507384 -0.15031877499363144 0.672390527864113
P 2.474140848666428 8.439223871230618 10.269696099516016 -0.18119720974004278 -0.17440461229824158 -0.037351701175580836
