# total energy = -381170.5607982744 ev
CRYSTAL
PRIMVEC
9.26873257305129 0.00000000000000 0.00000000000000

0.00000000000000 9.26873257305129 0.00000000000000

0.00000000000000 0.00000000000000 13.56572701850489

PRIMCOORD
 96 1
Ni 7.853397032990393 7.697858433190308 10.755776409079969 -0.6296122563563221 -1.0939614577043546 0.3352122026383388
Ni 6.417484996697613 0.7570181643234634 9.366401751711944 1.0713033539852066 -0.16532861813890237 -0.492606653531829
Ni 3.0630194862483995 1.8896257600764597 0.7626340893350164 -0.18056754657584387 0.1101630287103522 0.15211263366926062
Ni 2.7344985321149036 4.491989241911284 1.27719796874396 0.2774269161987545 0.12209140471682199 -2.1360781628232757
Ni 9.238868627109758 3.4695924366226754 6.862779003893583 -1.2142194087568636 -1.3376660419499993 0.14708252744452088
Ni 7.997117998874434 5.3940130184409565 12.401068185294323 -3.0881334950777264 1.7881030040923143 0.7458981101349605
Ni 8.945652275004658 0.3979381991929537 11.582078348715134 0.9561274454412955 0.8574289657271169 -1.7395592908556559
Ni 6.329385694445078 1.3424368692000042 3.6215468175715175 0.9774853422917809 -1.2549346270880386 -0.5062324718453798
Ni 9.537525725182478 6.4769809905070845 8.936178703533608 -0.18110927801192678 -1.5090663202042784 -2.2472935440575426
Ni 2.0765853629944924 0.6964822187293799 3.025984411865395 -0.25781865504952367 -0.7767582900489267 -0.8915562464281291
Ni 1.9009614199033773 0.6766536193281333 10.327628630104618 -0.17944063206025226 -0.8379603154795439 -0.03857117540497874
Ni 0.8833064981531585 4.838315431144951 2.3223708303634636 -1.72673077163242 0.036495780933188754 1.313055442490171
Ni 6.387454303452141 0.20021018287597342 5.63213695153934 -0.010706844894542851 -1.0995757185673387 0.7250402928493448
Ni 7.097958260682062 3.388027590770774 3.075839070145873 0.9102137136283163 0.7850734947828415 -0.7469142101043008
Ni 3.978825867980547 0.5074362241293855 9.17667172465469 -0.22554308284526964 -0.1631714625865835 -0.3575016101641585
Ni 4.636386825266598 3.4337873230401876 1.945881405009815 1.431515935322625 1.023696807850837 0.8828420064835828
Ni 9.489884440218981 7.428694441879036 12.698700161554406 -0.5707954433284299 0.6111211395306702 0.22828670702867782
Ni 2.049882144710478 5.9264738934016545 12.255087502430882 -0.9845224516442205 -0.6122043452925198 1.1008558708313427
Ni 5.293929245087681 6.404416083896343 2.147549559505391 0.09093863326310145 -0.4928259686314868 -2.662184490774447
Ni 3.8639121226541993 9.11146989912858 6.415232694704203 0.4152850968315299 -0.992003590512614 1.0764895261718364
Ni 2.482148021528102 5.555696787877384 9.9595496526062 0.13050302581928494 0.10045222918049153 -0.3068387937019683
Ni 5.616573822826848 7.58443695379375 9.62187119077933 1.6814765277803105 -0.4808546552022235 -2.239796207239233
Ni 4.911575492691931 1.8359041866040033 7.299961943293528 1.097401079513523 -0.2051038411543113 0.7131345425506944
Ni 6.1227207662678245 4.690275235923751 0.43490097746258954 0.21206613140475736 0.5770062001248321 0.9140264025061872
P 5.784319343307268 6.704176161134562 11.672738601752771 -0.02327902513259862 -1.5258304270364946 0.5335201039167392
Ni 7.9646125540559565 3.1378366948525525 0.24730739324270787 -0.9472435126881041 -0.368685651805436 -0.19215216608964972
P 9.231268266473558 2.326201597498758 3.495413271574291 0.43303033663009294 0.7506574791968168 0.03728819492749707
Ni 3.281761572851224 7.430937475139963 8.418252127979772 0.9930837109506704 1.016018979590605 0.028668057358653853
P 2.97777495360068 7.7668826839924785 3.502521462515635 -0.5722038936401823 0.28043279290461376 0.24481864324542998
P 4.472784428206155 0.5825917414691737 13.323361752891442 0.7958950108783777 -1.1102403973700363 0.3537038336846231
P 5.43772436083159 7.959709394572359 7.518139564088128 -0.8165790215902905 -0.037150640908368275 -0.20562680353731683
Ni 6.7561088692377655 2.6666421416056116 5.47491051555407 0.607895690614837 0.4156967304476518 0.3311370041277007
Ni 8.85302056256785 3.334027955323823 11.638606494383495 0.011186098523806544 -1.244728118868682 0.5991529114252004
Ni 6.336921173953895 7.313159691476315 0.23372684640836638 0.6838900438632802 -0.8986869439356394 -1.327627940987707
Ni 7.37830961210052 5.012938351127883 5.736945924712535 1.5506729400014712 -0.9871568039432741 1.6031136742996908
Ni 3.746560700684777 6.457850326661821 5.628867869592525 -0.6699577500529043 1.1460509793107423 -0.3793343897685338
Ni 5.983031699013962 4.303778360108023 11.686235729994763 0.2446119265512626 -0.02496695435798281 0.2837510586445694
Ni 0.4412509860868097 4.587698173532503 13.517650142583918 2.5877718801908274 0.04373780720758274 0.0013272034518557788
Ni 4.826071435534683 5.164852876527049 9.912693429284028 0.0661457425891377 0.6311857714910291 -1.1214002706415978
Ni 6.4086333571761855 -0.2163739254533745 1.7358157788844863 -0.040874369616858634 0.054963243609756955 0.40140011131932163
Ni 0.712914754548793 2.551756202476713 1.0304226007457862 1.490634338751336 -0.28078760514087125 1.5747654621743008
Ni 5.200528227854772 4.352133337472724 6.360725132717174 -0.6274957242339515 1.268383810614409 -1.0273434034644888
Ni 2.7722037358564413 8.424499253673428 12.646431925335312 -0.846967918294793 1.1450580192698536 1.5290157667430118
Ni 7.441253574393732 4.811074626376913 9.865648123819197 0.22315452800843508 -0.7096620106210617 1.0986421510094757
Ni 4.256693199093517 1.712620775845352 5.107197652988734 -0.9463554536561959 0.015907929479508087 -1.0622834098747835
Ni 5.764966229882408 8.866552911993281 11.547391044270116 0.38977923925094166 1.7180851801422798 1.6673218335464834
Ni 0.7278383407199459 4.5693090082858925 5.023564952919839 -0.7052510260375596 -0.06641390864885982 -1.9818173724627612
Ni 8.53161799498143 1.009902553901295 1.9276488813421702 -1.060171505738103 0.42576619886851186 -0.4179811556064544
Ni 5.712634966282428 5.411234323394688 4.0759992593341074 -0.25046992799393636 -0.7322622645190808 -0.07669446463926147
Ni 4.455915335086784 1.148127161422817 2.5204853528249926 -0.824246051217245 -0.06454703064345012 0.07084751894018121
Ni 5.931349246687803 2.095132096693317 0.4461087287812393 -0.6174488815209107 -0.7921483993517519 0.8851950800967916
Ni -0.23558337352474543 9.262225832967347 6.605993404813584 1.1195560183440072 0.8459564463111431 -1.0880366075794874
Ni 1.8596043355634704 7.059214958902408 0.9819267386473413 -0.4889096642962161 -0.8545130776319024 0.5874132543907691
Ni 3.839025575936886 7.820261314363058 10.807285536108694 -1.5268917784214737 -1.0864540935837161 -0.27672654769762023
Ni 0.22148377767134642 1.6197110014340506 8.175399287568474 -0.2815851613415022 -0.03631657504284713 1.7437967259757712
Ni 3.72230442777632 8.466866629854001 1.4129246528612676 0.3272505245891009 -0.16367437036493102 -0.20828223888229289
P 8.559183205386379 6.005601062610482 1.0322513216647158 -0.4668976788014991 0.4469011810749143 0.20711367249548848
Ni 5.188135932524773 2.7643994631056117 9.91268045305855 0.5313526639517752 0.21712297710237444 -0.7449426882002267
P 1.6794387135556015 7.485428353408523 10.881788534681666 -1.4326479920445392 1.2596160917241082 -1.3785897767475548
Ni 2.893068007436985 4.286603398816708 5.3962699548006094 1.0743552534376528 -0.7503016385192949 -0.21402016980733463
P 7.28288801118628 7.9171381062771555 3.718189110553792 0.36654829374745906 0.18592572556396367 0.3457161874934562
P 7.90045438780745 2.243181560647 10.049382207833089 0.41379925631462283 0.26381601028353924 -0.5374001556974357
P 4.246951761253705 3.673402595195112 8.091983475839685 -1.0007954777726313 0.8442181234637977 1.7657639742754816
Ni 9.026911252684615 0.19662411027823473 4.076935401314907 -0.31098726865270315 -0.4906572431149421 1.00223272443979
Ni 1.0540773329160857 0.1505269961464344 0.45680021170057655 -0.4687743269989217 -0.2916505159973041 0.857225334356743
Ni 4.123112226546063 3.752205358767028 13.027072815968172 0.17288637588150227 -0.39090666798716545 0.1175138126484686
Ni 6.029764648194107 6.915901817247626 5.73013618695715 0.48506766484230646 1.229241850307625 0.7573014668758957
Ni 2.7471132770244986 2.9532220812527616 9.825072393627622 -0.32923181668518786 0.45350608798594155 -0.08925327514087854
Ni 3.460082717094942 5.541246833936121 3.2468212320094163 -1.1033845507904674 -0.012188057425759654 0.5618770577928774
Ni 0.07828371455285832 8.60467414441378 9.249750119044998 1.6656377609758408 2.054809962770403 0.5706594319711977
Ni 2.748707499011604 5.362267609686097 7.625702277682073 -0.32482546008737606 -1.6840352896464224 -0.3694430987967508
Ni 3.9081610515288556 6.207418443699036 13.15715391512998 3.393908109181239 0.690659758486946 1.3916029011777709
Ni 1.8328733110820066 8.713479795033718 5.3511497650725355 0.21356277055494186 1.8157138238310473 -2.967609949068657
Ni 1.667120568085468 1.9972820878684856 4.993258978319616 -1.3318098402795386 -0.1675369386441308 0.5761394812491626
Ni 8.887389022615448 7.8842433746943845 2.15634002539243 -0.3428697191835966 -0.49091332498980617 -0.7136330794536677
Ni 7.689711217337601 0.2959626775398633 13.29808870002958 -0.7121310409868445 -0.44633425282785066 1.7149561475949948
Ni 5.1079428590803815 8.093262560922364 3.5517375051280227 -0.09996063425605364 1.2856042882577536 1.5961868652728701
Ni 8.114701139155937 5.58474499547964 3.70840874403755 0.35286411139214713 1.1402863089128232 -2.087266026416579
Ni 1.543790813664401 1.8177838145994047 12.485094806493754 -0.13667521606826782 0.7272406429347733 -1.1426648364473286
Ni 0.35553189433595195 3.675784659443287 9.520522235442101 0.3853962796918975 -0.7023364234939259 -1.9660724509236782
Ni 1.5173007762274995 7.318461406456689 6.836529026627995 -1.023794766881282 -1.625044927155143 1.7240359984090758
Ni 6.62304694570937 1.8671768900022205 11.797786779176217 0.16635448830025543 0.2833060006873508 -0.5137652898873152
Ni 0.27099920034294006 5.484336816489454 10.83246312102598 0.026723789148089462 0.6682893612115458 1.4870612766880968
Ni 2.765140961704265 3.0396993553207428 3.2868260082800287 -0.1761665892946708 0.41152408712720095 -0.3805420369233898
Ni 6.810368029194246 5.939950630432184 8.102279183881992 -0.41472253945984067 1.1782890134088415 -1.364453851566805
Ni 2.3023438800870775 2.6742425022418113 7.187407090384147 0.7744286134744857 -0.05904769809177572 0.7030270218030473
Ni 1.102311816758505 6.754375616263413 3.763919182879259 0.06671035684335608 0.30075582073268203 0.3436107111146792
Ni 7.597904422091797 8.231681811826032 7.888253028366603 -1.8613305932288975 -0.6317105336462475 0.20781944031326147
P 5.059087370161589 3.406639205596981 4.20035598931431 -0.6866786623520109 0.15445310887697916 -1.1175729264757075
Ni 6.849018643649067 3.572308530001171 7.853375714905682 0.48532580359969973 -1.1986632061898195 0.7185870810248334
P 7.3367393469135 1.4788726113522743 7.121884566714118 0.867470409123519 -0.8677290621015443 1.3076188448556318
Ni 3.916743897808271 1.6880679034974333 11.610186706843596 -0.11408884612731963 -0.3100591004114789 -0.2520200460898756
P 2.2949567002979903 3.823658017479789 11.899842011928662 -0.236186935712361 -0.5753763778308929 -0.9229303898640364
P 2.0345145862533816 0.48373422142342176 7.652331346106223 0.17835074143018315 -0.7817719412134343 0.13443321411162654
P 0.3732657601960021 5.448355596989786 6.913419650688633 -0.059671961939335945 2.035734948416823 0.5016469093572264
Ni 8.461286852899132 7.204993583397715 5.554201741327848 0.7317177048695205 0.06535487125672616 -0.008425505059533876
