# total energy = -340890.05573573 ev
CRYSTAL
PRIMVEC
9.09281744688983 0.00000000000000 0.00000000000000
0.00000000000000 9.09281744688983 0.00000000000000
0.00000000000000 0.00000000000000 13.30825744959586
PRIMCOORD
 96 1
Ni 6.63995729132592 2.0778633936995203 11.420295177814841 -0.8879888407918449 0.08980323410707759 -0.3426007817929261
Ni 4.671644163765426 0.3839751376680983 6.025113696874696 -0.8440134636521593 -0.5630852191683657 -0.19235734012192035
Ni 2.600345784354781 1.5277297447998395 5.09128678765173 0.3016199685051902 -0.09105741822915285 -0.43533404506260515
Ni 3.5802514559188934 4.297238307312857 4.807754550039918 -1.3783066982894971 0.8164658930511939 0.30607234784958903
Ni 5.156700517283548 4.059297457020192 3.1637849532114037 1.36611118466457 0.45120726464943584 -1.639318406355022
Ni 7.307788370911486 6.279108825877111 2.765881437582502 0.024402340103764426 -0.4708816031499117 -0.7791663852697871
Ni 5.325072220312794 4.4073886994118086 11.644219449816232 -0.6756943954263654 -0.1868955456764007 -0.4134020208762042
Ni 5.809437519695246 7.928782347170183 12.452749151424443 -0.1335405270940281 -0.243775032472264 0.5015965157352651
Ni 1.822937160177464 6.770766564954408 0.11773743908321425 0.7646820756106831 -0.2944525042224735 0.5882123532532967
Ni 2.687264027550577 1.5080165162980625 0.32159931838796013 0.6979406084190755 -0.20715995235239162 -0.3452533889244247
Ni 0.766340846625489 -0.09076359574810296 4.4008546007026865 -0.47623772525550234 0.7333619253411628 -0.11180904895420743
Ni 8.661026946454362 2.4404394944875074 1.3622868383113798 0.15146522989324882 0.6244345688101246 -1.6208445159205505
Ni 6.812611711432811 0.6826987456018286 4.777558212156361 0.38228961574211584 0.005739216476622374 -1.6329469556110392
Ni 0.6420656717061226 7.573598707070364 2.412613654145654 0.37105698025109 -0.6749595741428699 -0.07325664260230609
Ni 7.757882840855194 3.985318293233081 4.040547157899567 -0.23772316985122927 -0.17238089699999345 -0.1956159562685341
Ni 7.569170504911524 3.784703459084232 12.728629783047213 0.7626897277710027 -0.2184308972805206 0.5350694506817301
Ni 8.295795742934585 8.851867001710493 6.527700093394929 -0.43897292736677307 0.09526451433196496 0.37226617006784274
Ni 6.864095244540311 0.9748500649926233 0.39190589315668223 -0.6207146967563761 -0.7053348440006175 -0.6093792171388989
Ni 1.6714144481139905 6.4178288507955195 9.421035554920884 0.9790100064664238 0.7096671528273842 -1.2381784906756226
Ni -0.10020830536286113 4.831423154186654 1.4158253481907441 0.8456160322525887 0.44847083955487926 0.017483758607060213
Ni 6.663880494364746 1.5878059905153563 6.921305434156308 -0.44178751399743277 1.0274423909361983 1.1148578415373895
Ni 3.7088693605118976 4.6777909084458695 1.0792719820195633 0.39331759142150324 0.8699157853402179 -0.6226648785042115
Ni 5.968634569791699 5.8166208455791955 4.839907662265532 1.5537590351259627 -0.6301678717494761 -0.6568014151766044
Ni 5.145234474321953 2.846752047809418 9.387232096305477 1.4957176668115144 0.01799617946710449 0.39112906841061673
P 0.24749467371831915 5.591200805086782 12.562435809827088 -0.46604998608922316 -0.5865851020625188 -0.6182235549034063
P 4.112435882926273 6.077539245882927 12.725249073472968 -0.4406253753685314 0.37724048335398264 -0.7221367460493047
P 2.328543281414229 8.653970920016457 1.3516664273842232 0.17048676530107412 -0.5075499051052226 -0.1179933233880484
P 6.410600060823696 7.865087160059969 5.768171585696346 -0.41662875534361804 -0.36026143229748275 -0.18671788244795584
P 4.7698193151186015 1.3251963261427457 12.61699998952887 0.39189679981457665 -0.4723211638099156 0.09590240502628
P 4.034137630791218 6.211603748203129 8.30146511469236 -0.870327676066656 1.0220158206039882 0.18405164846970237
P 4.664451745063901 1.0962391796138051 3.784975334329713 0.8656225572815027 -0.043195561550867546 0.4140877340893191
P 0.210708770938435 5.692231101158389 3.553464924625819 -0.21419577615325047 -1.272038376647861 -0.08358219289803025
Ni 1.1868127354745985 1.251471761247724 2.2029423736924834 1.3249789334006343 -1.0009322604608115 1.390371085653199
Ni 1.746366543381586 6.572706812544028 4.782868417619939 0.5927848031153274 -0.18448693623490808 0.5307769939539633
Ni 5.92345235926341 5.525068742866568 9.197256768000692 -0.14893192194843383 0.3480641189003425 0.24975387576351823
Ni 8.880700326239614 2.274731987007626 10.348328365434728 -0.4784974678239566 1.2600207833616943 -0.7118816439801998
Ni 2.3566491805373806 5.189089133484346 7.051447294974819 -0.030134614601851323 1.0478178692687565 0.049720250043262755
Ni 0.48823702110572526 0.1453850602006049 9.548595055548203 -0.21972287661906678 -0.9069059894113219 -0.9095951062077109
Ni 1.6443542230119204 1.1365749183748208 11.547761022421144 -0.7449141489551364 -0.27261252552924664 0.08913988949146584
Ni 4.074746154079472 7.120430864786434 1.5226113977870857 -0.17336665795203043 -0.12293704054656891 -1.2914869722907758
Ni 5.668389733477734 8.184481470186084 7.876013089657633 -0.11131308315439539 -0.6017096164087831 0.5283344459507417
Ni 5.371236455139141 2.7541235151767602 5.131530688955242 -0.5776116949193149 -1.0053627854283393 -0.15181567125413206
Ni 1.029752497508181 7.581382158914239 7.131522283663956 -0.128787585790075 -1.6903182944416564 0.6682461666784362
Ni 4.864075462097116 4.831714124349042 6.9093547440179846 -0.747046621917107 -0.42115492534874566 0.4257456300432216
Ni 7.77525012242272 7.207176344448312 8.853012696724896 1.7895651904601375 1.0058402392853902 1.9417572712170814
Ni 4.891744905976686 0.40026219250775835 10.61694201725186 -1.0714527350788774 0.45593115248766636 -0.4754615092111102
Ni 8.444099597576644 7.219224327734684 4.834064617692082 -1.3809582769797313 -0.33153886755180967 -0.009167782542197115
Ni 6.995932006554733 6.175541633702185 7.107700920181966 0.411834162168452 -1.2828079564595392 -1.9564295285172757
Ni 2.27019467103789 5.546255007815433 2.616337322623266 -0.7386725389207989 -0.08369455010617845 0.29571543009529716
Ni 2.54565248664344 5.291374238381251 11.304486325339205 -0.6497517074186745 -0.20620067376291584 1.7594529444557891
Ni 1.2369232531283312 3.422154636748969 3.7022770677702983 -0.8993623727361091 0.41266539982049577 0.4116307879083943
Ni 3.2586112198518475 2.5089811533649957 2.838185704372368 0.499698527381604 0.31265874281785505 -0.28544515851754065
Ni 1.3890369983341553 3.184222879273878 8.192749569206686 -0.9392435252017631 -0.10088597428380044 0.048197642751149246
Ni 3.609066594812865 2.723762597295103 7.155450942393327 0.6199307674025001 -0.5297200134443586 0.18771675602611543
Ni 4.097714611272963 6.797872254144352 5.6258526235819035 -1.204140941474939 1.620685621745183 0.4306525804265357
Ni 0.21039688729562556 7.30616075656563 11.242416934011333 1.4003893891211496 -1.137740402562518 0.005044247292126797
P 0.2864264814458137 5.5674412727643 7.902908734761602 -0.7052427985074434 0.5110512333902617 1.7078406195961364
P 8.757383534292615 1.3245780145476715 7.918147387734908 -0.5285776723097994 1.1465248336233675 0.6320643174412405
P 1.7229434453093642 3.3392190476508565 10.420525336977214 0.4700624496827259 0.12043535717063776 -1.3105869263450203
P 4.27083276507616 6.076084395070987 3.4169753678584653 -0.5555590859946498 -0.318257062841239 0.8137958024181984
P 7.052571167227042 4.018898068536154 10.187923789164365 0.009076765490287594 -1.2647924937187252 1.043005792592094
P 6.303859475315227 7.932501309558203 10.282226309512511 1.302154736417267 -1.0840465125834877 -0.5445861319229137
P 2.3602044722090576 8.453501570948802 5.733463391732263 1.5095715419754712 0.4029515149668415 0.4873140376743221
P 6.917479176520907 3.9476285643862794 1.530715826091345 -0.41181796421853595 -0.2632467680436305 1.0720626007487344
Ni 4.919523463667151 2.7804926861431594 0.9132980549847456 0.961965135168995 -0.30732036132407714 -0.43106601381487053
Ni 1.7259077038386903 0.7277400174577106 7.469459576669994 -0.14347989769492708 1.1447178623216157 -1.3608802752829339
Ni 6.975782322809374 0.8471814505544086 9.243530116637933 -0.0026055559436471256 -0.05110247510277006 -0.0962801000806729
Ni 2.87580359996033 1.5695112415552201 9.417096546347558 -0.01367981147993773 -0.1827244450178466 0.05491644953222155
Ni 6.75288099278513 2.0477752603451016 2.5330007402701122 -1.734945189122412 0.06280793646515635 2.0922166855536353
Ni 4.324825915834256 6.884745033252274 10.582141076548515 -0.24623866352140814 -0.06899041112678442 -0.3140250270377624
Ni 7.993114031510623 6.970153868730684 0.39928198677321425 0.6730518155971957 0.3631500666991875 0.24455099140634015
Ni 7.999142569562596 3.5588833346185353 8.133780828671759 -0.6983152181496747 0.4943845713678582 -0.5018927068194452
Ni 3.3741263743198244 8.383286833637582 12.287567208800374 -0.28802268943672976 0.4623859069740746 1.338774701633146
Ni 9.095272635365506 4.939973210392472 10.17059651599417 -0.23024563052726155 -0.7215960430544863 -0.1478569437167002
Ni 8.872653182686076 2.299282594459101 5.873346388018465 0.6562877087649794 0.5078347833354931 0.16818228553761358
Ni 3.4671822693784886 2.8032338228972846 11.515009602799118 1.1027492311993137 0.10974599577759164 0.7027380298077187
Ni 0.9939813531696244 3.512710006974613 12.416804334270212 -0.22675870041992557 -0.3778421214937235 1.3450553924355353
Ni 3.159808664086022 8.260233733400245 8.552432335442427 0.6576264821810609 -0.2868906327148156 0.08133042074937605
Ni 5.559321386670163 7.9587431810785585 3.304786366059284 0.3944745878440819 0.2422423978778215 1.5694535630430841
Ni 3.1451146708854356 8.435161357900792 3.5525865584481107 -0.6048679595321066 -0.053602872927120584 0.17702842307433383
Ni 3.4477781966742493 4.3483308492646495 9.316645462755455 -0.426234139643866 0.26401424233727433 -0.5622233853887026
Ni 7.284483479467735 5.876415213949899 11.695855742258985 -0.16194247527548883 0.8431786264556898 -1.753953869014431
Ni 0.351805658370849 8.777396825774353 0.2910010779676052 0.09361540876431619 1.6416897348006758 -0.7063226618351836
Ni 4.450734160790024 0.4533878884692353 1.7130259091807256 0.5789661520646803 0.1056294025060568 -0.8857568661375327
Ni 6.01399863667148 5.532934030068615 0.46685344201549056 -0.5020189479846645 0.7899069116157428 0.2814815458841023
Ni 7.977710798539216 9.022439166592797 11.3317020376218 -1.0839225854111139 0.5797943043929304 0.6815071454534005
Ni 9.132553187421449 4.943610337422321 5.938344575887124 -0.2428818312340333 -0.7760661490779086 -0.9185584860485858
Ni 7.877398835056004 9.043825473528305 2.482655627922955 0.24402442947890873 -0.40505801978688305 0.028455170016899383
P 8.80545726080963 1.7367008782997646 3.7796251204688067 -1.5150621327763971 0.018800420535954716 -0.7586253278936418
P 2.022160793237396 3.3829373145496313 1.1530310996213688 -1.1051418998012066 0.03694598109672992 1.0020180373258227
P 4.724582547684865 1.0361447482631392 8.335906889101508 0.10571450602069536 -0.20036504091774524 -0.9612812217280929
P 8.689060103036915 1.618830684079961 12.475613041215825 -0.348528974351903 0.35411469596979656 0.9391838756084213
P 6.289929278790909 7.883872921169134 1.2965212166394229 0.11899116852494344 0.6149389706148635 0.4513067663417775
P 1.884304585988577 3.398213248074993 5.958066897206475 -0.5476907389901664 -0.1899631288581309 -0.5472305115242962
P 6.626027094801601 4.0484770041063936 6.167898211248959 3.0768345251251397 -0.02614940470185819 0.08853002382160882
P 2.105369166862747 8.310908005743604 10.558931659689298 0.9984642585362933 -0.4123987764226704 -0.30580341045891846
