# total energy = -381172.6202436981 ev
CRYSTAL
PRIMVEC
9.23565454942485 0.00000000000000 0.00000000000000
0.00000000000000 9.23565454942485 0.00000000000000
0.00000000000000 0.00000000000000 13.51731398734669
PRIMCOORD
 96 1
Ni 0.7713387892550683 5.694215182432957 9.564838343087974 1.5127021171846526 1.7837490979989925 -1.2378447614852877
Ni 4.901916074894723 1.8322245882019454 7.3502558042419395 -1.338542788127998 1.7175943565487903 0.623363704343449
Ni 5.261644824456012 7.398027228044398 4.857419614239746 0.2776043223168832 -0.11654939185267024 -0.27678902550443946
Ni 4.585548724028948 1.6994620522598782 4.036175041387005 -1.4504593091943472 -0.7562925659954072 0.00471925985254026
Ni 5.799473938755166 3.1632394328880613 2.4770478383365964 -0.03599055916199608 1.9311422147053972 -0.571227645769842
Ni 6.230917546861857 5.481536526594772 5.862027027863731 0.5781572830101398 -0.9593780911681089 1.3545077960976866
Ni 7.1134767075313485 3.2236036718388332 7.260081642699154 0.37210444767899786 -0.4244533935943593 -0.7814873200934799
Ni 7.978349589499689 8.447428490403869 11.963795950457547 -0.7360261024368873 -0.10128912325949008 -1.0701435293491506
Ni 0.3057454244249422 0.7014729087754473 10.947740019299385 0.8758786877918723 0.6357227401294342 -0.45310113923803896
Ni -0.055681762030937304 8.508919479224899 9.040569016981525 0.3862167187106639 -0.6892921887154579 -1.0131084908120294
Ni 5.990116322540637 2.753619676776578 13.232896813338554 0.5724900574220334 0.2994018778079489 1.9430240537446473
Ni 1.1955924401978701 5.587460250053525 1.0422380885941378 0.28505949304334777 0.6620004428790406 -0.21500953030379746
Ni 5.195064989909482 5.270233983303046 13.282613266015405 2.5712270884582686 0.048841704093051365 0.49540709909510167
Ni 8.079018225448804 6.097351508963132 10.65329257123743 -1.012481912971624 1.200899551719506 -1.0776030709509894
Ni 3.610891614948027 4.166305415746916 1.333971177747337 1.9633288267402702 0.7152356480540973 -1.0250198975376348
Ni 5.394924557059836 0.9472087433891077 1.691989484062958 -0.8640539272428023 0.09737153337263876 -0.6062357864139108
Ni 1.6066621940932073 8.983650600789709 6.911267589831871 -1.0361651155211768 0.3023360207356084 1.1492304054799884
Ni 8.208871530168489 0.38094397191346396 6.92829906061662 0.6757144500310234 -0.6830618915350302 -1.3967618196708913
Ni 8.987169385220591 6.242619121334108 4.9109485451661214 -0.02533462211004669 0.31933024130075977 -1.3299337063027483
Ni 4.224961058582956 3.6808609347599988 12.207175769563811 -1.1111310275051058 0.17796584728693868 -1.3132693582731898
Ni 3.3042586441088906 6.097804056042168 5.4359881248724005 -1.3918777521057124 1.4162361263454188 1.726585247193491
Ni 6.917588471890914 5.560002648707036 8.45809474798714 0.23163016957961396 0.8252562376493142 0.4189769438608203
Ni 7.255724260823851 1.8357895509061986 3.7764398014181455 0.7975960527298843 -1.3935492262708644 -0.4290996341171191
Ni 8.335132165219898 3.794163946303462 4.803634855678896 -1.0654589793892875 -0.17402254636847447 0.4089596688341344
P 1.7630033564185859 7.733327670992347 1.676403393234726 0.006943006976736429 0.2184344968249464 0.28562924950388874
Ni -0.14218105657884786 8.132815913926198 0.6376831655060029 1.8739804207824244 0.33108815316763623 -0.6693944213502665
P 3.5903515189525375 2.184795705390705 2.034423546681282 -0.04171229213712171 -1.6395588045006022 -0.16361240677874403
Ni 5.9087779118246875 3.0887169353216932 5.084064427076305 0.36657914698539446 2.237132801474457 1.8452676262287642
P 6.181977812743107 2.3144642970169054 8.97414526499899 -0.3828868830064825 0.5413187740255516 0.9597370171694246
P -0.04839483049296923 1.0753257450300369 4.883103046323315 0.2333602648968433 -0.5663659468021666 0.5753979750974477
P 4.518368571928594 1.5619708611246046 11.252406719258378 0.7685112195487861 -1.2836762179971053 2.5130165415558072
Ni 8.851275962343959 4.091755211216526 8.716910116750444 -0.06122850779317842 -0.9183103745935217 -0.3200272673677843
Ni 8.958021659068718 4.810593921475929 2.59235036911703 -1.336511616630582 -0.5459716994165307 -0.8382073984933435
Ni 0.39424331464435625 2.492555426100097 3.257699861765159 0.10697614634193833 0.823872212817594 -0.6692586671033506
Ni 3.253841205242265 6.9353486358294605 12.084289842730367 -0.35591498240332897 0.05854761852690562 -1.9049413879403125
Ni 3.5159029066235634 8.663247268831295 0.841998936036673 -0.06358543806112919 0.8912911656922005 0.028077732072822614
Ni 6.982589009488151 1.5428899985676439 11.698680941640948 0.740716308823705 -0.3581155895990736 -1.346826625403345
Ni 5.361205181844219 -0.027888906419774654 12.767805868122705 -0.2636864266842104 0.7495794156412897 1.2721962423819637
Ni 4.426233680898467 6.970878199361225 9.688804841518305 0.3161320460784362 0.3174335384986791 0.048800309332154665
Ni 5.3246874032623115 7.126748343298218 7.333994587057022 -0.8771572973939796 -0.419542072335671 -0.17893515317874345
Ni 3.5155981300193138 6.374707454484955 0.6421384453208517 -0.8285014840594893 1.5299704173467972 2.713507823638772
Ni 3.5428156043442716 3.7585789688436506 5.806308323214097 1.1584598944980564 -0.5623817653434379 0.48329154677849023
Ni 2.657476511617836 6.217562790202918 3.0257020634794163 -0.11545641589880762 -0.849499426467395 0.6238020774324482
Ni 2.705566565506555 1.8137255718894612 6.811496659517091 -0.8481948487233586 0.2517791337236631 0.037242429291226176
Ni 5.441490727927308 7.8343103192003865 2.1618783518820686 0.3122391387819332 -1.1496446101992717 -0.31172877480441796
Ni 8.540994907908502 5.097638068751022 6.721903420653313 -0.19032051219754964 -1.7158046116382193 1.0326794709654215
Ni 1.685885639888759 -0.1906211417797208 12.845855462209164 0.24137747877436497 0.20231779376874187 -0.11723253396262391
Ni 7.446689892522921 3.648536143400191 10.490206610303462 0.13567942781390183 -0.5079980483862347 0.5678494733262285
Ni 2.0102880103211147 1.0803499411728184 9.092056868224894 -0.3659816226107116 0.398035822832779 0.04217689047836608
Ni 7.847304885327029 7.152534291148671 6.801790910019942 -0.6762962906764224 1.9519642936570705 0.7620235549419134
Ni 8.870680072814517 1.2341697697721319 13.073757247646883 -0.05138221112671797 0.31736643270616954 1.9527680205052886
Ni 8.108498435168949 1.347389660423527 8.953450010004973 -0.0377147409419544 1.1610420534029358 1.7130386188573077
Ni 3.2723863998281204 8.489099764294 3.5461727648183548 0.4282210881669077 0.08305074587459246 -0.7663584348718414
Ni 8.888717306393291 6.109902763665411 12.939733121276317 -0.40792505692203296 -0.129533462817164 -0.6436674488978076
Ni 4.105230031386228 2.8005829807950415 9.724206953015566 0.6348837891679066 1.2627764917299606 -2.5886583965608385
Ni 1.6538286825145039 3.2559007562346185 0.9394036916239152 -1.5137143604992511 -1.4953338011095343 -0.44832582933658277
P 5.7501463071401 9.191286589175764 3.7878218222386675 0.4973128007582468 0.2993879938508779 0.11117424358368594
Ni 8.732052896154313 3.741456065077627 -0.22304383107907536 -1.116778198488554 -0.43365434336733705 0.7407733873138855
P 0.6015874563427067 2.6781459067787643 9.952298069374109 0.5131536244452453 -1.552983333302203 -0.40403420650805905
Ni 6.091329862115533 0.8067252001393834 5.967353204465061 0.9382569929187776 -1.5007439163815124 -2.151281610036592
P 5.167561210289622 5.58943668015381 2.0249884018660875 0.6616582290482734 -0.3311801986608103 0.5400540483805151
P 1.1082416182889954 4.740523009462541 4.1032886967737054 1.3324400176643698 0.43207979979136557 -0.6610110823825778
P 7.073079953986263 5.129214772082216 12.175436518710349 -0.8699623223074373 -1.553631508409163 1.0955041196011264
Ni 5.4069678507550325 4.895210989601232 10.35141042116272 0.1696858666663336 0.18570666757462212 0.5018171163865035
Ni 1.292049617615536 7.975717427917533 4.9070012263583545 0.04566690590949554 0.5921042321085351 -0.8293311790496363
Ni 3.8115177414363415 -0.26479545516487035 8.043045350492676 -0.05965859220289725 0.4978766436815168 1.4546944303216174
Ni 1.1123237776550055 6.567446331881477 6.976515642974376 0.8714936713502992 -0.020742631863990085 0.4989212828959472
Ni 0.7333857899367843 0.23257502670288152 2.7262664383279085 0.40573704813177863 -0.6634122356249027 -0.01796764022201422
Ni 7.607768945696179 9.493975935469004 1.9413835614930812 0.6321648475748468 0.15944490566461572 0.3463430224441777
Ni 0.878973879524956 4.208281466241296 11.368195969040142 -0.8119268675302597 0.9458350623763517 1.3329848344242463
Ni 7.21786731231418 6.2723302224211075 1.2996505614124283 -0.2566768281355966 -1.185167742806546 -0.223474373241699
Ni 0.7607796652660201 7.443411235113569 11.239917343442416 1.4801457805151863 0.2316653936929236 -0.21322698448207797
Ni 2.2511446485703788 1.2661713132183414 4.367173516387696 -0.8411088884108546 -0.01211992319198558 0.9065702033384581
Ni 7.659266956159691 8.540163698987822 4.7510119424760635 0.6288949185743233 0.02978623012349709 -0.6579481271865378
Ni 5.758735465987134 9.15711466688111 10.472039153993782 -0.2890112786022442 -0.6159429863993456 0.2351991178777949
Ni 2.8645675963781123 4.9034861361893425 10.248706246923403 1.178235791573403 0.7055024799267333 1.230337397364649
Ni 3.735129641625779 -0.29220226041065017 5.880612859330153 0.2554105598286634 0.2975735663499585 -1.4826037551373756
Ni 2.551192597626788 2.4295220829484716 11.353421692257777 -3.0499510704707347 -1.2867574280255905 -0.2542427647728073
Ni 5.069561678541359 4.2654039904014125 7.8262549811935225 -1.597247959547533 0.6945251549796232 -0.004746256435733761
Ni 5.755382923340388 7.0745576587341406 11.924798398595607 0.6364542189788199 -0.4045862223567871 -0.7473286719339
Ni 0.23073620785724216 2.377183627909606 7.217299319551714 0.2752350507537582 -1.1864170418326148 0.041613818886044464
Ni 8.733142703405873 7.39909856398661 2.8189822520370442 0.4652747984860955 -0.9237927378643316 0.5959302907228446
Ni 6.116432371520093 9.19439900480098 8.228205449663523 0.7565072531093746 0.18203307537777683 -1.157517328079129
Ni 4.686873091459934 5.054424440530296 4.1271878003742115 0.6694872381743889 -0.7980413677974192 -1.497128688226428
Ni 2.261543995733563 3.9722643110413283 8.198859156936155 -0.3162724283110424 -0.8059683359539798 -0.644656038063322
Ni 3.3660267025701462 8.871160326857577 10.816419169051967 -0.6744314695535417 1.1513703346411266 -0.13482350757150974
Ni 2.957034970976511 3.5303751774980827 3.478113378393013 -1.6582610088957959 0.5704362602167983 1.2858565134778757
Ni 3.4892857498524297 1.7318607288570795 -0.06560177871652857 0.5433728283411029 -0.6961943151519301 0.28186438314481777
P 7.053611193932985 8.11136148811796 0.3265339595311682 -2.4646648897252974 0.8122783373324075 -0.38069501756148627
Ni 1.2462592417407001 3.8797507581695587 5.972624916153112 0.9805395557370726 0.4319939249457786 -0.16546231550328921
P 7.208622421985274 7.930047115553462 9.523907768702719 0.4617922392541337 -1.905003608636816 0.2710562367857203
Ni 6.920359168293183 5.628438849843087 3.68237281143017 0.15383090191194798 0.4278696183647599 -1.0158238328606635
P 7.733281492718976 2.4349157052782227 1.398866428881287 -0.017530552684595614 0.14569593150963941 -0.05938888348127837
P 2.4974780300414623 4.943374928727345 12.829633958339345 -0.36565509250922834 -0.7041536792083228 -0.3420410526347141
P 3.231712576642808 5.8948782515399705 8.203454818702053 0.10948888546146303 0.2819726265879079 -0.7497174838810508
Ni 2.1517597686209817 7.681072336845549 9.004044773441345 -0.21117858659348146 -0.5151045775240289 0.5062890361149279
