# total energy = -340858.9006653216 ev
CRYSTAL
PRIMVEC
9.37571330433872 0.00000000000000 0.00000000000000

0.00000000000000 9.37571330433872 0.00000000000000

0.00000000000000 0.00000000000000 13.72230413252034

PRIMCOORD
 96 1
Ni -0.03883795379763966 7.345899313034005 11.679203879953736 0.22882046804496076 -0.8531236534835436 0.4213816966475711
Ni 8.532602067011132 8.230638476348574 1.4186944604693565 0.047025733930235146 0.7095622518184037 -0.10040363533074322
Ni 1.5835766879897966 6.7261553037693815 6.815292083014486 0.7846052968971714 -0.9259974588251342 0.24129468925257155
Ni 1.2838820198888041 7.170854750123149 9.302130593048721 -1.0517344307143435 -0.9861365902088758 -0.49946969920024953
Ni 5.406926845628091 8.177225039021142 5.930025067054396 0.1082177320585233 -1.3474033238424215 0.8837712031660715
Ni 8.912468457525126 5.788621500189627 5.4580188564007965 -0.6369586694190643 -0.004030718425947897 -0.12031837197679922
Ni 7.408857226260915 1.3153844157849197 14.04793371980281 1.26221136325511 1.3234113318031981 -4.369852589348461
Ni 1.7904986753193417 1.5808202283488866 10.14732768651452 1.7785169030657755 -1.738100446921942 -0.0817363979385431
Ni 7.024874897711685 6.159918488962832 12.871177659815622 -0.23148335958910457 0.678542920618754 -0.16824424912380057
Ni 1.1938564230452022 5.8248867583224175 1.0471480777286404 -0.8221441743828938 -0.2170705265978842 0.09990406998650536
Ni 5.578755538957886 6.753898038726705 8.383366967023736 -0.8746761828433387 -0.47534169580379426 -0.03530433172824887
Ni 0.6733777758490673 3.3945706720677418 9.630436187136795 -0.879703460854601 1.2910144035297315 0.030957367613462808
Ni 3.981593442737889 5.46272171407386 6.733301472267007 -0.017849112366278935 2.1609492150333427 -1.6132286512465055
Ni 4.780197930130548 4.8584382556523 11.491894009212135 0.10972696961419813 -1.8341100669500474 0.2844133748189166
Ni 5.579458717437709 3.0951854024978718 13.29426421241352 0.08298595407492805 0.2729148872610138 -0.12831424569808225
Ni 2.6732970660295954 3.409656194388233 8.229334314661328 -2.3201123277914815 -0.37636219451408737 0.2849368514225544
Ni 0.8448098765162414 2.2882271547649036 3.7249192340325292 -2.332351035949519 -0.44194743661406466 -0.9543125037197436
Ni 7.694057041964468 3.1607778910958553 11.071827373792255 0.34959083995751405 -0.15567875375396414 -1.6827795628624502
Ni 3.9075534366689526 9.00955396630616 0.0020382800201831936 -4.039392556683127 -2.4560203266764216 0.4558298510231117
Ni 7.851409634322954 2.8886946979692856 6.247476398127906 0.31913046658512784 -1.6943392426755919 0.5310410462486274
Ni -0.13367704172846337 3.633041933858724 0.40084923635194236 1.2269983056890867 -0.2548474882363418 -0.8209218719400184
Ni 1.963630592765077 0.7634071229778948 12.661583594262746 4.095957083341733 0.9956077629241047 -1.0918181861091065
Ni 3.0964886266138123 9.214853955275577 5.863403125161951 -0.6757054511699588 -2.3843852788379385 -0.18683229653863306
Ni 2.0574252262605355 5.103256875187826 11.221852846390973 0.0011086596831464777 -0.23387551397036493 1.240660890777844
P 5.912437166917038 6.616665726604252 10.731417734138146 0.838196599860066 1.3990241333425066 1.910262285932594
P 5.162970791694481 0.8276532591798421 1.0848637586724807 2.098972001999598 0.42910940430913186 0.5624406436058312
P 6.868638015207854 6.935758745035322 1.6062096593270654 -0.0740634547743176 -0.6887828531792073 0.0818775515020977
P 7.791161302171632 1.5814390254111315 4.03839151248154 0.26005911434426826 1.5506081482018068 1.1828552926232856
P 4.48505048286575 3.7271740930244985 1.4541384061377123 -1.3025481152009437 0.0011068599109335777 -0.44085883153557626
P 7.861413520162583 7.819775978443937 5.5737526584667645 -0.7704038085858087 -0.5790443136007835 1.0213128809996928
P 2.6581646651437825 5.505268699959744 9.265780015927046 -3.1433559058861413 -0.41501204567580136 -2.152505455141364
P 0.36064992901736337 5.429147285590529 12.822874923679551 0.6009030613470877 0.13471577834905185 -0.8710223881408353
Ni 4.4328090096713595 3.309607960278873 6.92913199104146 1.0899626209576068 -2.305999285428867 -2.0826470395873296
Ni 4.205691736401269 1.4945636681571413 2.9117495763944485 -0.38760074354238405 0.6206288219107892 -0.6033078141338384
Ni 2.3004343331746484 0.44433191840164615 3.6872794963645097 1.4337314549167048 -0.03893704338482972 3.1547914014165928
Ni 1.9718249659832927 4.986838646068163 5.241933984693492 1.088923123949499 -1.3398676775870086 -0.278765689614836
Ni 3.4844087546500573 8.686438766970495 11.37683244577288 -0.00860676783240453 0.6900501499274051 0.13417970333992374
Ni 0.5369677137623547 8.715597234600532 13.3832809825314 -1.6565810500902114 -0.3321271359551119 1.858388479881438
Ni 5.764197767657073 8.783439894333952 10.031676390723517 1.816639163858794 -0.43967740963296537 0.9650944248265958
Ni 1.545014380156248 1.058893033484314 1.7430341279312211 -0.7370144344920855 1.5613864697642337 -3.616351212944946
Ni -0.334447623716508 5.236307619283593 10.565432922761342 -0.29319009257028217 0.21443643140914684 0.48411404267978553
Ni 3.6859865855329397 3.7010533564273027 3.462672101481737 0.5099788262616893 1.0574137404873079 1.2158363755349963
Ni 8.047258904523536 3.822534470601698 2.1446587357535827 -0.23706856698636591 -0.14877842708970507 1.5757795052611119
Ni 6.0637893029143575 8.326308252456895 0.2106207061334193 1.5207653538087615 -0.7986376066205213 -0.2646441626117894
Ni 5.538505602772759 0.04759674494232751 4.040037887695635 0.560098625736216 -0.3054953923001964 0.13582906601788863
Ni 7.083754375755615 0.7542761160245535 2.2244544920727045 -1.2454503417466873 -1.2643980864937838 3.3307052512705093
Ni 5.113120125331491 2.5899938554531112 10.356867372931621 0.007587325428954676 -0.4542064564870758 0.15092529822937878
Ni 2.4488706224089647 1.041229190071135 7.756285524714974 0.16195790189445655 -0.6276502475339448 0.880804921448896
Ni 4.128773386421586 6.3021949347138895 3.6579953941794123 3.7027117399190623 -0.845088698994209 -0.654265536128628
Ni 7.2252338858962055 4.0173336609390775 4.291403567663976 2.486754779645801 0.5950070075776268 -0.25364266929496315
Ni 0.69977790869558 7.923921399162405 4.896296447434717 2.966644499831594 -1.006581745437105 0.8654027279612128
Ni 4.190240561271269 6.551907676468993 12.952880436172027 1.9862970055006697 0.5162104089936981 0.7206982138305652
Ni 4.391321479361743 4.646444007554957 8.843818548896866 2.944918678118728 0.2361367992007159 1.8058068491299804
Ni 5.369152097691945 0.6727552285015965 12.46818138517195 0.7841502116376237 1.9785708405010052 -1.9328915932963355
Ni 9.286278137399568 8.042411660869282 7.354853119010431 -1.0221742005587233 0.26004831571099085 0.36212419653783445
Ni 6.868403622381246 5.000011522923534 6.827820848382337 -0.14243114471543858 0.9184697829895213 -0.06784678444064444
P 2.846560243458231 7.253557915063516 1.4654595796628789 0.6827749564222306 0.17649183384457345 -1.276039527387454
P 1.4199423678782177 8.645982565097954 10.764269295144219 0.6093416790327442 0.9268016998939844 0.7171984282074229
P 0.6092750880570043 2.1548576364249503 7.92085647856168 0.6767202655877184 0.5391899006080069 -2.1798139131483296
P 3.397692784518161 2.8580548676750874 12.02224715740761 0.2777950981714506 -0.3595744335327872 -0.4555693982728735
P 0.4741101206652333 4.375373391439334 3.914561782184532 -1.2461563666747764 0.6163844448121385 -1.4383517272975357
P 2.82513673910626 6.930620854276075 5.008682182365416 -0.6153387771564434 2.7550038860000297 3.614135693350866
P 0.9884251740928842 8.703596321878203 2.6532489787841596 -1.7462030214244184 -3.419606028167975 -0.15779374321443793
P 4.055952223051012 0.2633890944020258 9.4737820854016 -3.0445062453060796 1.57523905937661 -1.739849825512881
Ni 5.9023395239467655 5.118970570283627 2.2669386606810584 0.2211719503607675 -0.03785538028487674 0.663426890912922
Ni 9.311751949795326 0.6821215658528523 11.425025486066097 -0.283654385165705 0.4796868601463674 -0.3721694965889784
Ni 3.9079659680437833 6.708003923276858 10.369656783122661 -0.9736991357764715 1.189444515805029 0.12622702415175036
Ni 6.439305362566507 7.200641390528494 3.802093540978867 0.8403398714553141 -0.8057132825203801 0.25914637272201174
Ni 8.545756192440374 1.230693599674916 9.152995813191113 -0.8278260552590194 -0.5554372157048046 0.0845944362126285
Ni 4.791936322887077 0.6904828267636131 7.3256796502394925 1.154491396768612 0.11989028330044513 0.6326865244062717
Ni 1.0064734217417004 2.951230704108301 12.111607078623647 0.5171509185300964 1.6625976885979366 -1.9829918523868364
Ni 4.814541167085152 8.099078470630035 2.0892210819755643 -0.7126074664026308 -0.5425300207248335 1.192905734880752
Ni 7.023402910760587 8.329992907691173 7.866529846781782 0.47034244281698995 0.9045696279686614 -0.6559424096104187
Ni 2.0910277818830587 7.0698876961334856 12.941408313666525 -0.5300313740371904 0.1374581169808794 -0.3840065984332225
Ni 8.960781506945567 6.433614304736466 2.9705493608773326 -0.5357870455740451 -0.8108007243456166 0.16366125773880846
Ni 1.7957678260614895 3.5008912582171323 1.993384418174697 -0.23941418440040707 0.7048831011751796 0.4942619297470649
Ni 9.435342599409193 0.7812181650861838 5.999747557257213 -0.621594271147852 0.07482475842037435 0.23304607609053413
Ni 0.7389402621652451 4.392174669250596 7.015952969159677 -1.2637985052365717 -0.698575413789597 1.9648105534921194
Ni 5.769260652711806 2.299093606206451 4.706736405557681 -0.11025970218921656 0.520899072718619 0.5528820533831187
Ni 7.822663698067748 7.36528828765102 10.018365690886101 -0.27899708889935176 0.027897754851532598 -1.1283031684090181
Ni 1.7423168858818006 2.429791046323073 5.677548365087933 1.2981443297062933 0.6125887252151321 2.0084218624241674
Ni 6.7531948602468805 5.095381276213797 9.708557441102627 1.491113849490916 -1.8702307239320046 -1.1179303098151263
Ni 3.4373989293455565 1.9676902765219275 0.5882463012250407 0.09662077124954327 0.6189074683443082 -0.885849940071971
Ni 7.418542337856358 8.842244366673368 12.24014435445025 1.0577914355417006 -1.9161969062494744 0.16107498506887097
Ni 2.023672659228983 6.1952930543545115 3.2068885855174885 -2.608623783939172 -0.4553559967104867 -1.3164860654382746
Ni 3.2520035792116904 7.728859688859226 8.023568352752612 1.3270178182075338 1.1806135477769604 0.23942678280589733
Ni 2.6230057411525824 4.117531906457466 13.650824455392225 0.8720189477261497 1.4071495906631186 -0.6754180018365271
Ni 8.519701085834628 8.92773211839384 3.876811411102354 -2.6254686234106526 1.6893245630698195 -1.7185924587960015
P 9.639358115688799 1.5643095976426187 13.449134115952571 -1.8845962486250576 -0.24930033316586742 2.6097427280349637
P 8.638116341836989 5.833849940011906 8.304326893177597 0.17516360195145317 0.11912769410280773 -0.002557733424847208
P 7.2567737846445795 1.0989179525558967 11.05563457975887 -2.2953839718068663 0.30022823036398616 -1.1943476095336012
P 6.1213093025639616 3.5841100873760374 8.255887271630789 0.823899980731736 -1.7783523524634535 0.07572515874745668
P 7.565394131582804 4.05748983999356 12.884337410672702 -1.2576294003113824 0.49016796218334946 1.129722417354048
P 7.02618749754069 0.9925129849889277 7.498991581376063 0.4048063087873931 1.4338240146305112 -0.39132601491277125
P 5.600263424727435 5.035189198340863 4.817530144410058 -1.8686561803560335 0.9606798406986682 0.5652038081732653
P 3.765445753753053 1.7028263824548842 5.230256534071881 0.22197721987088223 0.649784617539139 -0.21609453583786012
