# total energy = -340859.8332944144 ev
CRYSTAL
PRIMVEC
9.35498846798106 0.00000000000000 0.00000000000000
0.00000000000000 9.35498846798106 0.00000000000000
0.00000000000000 0.00000000000000 13.69197123961835
PRIMCOORD
 96 1
Ni 7.90960524530227 3.839427551106961 6.075059283852265 -2.2285959676480394 -1.809079349233665 3.1480530542514944
Ni 4.712229255876955 7.101334250295651 5.05554142550718 -0.22111204365710954 1.6121829835908106 -0.7848143275841838
Ni 9.482964609008208 -0.18987726340914168 9.70742913541201 -0.6226376248107018 -0.09094043303531435 -1.0298389161928327
Ni 1.2985098054502167 1.1188285438635022 4.5448722559664185 0.8208997604528313 0.09575842324924798 -0.9221426038554182
Ni 7.54308615602722 1.2748697498439467 9.78852659407651 -0.07810548605417515 0.45427587627243055 -1.470685663543551
Ni 3.332798801042396 8.57778528949611 7.014889480279926 0.23340525920216576 -1.6036525775222963 1.883501472898982
Ni 7.148558231577983 6.01159972025704 5.418679621985987 -1.1333512723558867 1.1362995563509335 -0.36417542263990826
Ni 3.5352875242706165 -0.20061585455692058 11.669817561404399 1.2170044277011685 0.2146313210287723 1.095763801020416
Ni 6.635072275039576 1.654588727706431 3.7737265322987326 0.797731292756168 -0.9272719546621837 -1.0362579323452994
Ni 4.7443075109912805 3.7000008044683192 13.168431503547799 0.06905134627170689 -2.7248379039396102 1.689481657472974
Ni 8.416720454761977 0.3631017120241713 3.0637839490318766 1.4196204694366197 0.3376395811329088 -0.7412786090850781
Ni 2.3557544608863044 2.2402858394584495 11.394677063010425 -0.5756319454851246 -0.6039297639885535 0.2517670495388051
Ni 6.723972729501936 7.893093690832517 3.5681824698694795 0.42668408269709096 -1.2155268147143774 1.104457472139672
Ni 5.923316695026977 8.684376026962608 10.807072469130148 0.4857065839778861 -0.39081462249399146 -0.09032876759324444
Ni 0.5909200017579466 5.818971154768831 -0.016364681152373592 -0.7194730831742125 1.1703031669898876 -1.1876642839761544
Ni 8.343573800711553 5.998091117053457 7.572357914631106 0.5261847465975906 0.40271265948315804 0.4012515015565993
Ni 8.847106049626268 8.011733653317169 4.988094765869458 -0.4857027273231442 0.6199932452093193 0.8408132115473067
Ni 4.445060143071469 5.896439813445334 13.205878586486595 0.923327625302455 0.981639987890103 1.0668484035376464
Ni 5.174365681262684 2.800892872407137 7.833519253906577 -1.081111341214564 -0.22651753094339697 -0.5711775092581969
Ni 2.5841097269524105 3.574026531103052 6.938283351530965 2.354571537910616 0.2962098532332125 2.5338208798956683
Ni 7.348951437411741 7.016793220412842 12.357757212029407 -0.09147342272064891 0.23056419020894484 0.44609848266796076
Ni 8.534939442770064 1.7730883653655611 5.243901309803011 -0.709696463403423 -1.3637555399481998 0.9863538484260044
Ni 9.050558336656405 2.0999423039597307 11.760184878042882 -0.5980067136358992 2.072143054732212 -1.013817858174228
Ni 4.047678947169952 6.774012562283075 11.124014797548279 0.5387335297968786 -0.5177294167413857 -0.5723882417368464
P 1.9756425735123588 5.449112334646358 8.157224303416035 -2.6499442399545137 -0.6694206466025117 2.7806154159205465
P 1.3594388446918613 9.464348182155627 6.412977367189424 -0.15355373699116134 -2.2050068674741894 -1.372139393136521
P 0.6571533194043222 2.5600954718114153 9.865393727000942 -0.1320749982920951 0.2625142607529801 0.1705047630232031
P 3.505735116015687 6.753740302489333 2.0838217880037653 -2.040619015982002 -0.2988413773187885 0.5055806971939939
P 4.678167743228586 4.61594771559214 6.502357732555069 1.1710127914624027 0.09235171156054417 0.7273907953593924
P 1.228469007538011 8.799751098506782 2.9047790827364084 -0.10949659877094689 0.16091017735623256 0.5053888928981619
P 3.051578495707975 2.7458574758374157 4.979235591884836 -0.6491174162687853 0.9763106052573897 -1.5560897401416685
P 8.194876260600093 7.312027298322724 9.299600288500962 -0.18976823923850542 0.23237193284164498 0.028071304314919394
Ni 1.3809553179385654 1.7838091820354405 2.0475244331354125 -0.5188288204531516 -0.36262016233764643 -0.555579911930256
Ni 0.6815689035463104 7.6184405873325245 7.948175862344079 1.0414497609588838 -0.15461380282455953 -0.7631229586536793
Ni 8.603333762729479 0.18421281795223765 7.062688793346897 -1.3147248597727936 0.027116910821450072 0.6755653260476688
Ni 1.9916115386567603 4.010184153790478 3.5362660560539227 -1.017410717731809 -0.15264999422996933 -0.5811137945353024
Ni 7.138978723489015 2.753855990892169 -0.15698793080329942 0.8460356362885106 0.8361353464556632 0.5643352895253829
Ni 5.494399833336486 1.133553295554942 13.49395796929253 -1.9523916110024766 -0.5548875138489219 -0.272617153514937
Ni 0.2753855990892169 3.7009269483167646 8.055137057349954 0.5990513528503296 0.6297935191291928 -1.0071707851713558
Ni 5.881668286812052 0.07941356075823712 2.215648542092137 -0.05126214060908591 1.5114376486499326 -0.4918810882197142
Ni 0.20532515570143833 4.742062313782928 1.8791823529497111 0.8299857819144996 -0.2834918914459118 2.439960959220714
Ni 3.6226069856987624 3.4535997658400865 9.917286782977808 -1.5692825846828586 1.7165769710278695 -1.2950196680343826
Ni 2.477303824753446 7.172516356788769 -0.11470244788050525 0.9265384189302688 0.37438887283780037 0.5926292513740697
Ni 2.7754098840923453 5.983385075338753 4.267376171501351 2.169366235452445 -0.8907430064982143 -0.748380253126866
Ni 7.663849700871438 5.203992929424559 0.8294375916883545 -0.14613533303990317 -0.9712115934679275 -2.1343650367869116
Ni 5.548808445685542 0.5914457521042356 7.014629411603292 1.8242683982692776 0.03458545128435334 -0.7917740467314687
Ni 1.3801601439272742 5.3381808825770465 10.291474156218216 -0.08624225622869663 -0.2409578747384431 -0.5180158376335531
Ni 8.691635497936279 9.18000331070625 11.97695586201273 -2.0677747504611874 1.2144297249954568 -2.3323885740556736
Ni 8.814494560174957 7.395483149554831 2.0919138529422 -1.1831573972447367 0.8079360012033119 -2.0020097882502363
Ni 6.522877899540568 4.827969171967487 7.927623888398129 -0.9176272324835681 -2.0011554106697407 -1.1857408417011965
Ni 3.1051358041155317 6.145086049281918 6.712543740212589 1.6319732788438603 0.955134999621039 -2.1755443392386984
Ni 2.2419042524461363 8.00952587606229 4.969185527880953 -0.6455147865191914 1.7977302427694328 0.01931361272694738
Ni 4.329198612132152 5.750576834809417 8.826365104915281 -1.0213622461803893 -1.5694610192422518 0.7559678356661368
Ni 2.6424661443928192 4.813852494519976 1.278423709925 -1.6036906298490832 0.3530034651834888 -0.38946479333431633
Ni 5.25647441416978 7.520372244269395 1.2047606605166536 0.2042610335380418 0.6039050813982051 -1.0732350237902808
Ni 2.7052568263197223 4.67174086621968 12.267595705135022 -0.3780799485361424 0.1531030226069879 -0.6255342296322065
P 7.386979465128199 2.2444300993055317 7.648280193730355 -0.17025228069276485 -0.2991059438340849 0.0030346730612657415
P 5.492341735895497 2.1741647816724914 1.937126215403085 0.4145970696255698 1.3750439683778255 -0.8785719183533193
P 3.358992768473166 1.6554680966130355 8.83605874386234 0.7238398447833404 -0.6750511054154116 -0.9249625898027166
P 4.848073041970602 4.432926723158001 11.249665388316009 0.3679749988916566 2.489809507311725 0.39493095865521016
P 8.739280453695175 4.9170754361739455 4.694812138533168 2.8230159923739446 2.0492761774363673 -3.6168250672575706
P 1.5837340458061981 -0.21358841692700947 11.160572221093267 -0.5365812593405662 1.102933579295978 0.5025946179824763
P 5.026182665511471 0.05073210192038071 4.374748985995424 -0.03356652310153574 -0.11726621541403676 0.2674610632352942
P 5.149369152343035 7.997476651044136 12.770186842219903 0.2284340312398195 0.14915149415840767 -0.5895878934445847
Ni 0.7751983046287612 7.326817534932741 11.893776918436318 0.019448595642914894 -1.2834121657024413 -1.0883621092397062
Ni 6.526161500457782 3.929871578650063 3.197608928635681 0.9061724536794071 0.0575572295891783 -1.4198099597396063
Ni 4.727805311509895 4.997902535674608 1.8333279419644746 1.8542855134566578 -0.9435148988836073 0.5269571059872409
Ni 1.075776887393358 3.638239171261911 0.01766502453554396 -0.7499437409592439 -2.540821736693534 -0.5654706886814068
Ni 7.40800947897976 0.007367053339904077 0.5277186358416824 0.8911566969968653 -0.02789749774121647 -0.24953893153923476
Ni 3.5209182621371653 2.4372925395029443 2.8717129408504083 1.2744333592425987 -0.25255200733394567 -0.5083407764376342
Ni 5.598474078931956 2.520982265444255 5.387051341812169 -1.409836136356346 1.5403463612644828 1.5268257010702284
Ni 3.0332333635180677 0.21280914639594403 0.5358425077405684 0.46274560430633854 -0.07957769972432747 -1.4470428273136304
Ni 0.9274469983247648 3.526839969774193 5.611832066822812 -1.6113908267068182 -1.2189692647370232 -1.586440327409068
Ni 1.2253912163648955 1.3023079307276781 8.017620747497235 0.8572510453883558 1.452092731032712 1.7968272713391893
Ni 3.659465639869203 9.054599691631438 2.4917329588124533 -1.365400017530158 -0.7933992410397175 2.9626508052911684
Ni 0.8586158004085589 5.861470866925256 6.077496258322164 -0.2054537682945623 0.4788833904084655 -0.20123407378625988
Ni 0.8110026516101134 6.646971820243841 3.6502519118254297 -0.7056588029989395 -1.3950983159255392 0.09738387466781294
Ni 4.97089468425581 4.877821904981263 4.403666190540158 -1.133334045964706 -0.06537364030980355 0.5505040400692454
Ni 5.596724696107116 6.809542808105242 7.181890990632474 -1.154314247760799 -0.7744262994816405 0.2964870181539991
Ni 6.02522058332104 3.4362930373590417 9.831958063074401 1.022973042310935 -0.026155061128813023 0.2747282863206688
Ni 6.544085658171123 8.500382115738184 8.316598691752043 1.5358692993297354 -0.171506207704524 1.9875691873448733
Ni 2.5216651795951286 7.809179445170371 9.606697427160475 -1.505196038615595 -0.20386508365120373 -0.027229525139914394
Ni 8.230930385770874 4.147272153337086 9.850236774846893 1.0603784795425866 -0.1315764613891218 1.547003461569684
Ni 8.764791506975072 3.136512435102247 3.4353294735571245 0.7434211093493777 -0.653251750152133 -0.616295741753074
Ni 1.1689899914934267 1.117041741085189 13.16153032862863 -1.1104041766414103 -1.6726928680504096 0.5193533254980539
Ni 3.6169939926778825 1.3071725246791068 6.311313902096422 -1.9005993089215332 0.7795620780463091 -0.059402510328033176
Ni 6.529061546851902 5.760614737328423 9.963442424588498 0.08272704398658655 2.016663790717985 1.847597045692889
Ni 4.943671668104545 1.5842485701664453 10.609539083240524 -0.1955071986048117 -0.9993746861657046 0.5525156711826354
P 2.862822895404172 2.271204076015126 -0.044792619805453605 0.9101921163617616 1.436480735527068 0.17484427093882146
P 6.565106317034315 8.201237652690422 5.964263479114292 2.055238051446757 0.7063231760558157 -0.901825232454305
P 4.536280634649126 7.857844094661395 9.110459262676393 1.3643288959531665 0.6909068415007455 -0.20857611597362785
P 8.406093187975781 5.105213607245451 12.128854679143766 0.2704180889810891 -0.4217917876017962 -0.3095266249467766
P 6.978971002440483 1.3204472531734865 11.810434262563467 -0.9987979877266282 -0.07698577062743515 0.7638886331751102
P -0.1894824829000065 8.34805484013989 13.675869460106208 1.747375701576281 -2.521006758850136 2.8046266912334796
P 6.511941918138221 6.1482199703852425 2.1664665617443553 0.9254441574248256 0.338851599163139 2.432432254943837
P 8.649107720814749 2.139944234221864 1.4099716853600008 0.13060921237984605 0.14581600202727146 -0.18895011421258426
