# total energy = -381163.8476935472 ev
CRYSTAL
PRIMVEC
9.28515712758593 0.00000000000000 0.00000000000000
0.00000000000000 9.28515712758593 0.00000000000000
0.00000000000000 0.00000000000000 13.58976601428987
PRIMCOORD
 96 1
Ni 4.105692189691823 3.8180844489726904 8.94818109293711 1.0406612036193175 -1.3916538090203647 -0.6702835088234391
Ni 7.9148257472342225 1.577641040374097 8.738070058799547 0.5840978168642909 -1.36263248208735 0.037520879763593445
Ni 0.05102379521548902 4.2867063270709815 13.273776443428721 1.2825896698011459 -0.43201680776391405 0.11500287330115679
Ni 7.344744957664164 4.267161071406291 12.273936800741158 0.9361569158566393 -0.48538493897240925 -2.4695713258879795
Ni 5.855127206459313 4.482613856415064 0.16760079945364373 -1.8048989926037302 2.1171396740475603 0.5841803492757681
Ni 7.392786360423835 2.933459677978862 6.795549271926216 -0.4998689915211972 0.397307943527819 0.09589057795173808
Ni 4.697723090611679 3.015596177555987 5.594213363844893 0.372030657018269 -0.20776698980877123 -0.3610828997575136
Ni 0.4375286725665348 1.2814816699793457 10.339936074009358 0.6202246444938351 1.4253524868243905 -0.9904087352216686
Ni 0.836368881105486 8.07393619904901 10.753323338153947 -0.9826113506644367 2.2450903657586365 -1.2049341268001958
Ni 3.5668559537140125 3.4419055948162773 3.481493790565433 -0.6487746882173858 0.6413822524080567 1.7172770824186878
Ni 7.615110161675777 0.7765947538527506 0.29709717126037305 -0.37816916581583904 -0.44607919939425106 -0.14722573789060453
Ni 2.3229234589878764 3.004017586670539 7.159605424991978 0.07821938592422012 -0.9605872809848619 -0.4288281256232873
Ni 0.32230730126284324 3.223119438413859 8.688005420310976 -0.16006222753364047 0.45931858090266053 -0.42517793046520963
Ni 0.9281758717870167 0.8971235209464359 12.551643778460168 0.503199855666643 -0.7427443949973274 -0.848203847584423
Ni 1.1519722989526968 2.151092341966141 4.659047625804014 -1.0683913225447341 1.5358009079856452 -0.014064191402549973
Ni 6.520622270238564 8.067297311732975 0.5261183563179872 -0.5299760953192227 -0.6737275015079817 -1.5447113231013978
Ni 6.950292914363757 7.246201585517203 11.863920048618557 -1.080861429987287 0.27907293644260966 -0.14208738822277464
Ni 1.207413971909402 8.98867273447067 6.13462436246438 -0.9432906986879431 2.0001254267433297 -1.925484502198987
Ni 6.358299154072241 6.190562791325151 9.360005665144232 1.3288471581067889 1.2801419795916018 -1.1828712334628855
Ni 3.143267087479734 4.222063063442682 1.392760563584592 -1.3749899752114385 0.20179251739289117 -1.4007508862256264
Ni 8.5093172147817 8.559132082544675 7.597711634329222 0.22121925865893513 -0.41140555927146566 -0.030753736243088966
Ni 9.176409325579634 6.615303017038015 5.526726985117054 1.8047840642924209 0.17507155645827913 0.8614725396688713
Ni 8.540533912902692 8.687582945663593 4.450879046528709 0.05011928525389433 0.45393314822103115 -0.6309245474098425
Ni 1.709091009231587 0.06989401996007308 3.694309590961962 -0.8776625191651725 -0.3393370234399898 -0.8037654147653899
P 1.5182531756561126 6.811275542481696 3.3806718408697223 -0.9491024202737138 1.9738613508404779 -1.2346380816225317
Ni 8.108430557621135 3.239637732868721 4.591642027942819 1.5015633269590138 0.19035522209022704 0.25685320581246085
P 2.0076088095260203 7.870442696366185 12.559308675634137 0.9609829737613836 0.8432385331593478 1.8864572130931965
Ni 4.526161243145419 6.632526983431365 6.143539041782037 0.3591293755755686 2.7398184365088425 1.4202478186079732
P 1.0361121088415324 3.483410246987852 2.4717069590923226 0.542303249426008 -0.08883932753191152 -0.3917049955187447
P 0.6455421897185143 6.964982032872801 8.66132823548902 0.09612789077352478 1.0181938757547369 0.6794862583686297
P 2.5555352142904004 1.3120019813189354 9.765741959850484 1.1635851315397638 -2.047795222015467 0.1013045498784578
Ni 4.161338136104405 6.313099009380692 8.423793489899834 -1.0950107249044754 0.5753622367635058 1.25099826814811
Ni 8.665326424129976 5.314368942964834 3.6493545744174667 -1.7760661275324379 -0.1025798170464556 0.40291989039795767
Ni 7.352674481815065 4.0401296955120705 9.65539251046948 0.5635261633605262 0.42858978436023604 -0.13288026780220988
Ni 9.055498010014032 8.268850216584958 13.233048030389483 -0.5787031282112808 -2.754096800804728 -0.2089008463028983
Ni 4.666357829977321 6.298929859668427 1.0967469701560808 0.9254145897384708 -0.08268487789474148 1.9849749442551365
Ni 4.796377884643665 7.538526186035699 10.635405557232666 0.7417198103875549 -1.0675454296046711 0.27003782282353495
Ni 6.359719783106303 2.5445044476729892 3.6857895308204327 -1.3977617216903153 1.07275756993323 -0.4787234677918336
Ni 5.0603456154234605 5.1744694811596625 4.783339667064397 3.009026821452547 -2.10520204206971 -2.498291062420175
Ni 1.935110303003503 7.040126809164648 6.859652139412148 -0.24001325143698665 -2.3914648113925394 1.2496960043969187
Ni 2.206701147750383 3.22059387568664 10.215848306204853 -1.36224861638537 1.911668165141185 0.09275203232275639
Ni 4.605586476853618 1.3824298978114167 7.132656185067419 -0.16783775771400125 0.4684984476297157 -0.7389126799560629
Ni 2.23410164630929 6.484679427161123 1.2863545204177445 0.6820429633522124 1.2973722274269592 -0.35095223908141493
Ni 2.80207470522097 7.704191958752753 4.8329010500389415 0.7064959541882542 -0.723796907360547 -0.1935827278885892
Ni 4.6772307489242815 1.042621003958372 9.376259332622162 0.13809497923392988 -0.8519903112100488 0.9512418352142198
Ni 6.829808716024082 0.84548876239473 5.342680315433815 0.5141771806137532 0.8114663829540735 1.6297770425234899
Ni 3.5492048700947367 8.567423727821904 7.144439049408745 0.5009413986497696 1.0143274508207951 0.24167598385139025
Ni 4.491592603316611 7.925921509951232 13.177302732796084 -1.640476174108549 0.3964749061035624 -1.0443846752174917
Ni 7.511014265591767 7.494115279696406 2.273323078353574 1.5388391805913368 -1.0569216313422376 2.3998396657197962
Ni 2.9463381908562614 8.14858886201533 9.471998587329345 -0.6860623689242507 -0.1531261625354395 -1.0585514536361769
Ni 4.9158500008610355 8.75334971329922 5.100619984281225 0.43971160530501047 1.2622607284358067 1.5571752598963633
Ni 1.498661494205996 0.34303362890879147 8.286835565859308 -1.115242478570318 0.130509196466872 -0.19312455730524802
Ni 1.010577926856783 8.739431262828262 1.4147626718140693 1.2002593470323457 0.13295277291135812 0.9804518811192727
Ni 6.06033846320293 8.834966244079565 7.544249556863117 -0.6333483263599866 -0.4245099578639076 -1.2963520136925608
Ni 2.8032910607991526 0.6908277578552487 0.07937509385993766 1.1542733672205345 -1.6710977556491478 -0.7545632420091263
Ni 5.779611023884053 0.1446590333271278 11.852218893659582 0.60665821866331 0.45504952121366143 0.32893408293911086
P 6.081053648660376 2.583882798872015 8.56155272299683 -1.3556658209615298 0.7156367401472578 -0.4854618149569317
Ni 7.386063906694032 3.076051835338788 1.3167596958094756 1.5309551498575698 0.4645996267959418 0.9038276075963143
P 9.139742240249534 1.6964167698100658 6.4639995253006015 0.20065094758928023 -0.10621921357125579 0.40452245899838724
Ni 5.119120659773811 3.0534796184642694 1.8143559065926433 -0.15992364507324716 -0.9424232084813254 0.9745668830934054
P 0.4049117727570703 4.391294336480515 10.948553979546507 -0.9317328186470147 -1.3470384843038348 0.04961714880649519
P 8.524990559941793 2.1907028220923017 12.427827137242556 -0.8277265535666776 0.8595190154869263 0.32069575418971863
P 3.2070375463420095 5.163169444986775 10.275222243187208 1.834834603820898 1.533798789953952 0.43427963565616173
Ni 8.229137599730858 0.13685578731258838 11.484820084043088 -2.403134534420984 0.13029168113942724 -0.799000903497211
Ni 5.467193343432829 5.119334218386775 11.094277091875616 -1.392772238895524 -0.6214086374996073 0.6641475711290304
Ni 3.5126584918067465 0.01942547713828879 11.413025392427642 -1.9958039165498402 -1.5518723596262112 -0.03315643214731064
Ni 6.727495570100462 8.884938959512992 9.651669162478251 0.2476815666155218 -0.49307716541034435 1.2987603660237375
Ni 5.424955163851512 4.787965532324325 7.29949838718719 1.658315773393131 -0.9566128697181462 -0.732096685475494
Ni 7.043367328987439 6.6629637283571865 5.048611962414687 -1.3707569109666975 0.0783440844275425 0.09409054862852184
Ni 3.664108689026109 8.680284812194497 2.3933207344619762 -0.5579926351368067 -1.2069118193518569 0.03368890761201295
Ni 8.545297198487482 5.435725946070533 7.977369636845522 -0.1815779901182292 0.26751994149768765 -0.4448705237981306
Ni 6.0353799609574725 2.2357451191133997 13.285735725754668 -0.05694916369153418 -0.12493581614415257 -2.1123072856559233
Ni 6.261882082897828 2.3592191380345624 10.80987087331952 0.4318383732045208 -0.44902696916866536 0.20940941050820064
Ni 6.546416436621705 0.38375461382236126 3.1395892367582214 -0.4898704855475886 -1.514003866715212 -0.9768050283953049
Ni 1.5232300198538675 4.927688576144874 4.184275259652378 0.5308880656105308 -1.9459846790348683 -0.08845623316087992
Ni 0.23235269941984252 1.9095389803904121 0.9551566812456657 1.295964548446155 1.2055594190890206 1.5077206048096614
Ni 3.35178386014574 5.804662377700363 12.895151878896021 0.38852711201139534 -0.7134932114416938 -1.1264835987017763
Ni 2.0615648573490675 3.02602340896285 12.492826950902934 -0.6575138678625967 0.8541670071463934 1.9912764609931317
Ni 5.106659978965254 0.4714779924177491 1.0397258919791557 -0.21813316353444367 1.3143996152228912 0.12589715161615736
Ni 0.12612493126903387 5.7640305302948125 1.5779623068092508 -0.9625580315579875 0.13498368729845786 -0.5675221718937968
Ni 1.6345219126790334 6.133886192476093 11.330970602232867 0.5383087835546342 -1.980544162177292 -0.031844912424738706
Ni 5.282762268246256 7.30808715749115 3.550761062422244 1.0720785415883343 -0.6362369607616913 -1.655832344849645
Ni 3.1475939706815135 4.854976511009393 5.795491428047149 -1.544433643959979 -0.5582273768554321 1.5140943695464892
Ni 8.56805511850371 6.192986217324432 10.766111785007618 0.08975181204385188 -0.5171236648365869 -1.392475790701028
Ni 2.5649317932607882 1.6187650011051715 1.9911861521891383 -0.22232071925323002 1.621980943517839 1.882177868991552
Ni 3.98670290164289 2.114193127708907 11.675035812093842 1.5404736308709663 1.295551886388769 -1.5469435548660262
Ni 3.5412289201584097 5.874050356599283 3.2712063384432475 -0.48418371957545653 -0.008379739423262988 -1.017618719977557
Ni 4.341135917905382 1.2744806615369817 3.799426854325361 0.38061505625317027 -0.04695914235835783 -1.4700847967347586
P 6.932279709618151 6.870292000916265 7.283992174854632 -0.27415673008791497 -0.5027740809831341 -0.45649216719745905
Ni 6.4556818815835335 5.031255218275017 2.43695725870035 0.004305826464205488 0.6778950026221099 0.9149113762143017
P 8.453272006614446 0.335458797758552 2.235461921822296 0.8395016918247348 -0.5261114701574939 0.6560061729688185
Ni 0.41299264496846205 4.182842559914107 6.04202349085205 -0.09698201124370394 -0.0268932248464182 1.498449978141013
P 7.824787578977453 6.285847073335151 0.022228666062360004 0.22255648941311992 -0.9124094357280543 0.42937474215537663
P 4.007938055897116 2.5021734165208174 0.09940596324019214 -1.8079619477997704 0.5725923873278526 1.0430613284203778
P 2.8721219302729515 1.1292515195648127 5.228037409416542 1.0722667463397404 -0.54390298981296 2.321602539183763
Ni 1.931405525326443 5.159009694612532 8.291075168584484 -0.06295731755882707 -0.45356933712370917 0.36579753162436357
