# total energy = -381171.7160619303 ev
CRYSTAL
PRIMVEC
9.27587260507046 0.00000000000000 0.00000000000000

0.00000000000000 9.27587260507046 0.00000000000000

0.00000000000000 0.00000000000000 13.57617717709076

PRIMCOORD
 96 1
Ni 7.544234209229891 4.581650340252322 3.675193511073129 0.7491240732714259 0.1889305738285585 -0.7391834171189463
Ni 1.2081638636840384 7.215237557326249 0.9185479292061587 1.8690104783716583 -0.1698812705065913 -0.4920237844451655
Ni 6.590359118955304 5.77980553732409 1.6364587325333344 -0.6039763009557727 -0.9609181819617192 0.22132955898455434
Ni 4.972108924475618 8.897185169439359 1.1778067151928622 -0.7835963960166827 0.18309057010801372 -0.5271831059551179
Ni 3.5309722427806447 3.180641083733145 12.629633076988465 0.010903277176065092 0.5207417212051484 0.9891398958115739
Ni 1.7835276937358897 5.557629835102481 9.231597075808471 2.7930942651138473 0.15547023728758386 -1.1278221150075416
Ni 3.3779481713231516 7.893990264171773 13.343739844933166 -1.4853715476904998 1.1966849994175262 0.5217845606473659
Ni 5.14243249846498 2.0635384620626978 11.16944653558856 0.5252426943992954 -0.7113874779526006 0.8663221544516886
Ni 9.500441548613638 4.471286007209875 8.076711969573518 -2.0520087458761824 1.3468119701153256 1.0497963331513662
Ni 5.018571770685875 6.51809079497365 9.3313813484821 -0.07092336648343914 -0.7195191059207996 -1.051927520561756
Ni 6.683590915173966 2.6112323639362316 9.538445726534984 0.9749080684829081 -0.5433113789755482 -0.31349512267622137
Ni 0.364758851400351 2.218974260414714 12.365100957388162 -0.02477309317962185 0.7439998646709832 -0.4239934232388053
Ni 3.4855111908188836 0.46671089551724826 6.773398986789671 -1.1966379482296747 1.4054086967126118 -0.6975595709305729
Ni 0.6358786957717726 5.819404237757626 4.301082091977973 0.2824038005880556 -0.3099151186344469 -0.42210211975336337
Ni 7.608914869366466 0.9105623304234857 11.161342205635696 -0.2553162003426442 2.5684852640470734 -0.9447603412549342
Ni 2.1855069118168697 7.701293285299375 3.6434793024101495 -0.9396721280987494 -0.49665459834895753 1.5434918488719997
Ni 6.336701104887497 0.4793075306047961 2.774535957487996 0.7552746662538542 -0.407823241236846 0.2172510180398065
Ni 2.9520928569863925 5.365396649863644 4.738818871619327 1.134221333665666 -0.027099170209637202 -0.7941955116887677
Ni 7.951176019189985 0.8092234214901576 8.435055627434437 1.0101879747311249 1.4671372840706602 1.7167451211746176
Ni 3.013072443927143 5.485611959682952 13.359922532395418 0.4485194334046275 -1.4449761745925889 1.4460064156293162
Ni 1.8574563989256954 8.61201701590734 10.906421745297335 -0.02640060148071582 -1.6219842859519487 -1.4760016764398258
Ni 6.49614408023349 3.967225810381867 5.74002131943713 -0.5375541647767969 0.3573730550060942 1.3322502702510668
Ni 1.7634918087660052 4.107003935664825 11.380746277103137 0.027634473887816924 0.12725597963689697 -0.8311551196322525
Ni 0.4665838160616522 5.004815651514421 13.046597467369839 -0.3595386951988453 1.0368366876669046 0.008176622273521403
P 3.594920108976193 3.500946242943832 10.463309597442993 0.7322656069531904 0.03400541041116724 -1.6705956192017488
Ni 5.461058724722172 3.9700642274192677 8.198191580837914 -0.7865685912711292 0.007009598548613734 -0.7580905384360944
P 7.981164915536113 6.22358183766169 5.128265458134191 -1.6326175972960784 0.1551791884097263 0.1987172209016771
Ni 3.5331984522217432 6.876696032443899 2.087690051736813 1.6700911687615043 0.11980697955801946 -0.701360946954534
P 1.4892784608587242 0.4275416679883911 5.787293949331584 -0.4243238099950305 -0.7072148346321497 0.8690770914890066
P 0.3509405838820005 1.3764189180677124 0.8189139256698049 0.7742964587719955 0.1902320662488014 1.0307645133308956
P 4.612195788958725 8.248208013868524 3.9061107957001164 -0.47677842825032085 -0.12338518382758104 -1.318752235764632
Ni 6.091409927969151 3.0887635649244842 1.5173277722292955 1.6695676921578666 1.3045070386995277 1.6097702603842599
Ni 5.465334902023615 4.317287969121901 13.209797171147686 1.2410560693337336 0.7942335640155548 -0.5311333488521176
Ni 8.060612764965308 2.247812948549608 2.1913989461376433 1.8705348854359851 -1.3148248756857677 0.752369319681601
Ni 2.1640332665829427 2.619886753138501 5.544429340704036 -1.682794989481418 -0.5538382466488009 0.45284248626001367
Ni 3.0119407874612514 1.1911982925683353 0.18143885221131145 -0.6293353485458516 0.28287354113562246 0.03707376492384583
Ni 5.584242313796278 0.3071130130976452 5.400997449175874 0.037703170977728614 0.28431978666384583 -0.8313929466746715
Ni 5.90235836705655 1.5051587548718919 7.4042028526230075 -0.33392665105769587 0.5571534270649631 0.008174822501308503
Ni 6.066977279353097 8.525779227682795 12.047675956641895 -0.2917705865149362 1.0524720802113163 0.8636196679188611
Ni 2.2092531458552513 0.817563358608872 8.779103310334436 -1.3008020790441146 -0.9938614696569593 0.503427655406733
Ni 7.949042568475599 0.33650918118008094 -0.10807319249265042 -0.9665257579564838 0.0021856947974091393 0.6884450102238144
Ni 3.9380810184488224 5.4220907836302805 7.1450331150139474 -0.058994990476969364 1.0772713986431834 -0.24102523764126874
Ni 5.25982794299223 5.743648185651584 3.7891114309359293 0.07594781628122405 0.5023927863843154 0.05449196040029325
Ni 7.3450348436149495 2.6732879521068464 12.855404107457447 0.2922678378663289 1.4092272991277537 -0.19438542629554265
Ni 5.785862682178411 4.395001230361574 10.8679741806623 -0.6868802368398557 0.21084022941745625 -0.5704920531553982
Ni 2.4520305612796904 9.239492698626233 2.0100482147167087 -0.4426999985093731 0.2479664448457923 -0.282000651612366
Ni 0.9880010258320894 9.196007407543446 12.874153428887832 -0.02454349366731902 -0.6436859608405688 1.5957232953728906
Ni 4.208574741414935 8.702864912849492 10.224422483016873 -0.09856966744579798 -0.40310809514936385 -0.28449873544387133
Ni 0.40168888326637014 8.79696864109925 7.556920820282349 0.7523729192260269 0.8426047562300908 0.21312542590720715
Ni 8.378246472846676 7.261412851483696 13.393658881300725 -0.685355315554897 -1.2494360658673127 -0.16577033366201127
Ni 3.054795319202393 0.6873579339226362 4.281858773454089 0.964141059774391 -0.5915499022669619 -0.03290086449307882
Ni 8.408754818062395 4.283802068778715 1.21879494135255 -0.036828481682259155 -0.16177021136368266 -0.09134795288637816
Ni 6.804483363698274 7.494589738693398 3.33614181319386 0.8783526032536615 0.013448926416054257 1.9592163472337933
Ni 6.712680051870982 6.572178408519668 11.117124120611882 1.031232968326882 -1.7243203624187142 0.60985332856184
Ni 5.320297356936062 6.733031316511689 13.565330239589219 0.8807059339771866 -0.1658639218170821 0.06669030223869805
Ni 2.206906350069427 7.214189383714399 6.2232247165638475 0.46502514436913467 0.5168025340517423 0.1711159142446408
P 0.4637027300099642 3.401184232364615 3.510025467114444 -0.8338990009259767 1.8649874732551948 -0.3528512558763407
Ni 9.031008184467378 4.0458295553979795 5.772482235850144 -1.5443081741257079 -1.0833541145021537 -0.9460914013615318
P 6.931386577713547 7.983279814505157 1.2825647107928102 0.5926685892524374 0.33298048509434264 -0.8063645429511339
Ni 4.147465292256787 6.5245096988621505 11.500746386676473 -0.15260474281433073 -0.30711030219580016 -0.5298141158200618
P 4.1430870803559605 9.528269166627366 12.202336292038597 0.15209412172649936 0.8289586262015658 -0.16962287463888204
P 8.360093590029054 7.2067872373227475 9.057224583398114 0.507728339664616 -0.37527950297286977 -0.45954509509116986
P 7.609898111869619 4.930386049200369 12.44790203478801 -0.16531499129214755 -0.013080230222725862 -0.10529721597761865
Ni 4.249351477677719 1.534006718879457 9.16174789941948 1.0603838788592255 0.9352680854937828 -1.2594474273567278
Ni 2.480201386582255 2.7096215453601045 3.0697090672832172 -0.6097705390400466 0.8023834468161988 0.2081876222859576
Ni 5.352373324633219 1.8028493365100886 -0.037417015181259394 -0.7534209008745669 -1.8064709650765405 -0.49200835782619784
Ni 9.233964278514172 6.719878129063867 6.797971701083061 -0.7913755257414693 -1.9532657860773133 0.9476258357281873
Ni 2.9401919123491878 3.459779920028856 8.166206516692935 0.17993505519816755 -0.6358752065468986 0.6417964571273398
Ni 8.627238722960849 8.30983691189626 11.254433936177023 1.160970319624736 -1.5082463954061445 -0.7930755391517116
Ni 8.821280703370578 6.412373674139496 2.161720791526002 -0.14438055513232553 -0.2441622406083537 0.7765400033905336
Ni 7.274074417679943 5.182801096330229 8.991379801241296 1.0279046752845975 0.4518099312304412 0.8537597444056458
Ni 4.8534148577743945 8.441025579085649 7.7864940309592745 0.2910810166470793 -0.7623657687726806 1.5792324968067188
Ni 4.41348804459536 1.814768832892636 2.364413450788932 -0.03304613182169147 -0.653527629521339 -0.15987505122349885
Ni 6.596110160011474 2.287791959762665 4.113065718455483 -0.7370817973949112 0.45947490397486673 0.1518267269977256
Ni 4.148300120797199 4.290026179341118 1.499651669266975 0.03149807060828124 -0.23150212864218192 0.47432893826856376
Ni 4.989297116535432 7.281244667254813 5.78303075825188 -0.9011824566639834 -0.37744617160688543 -0.6388011219444417
Ni 8.745264926829742 8.520120945353337 5.309588361937111 0.7710846367029172 -1.0437069324241768 -1.8278280905960778
Ni 7.076693123108566 8.513247523703946 7.139426777571448 0.3282748520885573 -0.8271650246362529 -0.5925806575243214
Ni 0.6065075725455492 2.347769752454921 7.943828600447094 0.030715683916301938 -1.921421644983523 -0.42810924517939175
Ni 4.313123102292513 2.557608544023777 5.699482973101996 2.1113395224260154 0.7073364478116786 -0.5634063499532103
Ni 0.47912757867497396 1.4027252929633571 4.180118219234096 -0.8468555610866446 -0.9189444086330949 -0.7236069028369281
Ni 1.6794802299825586 3.316115204096647 0.7689262478444773 -0.36664676699853627 -1.2040113578756104 -0.7406396899494987
Ni 1.7364619158020036 4.608782267815707 6.515302467648675 1.5655552564299424 1.6679430120702499 0.09089621006094023
Ni 2.4114207907249896 1.5957098238885645 11.197237050111605 1.0666139189293373 0.17038340695399043 -0.04749470314685369
Ni 9.537916074205459 5.934239541427612 10.678898502480752 -1.9958044307704723 1.3551330883865114 1.3352011253492746
Ni 9.145778557028667 8.822959636324073 2.3025470904208105 -0.27988489082094375 0.9205606040802791 -0.2093929554479684
Ni 6.509399302280697 6.229759568860738 7.058919623483198 0.5987528477733044 -0.9879975546770147 -0.23491218276499543
Ni -0.5151467198446771 3.6190002744307397 10.26635963095083 0.26910888325136234 -0.6341307130519659 0.8680432509078535
P 0.46150249301234536 1.2579845758012838 10.259612361169768 -0.8114787242492476 -0.061104837731120576 -0.7444186973759567
Ni 2.1621502644306805 5.010121450682372 2.172133886186739 -2.3551196971046022 1.3242456547790356 1.534448507722809
P 7.740548778444073 2.9596990725768118 7.452981884239271 -0.5226795616578095 0.30605923522346645 0.03752730752149666
Ni 7.920936674281734 1.2630584781524536 5.8657362941632165 -0.4202948913412955 1.4265629621927238 0.5923669988516185
P 2.8830803643123457 7.322336783188419 8.361716867746523 0.8718999056497823 -0.10122227457729664 0.17893721006127247
P 1.9392046647773584 6.734979249772651 12.175196943777074 -2.3008097708081277 0.4434319915793911 -1.3803725796795903
P 4.384278321553617 3.889299204070756 3.631274109149328 -0.36195116129507987 -1.9851634061168586 0.9889763736505163
Ni 6.7019107636996695 8.398727599704781 9.714324620667155 -0.7106994507466404 0.7826047215273748 -1.1357817361742504
