# total energy = -340868.1775611932 ev
CRYSTAL
PRIMVEC
9.25544471119037 0.00000000000000 0.00000000000000
0.00000000000000 9.25544471119037 0.00000000000000
0.00000000000000 0.00000000000000 13.54627888951731
PRIMCOORD
 96 1
Ni 3.1716280726253494 3.867785611971697 7.6941244163898554 -2.329596098912201 1.0075464233432196 -1.4578005800507667
Ni 6.748709417508534 4.125049956840755 12.168121303630102 1.533262714944824 0.6735436676319497 1.3341148342636315
Ni 1.8709974305520563 0.2939705135737709 9.325638137161642 0.05232734864880666 -0.8178370623671076 1.3896077251246133
Ni 5.391703860893673 3.892506905148602 8.392773521488065 -1.5433509524187614 -0.5241029243678974 -1.0788487704326322
Ni 3.2578610522319478 3.02268945420425 10.147030175140483 -0.7208889896851326 0.3008092996784368 -0.07056366915117525
Ni 8.126289828010428 4.041352969121267 0.8492518525021644 -0.9508610548360333 -0.0439334681581566 1.3310922453872236
Ni 3.799878413155166 5.894626222798079 1.6925394963471974 0.3565292189485602 -0.9905303484011972 -0.4616112335915792
Ni 3.610595310661386 4.967674910834996 4.1416394161781875 0.13348319149353138 -0.5409889014899586 -0.5770193127509546
Ni 4.060169288488038 8.808564200091572 9.38856035338548 1.0018226334855649 0.2753672054562483 -1.3534978667759334
Ni 5.198385384448141 1.5132282101277708 2.272848483676815 -1.3646783088727852 -2.164590668440672 -0.518249550910914
Ni 0.3811373675650755 2.0188809282610003 10.48822011721666 0.908801663772138 1.0117437492540189 0.5939929644908156
Ni 7.906528545647105 7.0521028994774415 6.400684329415454 -2.049171533537703 -0.010663393251117119 -0.09786852761371533
Ni 1.6551789676920512 4.46937101590748 11.699108114998712 -1.4196595502046714 -0.24819835835094028 -0.5715649745046028
Ni 6.0249521416389635 4.170336848459847 5.910254966960761 0.6923482019329624 -1.0733154993192289 -0.5056953683949871
Ni 6.717037285254185 4.5939770698351 9.915835641762023 0.5625689416535795 -1.4209885534287399 0.4363203202352744
Ni 8.131278512781057 5.865175397306163 8.74921643666628 -0.01680190204868719 1.954434609574434 -0.08443039983093846
Ni 3.9072971060084645 3.560171647154169 2.002004550133419 0.7597123903102335 -0.8505726049269158 -0.23363845825889443
Ni 8.143847406878487 3.523538596463719 4.222890189825548 -0.3515086258055172 2.0634301003392466 1.2198460109150218
Ni 7.287478117291696 2.2492859721943117 9.9470329696959 -0.6774779696893494 -0.6182544081413417 -0.18216728696279594
Ni 6.9269600297489005 9.249252950868494 0.16534852212856965 -0.7322797480205775 -0.13483893419047746 2.6185531272377416
Ni 1.043838324891252 4.730698501062821 8.68912546102006 -0.24896043332794546 -0.7903987636504968 0.9910448261437705
Ni 9.069151249659434 1.5380883349773278 4.302027019870659 0.9981922358218291 -2.4209648777341854 0.8941869991827567
Ni 3.151099495962536 8.02944085316837 1.7190637501796102 -0.9063786561529422 1.4726587281095218 -0.048880013530154524
Ni 7.732757568710978 3.6820380894081217 8.041721902931169 0.23023431767335184 -1.3122005506890433 -0.7818881550763244
P 0.6846557980393687 3.237193643896482 0.13621978611720473 1.4276543954846896 -0.0014521590654942734 -0.5076260097587967
P 7.621136903898745 2.1853215928810994 12.036532942112569 -0.15145288859807468 -1.1662220549419786 1.4022614093328818
P 1.5269725457203218 6.702524747739626 0.8860422457549527 2.2795513756499837 -1.8153852368470347 2.545664666608132
P 3.5812370396179034 5.087412600774951 9.384130697483396 -0.4965784936953835 0.1789328391858983 -0.04266899962343619
P 1.385549348512119 9.006047626716665 11.425175639511052 -0.6500517551575966 0.3459509292120816 -1.5294574822661207
P 7.1930355581089405 0.12431913513747257 2.566098923641764 -0.2205767399789298 -1.4166603583670312 -0.652805920863966
P 8.740518169602389 4.796569502013789 10.70756120238409 1.2623527739289808 0.0776354883962921 -0.15950404103732532
P 4.889577467245806 7.777405834635872 11.178646685115933 -0.4662932124482808 -0.30496960170371346 1.0949472186563918
Ni 7.033666053349251 6.416133517948171 11.141679512866633 1.5575113030795433 2.4457063463449233 0.9880654318004726
Ni 4.897000334010268 7.645441702057695 0.037868652577052485 0.6191830906031982 0.7719202452303352 -0.9156420837327393
Ni 8.473415286864725 5.90193802422442 4.479646410772699 0.4183616788743246 -1.2633642459126306 -0.4611083258132317
Ni 4.928394802919314 2.73569662049797 12.014438344182238 -0.66734602346167 -0.04485340886926469 -0.6899347073954635
Ni 3.4323261875313342 0.7722104551696146 11.269040912724153 0.20334417815072725 1.5259584679739269 -0.09736716249726458
Ni 8.192031252733587 6.902303524685899 1.856233144937755 0.2580413125832911 0.2554295859920569 0.45169371736755115
Ni 6.188125634229318 6.263742618600459 4.491485975816464 -0.38442645957946053 -1.5178857182681214 -0.1974488957122148
Ni 5.00563149013806 8.16245085101386 4.8329193360920275 1.7738796614040806 1.6981881841080368 1.391575133263629
Ni 2.6625971171242537 7.59961799463768 5.598108610803386 0.8199129710595299 -2.3401597333606605 0.9162570916089188
Ni 6.31441617911845 2.4680754328490706 0.4786092338450982 -0.07591542038139183 0.03863133921895283 -0.9078287583359075
Ni 1.4889789446378825 0.1628282644976931 7.042398565559064 0.0862419991183805 -0.7602484653193616 -0.30008913368296064
Ni 1.2011160991163168 4.318238857058478 3.9842589065153606 0.04211544111281134 -0.6667760098908129 0.3890850413973944
Ni 7.823488694511503 8.155398202043136 4.224542286730107 0.48546824271483485 0.6537400026424612 -0.2616426567813042
Ni 8.802705503505656 1.2316035344307028 0.28738341347867413 -0.4503621430403211 2.010013118170687 0.27868367142399103
Ni 7.305850175305982 2.1724750354383646 2.6749022310436454 1.982948914964043 -0.004573221192979221 -2.136349928427424
Ni 8.185644995791593 0.23908294901854799 6.278781790926611 1.7897220277529757 -0.36907903058911273 -0.48603028586589203
Ni 8.851055947367938 1.2527152041186551 8.318648514825693 -0.02689425328768271 0.5728016751251812 -0.4091296187530954
Ni 3.668710248833527 1.7157003215234938 7.925846510124393 0.6516016161432198 -1.3315095354303002 1.3029252960347044
Ni 1.7290466729877758 1.306674447556078 13.003859281116316 -0.03505673449381705 -0.6640745517992499 -0.15262556874993713
Ni 2.612154942727349 9.141056800648345 3.8918867903440892 0.4589722533068354 0.6776381494162975 -1.0714437362178129
Ni 2.879026439343927 8.26850899347517 12.641089343843106 0.451443549029958 -0.4342768074426844 0.8085126996423881
Ni 1.880604582299577 4.401130621076585 1.6430145365342803 -1.053827051577314 2.0367525910480597 -0.6450920971594761
Ni 0.619640000191938 2.6138579445785473 2.3606021328711955 -0.68351749101521 -0.3447324834239482 -0.54240737910404
Ni 0.015038246781668065 4.144162450442518 6.407945225895155 0.6372245214859412 0.7716469369642904 -0.7558027708431821
P 3.9663838658891692 0.7616129708238429 0.11387158899816503 0.6586649507479043 0.26517483830427885 -0.17719425922823678
P 7.469634527256005 8.229728679581035 9.439724452480176 -2.862916171002992 0.07335460163275109 0.6265583000213467
P 6.042759617517798 5.828042552594166 7.2547638219479715 2.1616128167592707 0.7185621413241688 0.5642920949922733
P 5.14683255667002 1.9268170184030164 9.744217481296486 -0.7390756878964884 -0.8628491083014236 -0.06227031879413147
P 3.8877496064990584 7.019070216831102 3.6823666577000647 -1.3590445076257756 -0.8931223053636682 -1.738802100974657
P 0.3375155304733227 6.4646690707073216 7.298017292334954 1.6144614952123422 -1.0999968652651573 0.6626522175304265
P 7.823164753941981 7.6342518692419405 12.860417471387754 1.3085161598589208 -0.9574219958830027 -0.33569505581202835
P 0.9469060510456033 8.604879625421354 5.06651195522943 -3.6440746470021437 0.7159139050680445 -0.5971150550595652
Ni 3.8747919837182025 0.5091660849958103 6.017785650696665 -0.4020971373863462 -0.18461086340728208 -0.26534170289944625
Ni 5.568029340606597 7.534293064932477 2.362891004380985 1.2599091974844947 0.780333923215327 -0.12196927731666092
Ni 6.469056151563126 1.205938185879764 4.766312527276004 -0.7453394094180131 -0.43406032055650406 -0.012046132531256673
Ni 3.1391599721144607 6.016131702703138 12.75397060024302 -0.17685667338315994 -1.2491696995798036 1.3469209848893642
Ni 2.9366878607187377 3.2058084304322794 13.276654262432714 0.88312045695595 0.9603995904540878 0.334662757892772
Ni 0.7003807988284221 8.322079508229166 0.057566090292922735 -1.811840971139202 1.0250060135805639 -0.8612133724702135
Ni 8.538221911658692 0.18060056968612184 11.552483357788478 -1.319933657667243 -0.9866325560086879 -0.30427386118826955
Ni 0.06639671021807629 8.110333441100288 8.835330021034398 2.2074897817970434 -0.6602950301521596 -1.0011117234614695
Ni 6.358268476786805 8.66767781868429 7.328306661129689 -1.6070292073040129 -2.565514354344207 1.1051727530391418
Ni 5.509969935103518 6.849427168295162 9.234633975738236 0.48146966307840305 -0.14617107137384502 -1.041283924804981
Ni 6.184830695865044 1.5569694424580043 7.434333335078531 -0.37072427950201964 2.2549297204465617 0.31051907076703295
Ni 0.011905278702153885 5.803765520769747 13.372276890833014 -0.5097893359587026 -0.2310442151691569 -1.0603522542903419
Ni 4.180712202129376 5.626384920344668 6.3556029086718855 -1.5625074707425541 1.136334780464243 0.08645514357045112
Ni 6.634728614261217 6.069220934325275 0.13327655465698166 -0.29344000379755913 -0.9082491337027777 0.6975284605823213
Ni 4.960650028198803 5.309941261146471 11.095337500535384 -2.3926074096374146 0.124400769576289 1.1520200524099835
Ni 1.5711487839581983 2.245195065573499 5.949932133460227 0.4943930560082905 0.9454077450309459 0.8185001498724034
Ni 2.729051211100359 1.2137312704379648 1.8877821797756869 0.03439853208452786 0.7702647119047832 -0.24376269117708987
Ni 2.3031711720729873 6.799855005713543 8.126182464850244 0.6435288664374142 0.1270294654483877 -0.10835580029828436
Ni 1.0717434910943102 6.791895323148161 3.5395616225767323 1.0804163720300684 1.145170119367686 -0.9027472300479421
Ni 5.742605541244106 0.5084996929670805 11.889122397635125 0.10913690143868301 0.08803174402895161 -0.8097015777441668
Ni 5.608003606885538 3.292929932743851 3.6358210255822607 -0.4767385761513208 1.9106371527735093 1.2747133523768626
Ni 2.8834135201997317 6.784148515814177 10.517845870616119 0.6232775723875459 0.4268429768724584 -0.25215734299868825
Ni 0.6478737346869394 6.750069967900525 11.197773987429446 -0.9793887299620809 0.553110367343841 -0.24773735955412177
Ni 0.40590493796619787 0.20003700385740628 2.245431079417007 -0.277473967386606 -1.0371966421094847 0.8705115099426879
P 4.004599597647852 7.9415789152693215 7.306131540829223 1.055820427858259 0.5570804077351824 0.28046801701792345
P 1.6172779210580468 2.205359630967209 8.579210574692478 -0.4088300852348055 1.7087351063859475 -0.7052695379803209
P 4.84134734416649 4.683893716489399 13.386853290916994 -0.3478450609110009 -0.6932663428718577 0.4056105498562434
P 7.2294002008989295 4.970210902722106 2.8772975222471673 -0.10853192086483245 0.5047360898055114 -0.577227829217335
P 2.1202835819660444 2.058975515322907 3.929057582379944 -0.3096032438209829 0.2782509547619466 -1.3088105511708878
P 4.6720837688691335 2.4177998564593484 5.716502410152071 0.3588730365903884 0.7447413708226981 0.10743534536654402
P 1.972316785253509 5.015062788433556 5.86797702046028 1.1744195031511064 -0.09766001114733504 0.15042161912008287
P 7.815889974295016 2.3664506484677834 6.137819514871612 0.795277689009353 0.7809350471344357 0.507296651443836
