# total energy = -340858.47368442244 ev
CRYSTAL
PRIMVEC
9.40867870606133 0.00000000000000 0.00000000000000
0.00000000000000 9.40867870606133 0.00000000000000
0.00000000000000 0.00000000000000 13.77055233013910
PRIMCOORD
 96 1
Ni 3.7291203891879223 6.004204756622592 0.7934602180333675 -0.9678529614083397 2.695265332488816 -1.431434431352412
Ni 3.9398465657561537 4.223649949691686 1.9921174150344727 -1.2135925738061422 -2.9438539842996394 0.27087137446842385
Ni 4.379711703084428 3.2676717429500823 6.1423683805477385 -1.1466919553288508 1.3352350639110038 2.1611461615354974
Ni 5.586308884030077 2.2337614506383274 1.4284058401401116 0.15945930384231893 0.4077275961992462 -0.06004991410404496
Ni 3.4898388728025465 6.692938853919001 4.530925164349404 0.4446301256525504 0.14390412971653926 0.09548768608636458
Ni 7.0065395232584535 1.8354356297162115 6.856248112504872 0.6085346097504164 0.8641153766083569 -0.49677209776342834
Ni 1.424445727280462 5.108009294262581 0.28483551598757256 1.0884029897799705 -0.640187203658691 -1.050517527588107
Ni 8.522418790025904 6.099815749446915 12.622529025076723 0.1387974046175932 -0.20578878303647782 1.0708510969391365
Ni 8.879214703220548 8.508559806318933 10.1991046068483 0.8566807747071827 0.13270748966977144 -0.9273557726252416
Ni 1.1060654491676623 0.7870002192463985 3.8665228510072347 0.1181488751293062 -0.8971116290287194 0.04530000948838004
Ni 6.221996850885279 3.6298023769606487 4.862561329865292 2.0482963300216017 0.6487546336127279 1.849576538016763
Ni 7.070396225511817 3.772165094184112 2.802541480741749 0.4425537027394959 0.11461257984127357 -0.8461310242157944
Ni 2.879883642158181 2.3580312787453597 0.5660797393200533 1.0014685925802558 0.7102726476218671 -0.07500807807577405
Ni 0.14013568297808665 0.3760564193362188 8.060207099946492 0.5610807871438273 1.8971727997384877 2.1279894722778705
Ni 7.036948372777072 4.35084587687059 7.111498979226867 -0.10685916114809983 -3.179287329675428 0.8744144445415198
Ni 7.772500055223436 1.9582471126266514 9.537870195620275 0.7493619003138449 1.2561620717372366 0.5005932712817314
Ni 6.462699077752497 5.189356730196363 11.949617502729403 -0.7619379372066426 -0.8141956089597785 0.05833267430262212
Ni 2.1683052730080563 4.398529060459812 6.872703891529644 0.6159743538579134 -1.8189058484057838 -1.4746083956367249
Ni 3.365625496767641 3.471106193535352 12.072160838297245 -1.0150440172718453 2.3746356556503425 -0.3663420912739239
Ni 5.3178134203194185 5.518585214836072 6.367338355781266 -1.919711861381268 0.35510559912815615 1.7117309557894778
Ni 9.511327372174428 4.506004397109315 7.548231967420009 -1.7785094468666078 -0.6145725884143802 0.16624033131989435
Ni 8.058796739011205 0.44609650522313343 5.029432714202324 -0.18481372344670752 0.7270439535429349 -0.7297361556631174
Ni 2.4755174495185663 8.856342205330769 9.523479621567452 -2.005199498832127 0.05064816117417084 -1.631297078712442
Ni 2.566405285641668 8.606071352238171 1.6369473215170607 -0.47965343580527064 -0.11307300326829559 0.2778233803062248
P 1.135006544811002 2.5404373324636387 7.806112559835214 -0.4184447255064342 0.6027321441360265 1.7505037056823012
P 0.47618263706276526 7.505030137489736 11.804998584356634 0.11041216860668081 0.7473561827377257 -0.08528657718364666
P 7.884830270075787 6.930959607360226 8.783284756188714 0.3995610012280538 1.068768760488811 -0.1648028275424194
P 2.456333153674363 2.7486890265370074 5.190960909912614 -0.18843795046285614 0.6248659999205883 -1.1134175095464371
P 8.004508662983225 7.73457367143335 4.973565861890548 -0.11585159445469725 -1.4209438162337336 -1.7505235031766433
P 6.120552477274588 1.4503384110289896 4.187597774696189 1.0353919848005781 -0.9597802117025344 -0.4132595817610689
P 4.1876523450325775 7.042819388278192 11.562816372331842 -2.2664562330289226 -1.4258559088233702 -0.8953799910495934
P 8.239151700775569 6.254127488603746 1.2284149659545365 0.6063566282624911 0.46102270807796086 0.0756829926556116
Ni 6.639629280474539 9.416017457068111 0.7884510375000405 -0.22290615944305484 0.16101250726205174 1.4430234217415923
Ni 8.245596645676638 1.558641711403009 3.00547821222444 -1.482871921197098 -0.8762553544050006 -1.7494048161911677
Ni 9.110715242331203 8.975870059379206 1.7595461682891587 1.0277007868039076 0.2345350019312348 -0.5730407877191808
Ni 8.273803864382337 5.831404963844445 3.743373596531906 0.6342682670710947 0.1680277622376203 0.5658280720208255
Ni 4.4411315575576795 2.7361378491676267 3.86309432849344 -1.6994076583374347 -0.7987311947755922 -1.4509367630513978
Ni 3.7837565863273483 8.566075059136793 7.163868625670427 0.6668456867864838 1.1142333205795132 0.22622391096237812
Ni 7.129247510703329 7.947906051998072 2.8624023171564494 0.1048498440275549 -0.2154414756348935 -0.5102315657024439
Ni 1.1758778450303349 7.332333840177154 -0.0032535210902037938 -0.12088298623101763 1.1795953909250911 0.3884767183894342
Ni 2.563385099782919 1.2858276641747002 6.8757193730490505 1.5262880833992036 0.316595615978416 0.23426580743024814
Ni 0.3547937463699043 4.763378802611122 2.2700479017331485 -0.9912361162189705 0.11944651089480719 -1.059303244200537
Ni 5.9762045288480214 2.8054327677024764 12.510794379585302 -0.03587974461574466 0.6695178343020083 1.3296549987200648
Ni 3.0754900720752913 6.400291312017038 6.961992252275839 0.495017834076483 0.8752076298667766 0.9329587206343157
Ni 5.442948846865718 3.5915937328099328 8.649737970895616 0.9843375893269241 -0.5634081497254233 -2.3381457882544248
Ni 8.881472786105594 5.2926640221872185 9.943247821218817 -0.5939438564204352 0.04286003258831973 0.46471404088661905
Ni 5.998465462623099 7.696063949564628 7.714538831035779 -0.1773423547703268 -0.8448758116524546 -0.46461608185617403
Ni 1.3709573889409348 0.5757753827077196 12.886097163758636 0.539886155344083 -0.06583103956219631 0.4504001953671082
Ni 6.2703574593400155 7.165950766264014 13.866946271743284 0.8476806280911013 1.8633039149051847 -1.243026305686227
Ni 1.670548535714414 4.928152992468666 4.397997470113958 -0.5722967104643046 -1.4075473403221697 2.064217629237548
Ni 8.15024909585557 8.48982712705174 6.876655536578475 0.4544905633863979 -0.33829392688745613 0.46872367626664435
Ni 7.474630696649804 4.264737649520836 0.43702936157180494 -0.3907434029364238 0.15019639048315422 -0.2331160100965211
Ni 4.9237403221641385 1.1103652153279373 6.144144739083975 -0.22068678319423285 -1.409118284353715 -0.4865324223132912
Ni 0.43310406082329994 1.9827379032507129 5.977576314200688 -1.3973035511069742 -0.06540835020248091 -1.3468273967342934
Ni 3.5381806638999063 8.218255025410206 13.276148051774927 0.14025316322751327 -0.1623263409774688 0.04266102920363621
Ni 6.328060885731628 5.715273642802267 9.493873332340891 1.1136234549096562 0.4131521096489272 -0.1708037823208607
P 5.27370553463152 4.346489658638189 14.145799749821222 0.28068141858031015 -0.9309913124952999 -2.142704152780226
P 2.9490750652274653 8.904665179070754 5.115704652561244 1.1416808752675047 -0.28355642613526005 -1.5594573710623207
P 7.742006527596626 1.898991254251569 0.23503726142935788 -1.5586127636738385 -0.664708585838823 -0.1682779305752134
P 4.90306945508728 7.81577056850813 1.8305195951018924 -0.4768033679509853 1.6597797595331674 -0.43969900689952013
P 7.147086365495192 3.789561741077654 10.262462649131216 -0.4837314625293863 1.1211452172079983 1.155037756190385
P 2.2850011147714966 5.579299418407747 2.608996492325111 0.5744399820595526 1.7794972647011742 -2.242005041965094
P 1.034775890751022 7.344320496825273 8.327645028172654 1.0274084523744693 0.19804230632183956 -0.7944551931080575
P 4.803384504391186 1.3457891734513594 8.327136018655649 -0.09292172513140126 -0.102734597456765 -0.061073727382869
Ni 2.080296492563388 2.724170009876883 2.9132844514994862 0.5776093809264697 0.9826324337103592 0.29266507330474756
Ni 7.999860775711506 6.181624210636394 6.755571487075096 -0.031452304972010355 1.666695512816394 -1.5521425825684623
Ni 4.961996009708293 2.5220339569505144 10.432543333768617 -0.38283700360515355 -2.0207425887730492 1.5432090275242585
Ni 0.657730619284727 3.047292262048279 9.787998036796822 -1.3369381626450396 0.5811701016945345 1.689614840616729
Ni 8.298802723655534 9.30585123831393 12.97053817324493 0.42678024195532305 -0.2176513388020187 -1.4071896998724345
Ni 8.332664558252537 2.576641928053877 11.861458183425734 0.7716464227436581 0.35454175620488615 0.15185912289755785
Ni 6.120100860697579 7.53460161460515 11.71364501863849 2.144540948878648 1.253039209837539 -2.046391399689405
Ni 4.208925367545449 9.134679146948754 11.00395214869738 -1.235372388685395 -0.21134288008548766 -2.155628317041062
Ni 4.134022876512735 7.3084452049891055 9.208257836890109 0.236322947069593 -1.01463726875173 0.4950620570508571
Ni 4.323353717745156 5.08119456000266 10.180349346752253 -1.0237456588109013 0.2353083897621496 3.5644483534280673
Ni 1.3091423699628 8.845757441807116 6.435805310591599 -0.842504997427433 -1.3843469909463062 -0.9734078297882977
Ni 6.024367555050315 5.884714537288907 1.7009112827074642 -0.05693939349952129 -2.1213177166846497 4.194667647240769
Ni 0.8483711485904739 6.549287147715323 6.005585950653945 -0.35689045894272087 -0.29537244493358167 0.7930775960342407
Ni 0.1045859314245123 3.1000279060927913 0.2971618259363175 1.2972914947876948 -0.6857571789790061 -0.17395595479659717
Ni 1.784995703271496 5.369598787816473 9.183540297109674 0.10959558624265642 0.4924295045240164 -0.6205573452429054
Ni 5.689804349594686 8.603267565989238 4.860550695229732 -0.11738114372534622 0.7856597063036146 0.32837358244995063
Ni 1.1815324609216373 7.312142815713368 3.7069497787282457 -0.00696306158139446 0.46281039610600294 -0.2808128019518519
Ni 1.8617987473991235 5.8389130894372245 11.487931757788635 0.6742921157621999 0.39764758625542485 0.7743093142878019
Ni 6.166852585096718 6.348063736621661 4.5979046070592124 0.20506707437910487 0.21891220779231332 -1.321681493596285
Ni 5.453608879818874 0.4339499010373234 12.512089013772728 3.492403985966308 0.591628320913381 1.8038348130052744
Ni 7.151583713907908 0.2657716512305716 8.461646252646366 -2.078783699977181 -2.1022439878826504 0.31797964081013624
Ni 4.051471129706928 0.3816686961734269 3.0577509492775174 0.44699811166409464 -0.13990503585947517 0.6882102685051888
Ni 2.701739719885426 2.1278385459722946 9.370984698265213 2.31868922219171 -0.4346403614296902 -0.6046064783406039
Ni -0.1290372055980855 3.278284732509799 3.9443269785472324 1.660987149577707 -0.9436992469802714 -1.0736913946014088
P 7.100287597702613 0.14841626109112416 10.649512168646131 -1.2100539645252644 0.4525254692402271 1.8673148358367906
P 1.0278322858795057 3.957657194511954 12.028122576831635 -0.13802890188268488 -0.41106385966133074 0.42454543908753334
P 3.6467662246345567 4.612397735709733 8.379807683685085 -0.2704831378910697 0.47963312409029657 -2.730349577786459
P 1.363383402597343 0.9532779159582366 10.594939009653913 -0.9131468281147113 -0.04750858710392463 0.8847873031354117
P 1.2343245570382757 1.4805967216886062 1.3949570465374987 -1.837829424783164 -2.6586793058346663 0.9035684403976568
P 3.7183380434118276 1.5610503331470582 12.5346453800586 0.011182241869064613 -1.9609518418676615 -0.5752593926370545
P 4.830942524267436 4.932433941271566 3.66967353463548 1.0706706054972142 0.7191969466946905 1.7793748801906968
P 8.361361028249997 4.140552499521993 5.409803012716849 -1.0626636760323376 1.454555847861224 2.761622676868128
