# total energy = -340872.91464679 ev
CRYSTAL
PRIMVEC
9.22927182145310 0.00000000000000 0.00000000000000

0.00000000000000 9.22927182145310 0.00000000000000

0.00000000000000 0.00000000000000 13.50797221978882

PRIMCOORD
 96 1
Ni 2.4594809378425677 7.752366758022902 12.883836307201305 -0.9820927591568055 -0.051192463713415064 -0.045328291623154195
Ni 0.5085134913341215 0.4609162911230729 7.512931761304676 0.6001476712383019 0.3734306226895891 -0.7362734425610029
Ni 8.257300214849565 5.542473015811177 4.824277853990192 -0.7917717327386234 -0.2984616253818666 -3.022709204035646
Ni 2.143581424768852 5.703514578380514 7.073247409816583 0.9194046360989651 0.3116907224776309 0.9088960232581573
Ni 8.821227176630277 8.233497923035344 9.165186444571296 0.231480274265311 0.5154609324221832 0.3518312992522586
Ni 4.731819932638632 8.78013845884939 7.911632608709705 0.28542407547161813 0.23950880099674235 -0.015450016006483066
Ni 2.873469150955651 1.3797115200399983 8.410131417280116 -0.30674906220163944 -0.39724469439005133 -0.0587597345377117
Ni 0.35045206060922457 7.487200551697059 5.942575789593321 -1.2554940991359345 1.3156247458792438 1.7380449110936584
Ni 5.5671613177123165 8.352980074965119 2.3407832740105867 0.9363304653200261 0.45502946660900345 -0.23766917668484228
Ni 8.048903258988734 2.8173828665993064 13.241892364796081 1.4615736739399539 0.186262282967776 -1.6181356016298196
Ni 6.861760493777621 7.644504259212206 0.02513130694459885 -0.7091004816906368 -0.35703341227848834 0.5491608957777897
Ni 7.373071377375756 1.4656083521124852 1.3524048737465777 -2.0784168035560655 -0.7818408467781568 0.4282889652903656
Ni 2.2729296681873437 5.352303871634365 2.596907562813982 1.160206444875518 0.16847770529084533 0.1768111648572052
Ni 0.6827999817757298 7.88776017443027 3.405062282126849 1.9901035237309532 -0.2935580174326622 0.5720964215280405
Ni 7.589387048388428 4.999727232670882 8.807481099302592 -0.6751644910648242 -0.013992971844982351 -0.693804731873831
Ni 4.142383263772032 3.4746546827456712 8.018845366789995 -0.31231447210455887 1.790190739859278 -0.032263745129712175
Ni 3.242104722744549 4.988338311345273 4.928829813028202 -0.19517526918668968 0.2868389535412737 0.2771492370573356
Ni 0.2360607749705408 3.6319768488042947 9.202549305351251 -0.6483576552846253 -1.2269635957964093 1.6566144744313085
Ni 6.978778430153151 4.073172955003194 6.351989052705508 -1.1905308068906721 0.5076296093032227 1.1534436722303878
Ni 3.7649983423748066 6.343361529484131 11.435025229653334 -0.3275215188623004 1.3752221458269025 -1.5631026811243918
Ni 4.767491067908876 6.546645468801699 6.211370945566837 0.9657510845739885 0.036345885618885784 0.0921388242187897
Ni 3.516278698287405 0.599613786812912 11.509129821225228 0.0018283114579903997 -0.6264328301870761 -0.438293127690929
Ni 8.125681570583343 8.376330132464142 2.0498350970825636 -0.09412885806562499 -0.1292886937962096 -0.8003221934117958
Ni 3.373197298521663 3.2109743891697664 1.2402046172186716 0.25356347931759554 0.5307430553922343 0.48982369147005317
P 8.205865483449546 4.304227772982641 1.3422739021589587 -0.8336483183677514 0.09941453194459653 -0.48237623405307245
P 3.635031737749819 0.23153012547399157 6.256393178962777 -1.350837546334951 0.6235958749589132 -0.6220771243215416
P 1.670719687234323 1.2473453047629375 2.7933406137198795 2.733245925497647 -0.464230159271665 -0.1863684695283371
P 0.6674000189524621 1.223275364068294 9.671154502759872 1.8319320854621226 0.04653413900579728 -0.8225663495219769
P 1.119252242300915 7.199274961263474 1.3392217819949563 0.6030496753764453 1.5599772481215326 0.20070031276997694
P 0.32639873260371094 1.8478478704442904 5.586046253544134 -0.591268366470801 -0.15965984988889922 0.5711826514645196
P 4.799756601907524 4.900955566522848 2.055143774186689 -0.5655465362246647 0.23956433682502618 0.46645184951333213
P 4.669236240978212 3.4501878833662625 5.860055025122866 0.7875715786143469 0.08340170145610798 -1.592123493836774
Ni 5.951200544033177 3.5719958117742006 0.5934550937816483 -0.004035346411638212 -0.5236126149950402 1.1420855669050909
Ni 0.8324600064368483 1.2919872921632403 12.104466763514406 -1.4064088558423522 -0.7949367607301664 0.5928472809221468
Ni 5.471527603955455 9.29443039721914 5.187790257036912 1.256702517621739 -1.1294907609592162 0.06247986370177626
Ni 2.651126765497579 0.7819611231911388 0.06690852839719567 0.09235993909066029 2.2914944069444725 1.0475299057146927
Ni 7.007758343412807 2.11031912942242 5.093262210034353 1.157985011744167 -0.5632798516776751 0.18393106373143808
Ni 7.760220868272572 5.2869790862675385 12.869612153597554 0.03175466670377757 -0.6559367531834639 0.8798975791432783
Ni 3.1844586914643562 8.470865562884093 1.584796090273794 -0.18335719350583904 -1.35688580941156 1.2563980990074426
Ni 1.7632892827739215 0.2440477867332495 5.039338344046396 -0.36827196130678513 1.4584680384314366 -0.21021365157705083
Ni 3.983556726419994 0.4642960504338009 3.5181780824112385 -2.1432217158465927 0.3981908603534045 0.38501858463750466
Ni 1.1155236165184625 5.4602309753472325 0.21678913265287028 -0.795333996168585 -1.3859565015252713 -0.8147890195694033
Ni 7.39831343558122 8.890382109768684 6.718203786517333 0.018524798277064873 0.9119080706116037 0.92587687408687
Ni 2.174564089995814 8.067398719553177 8.304525475409541 -0.17458201841637028 -0.1922411262590302 -0.37718186220190525
Ni 0.3002642038211107 1.1209965746595376 1.042891093788898 1.9095842860289631 0.029904757979232366 -0.7674267282353557
Ni 7.309758573247975 8.30934407818434 11.115399859578687 -0.3806821620456799 0.3015317796667581 -0.4731074071566368
Ni 2.593683778195639 4.6203949349367806 9.978460640917643 -0.6147430525539735 0.37841881993279985 -0.3458825378679914
Ni 6.439142911588812 2.6265399855855662 9.17160263428407 0.6529601870536431 0.10672057868770651 -0.7994354199314684
Ni 0.7145108365428788 3.488710863603778 2.4880464568011535 -0.18241179887343423 -1.221919605614599 -1.4664178894061326
Ni 6.5124048706509585 7.4043124622114025 8.579736821095834 0.149937994615445 -1.7788688870885558 1.2070578580114182
Ni 5.732180696401051 4.782922410256055 4.422186172148349 0.019050588873547835 2.3396054035190867 0.7083780017023155
Ni 9.359773641129443 4.797569264505442 6.598698561408212 -1.2011067826343056 -1.1368603139504099 1.1153895456711436
Ni 8.066734211987987 1.2518584186431831 10.646024940907054 -0.936454135382084 0.7577274986697209 0.24809011490785018
Ni 0.5059505225722724 4.048641550721614 11.72886401448993 1.1202373606817482 0.6115163180865597 0.2925210915277156
Ni 5.218664016857358 4.685313632347103 10.106475254569887 0.05607113196195505 0.0526263679464642 -0.08118026832475696
Ni 9.250222185590557 5.722628400151453 2.580063218963601 -1.1720247776666848 0.7299935230895621 0.1933122478360219
P 1.594587424661427 3.722156062963559 7.767070833757068 3.3003742043871354 -0.5249429037706895 -0.9275511764654992
P 1.5591562504563903 6.381339982689061 11.23364805787699 -0.16372013600120192 -0.8260185697366355 0.3768820715732993
P 4.239022968148417 2.4741831677223867 9.928791469201245 0.014023053751969397 0.4100801555918228 0.39462654004091396
P 1.522562188012272 2.961027251941112 0.09126919115160942 -1.2208155739171425 -0.5770830761093545 -0.284446027829065
P 9.155695984442346 6.474343354000381 8.077469700874493 0.20400932253855186 -0.08122834795387301 -0.45166929188751886
P 4.626301668849577 7.7632572986746196 -0.10760777091070724 -0.31889186821176047 0.5646751893633049 0.6932678855337544
P 6.953204118165092 0.1760455896350127 8.795567032415049 0.12867497147161067 2.5823465954101974 0.21524941422874544
P 7.904345175744792 3.8394877945782064 10.735325528396789 -1.298845983759008 0.17266963188500586 0.031113433575352865
Ni 8.257835512610411 2.3906767170302343 7.356644196607966 0.07820807307031045 -0.4733583468251783 -0.27547313490649333
Ni 2.5357424102198065 3.059088264165263 3.7969020889212954 0.8149713107835383 -1.1352582595706127 -0.39234828552969847
Ni 8.096517071888911 8.820571898336826 4.508312813087131 -1.8772284954060765 -0.6790334871019273 0.08159267327182722
Ni 8.941290772679592 1.3487196255412972 3.362134170488431 -0.6916457765492992 0.9803518652062988 1.3233784216827338
Ni 2.6731847249531766 2.591810236032674 6.128364721402925 -0.7525688372869168 -0.6796898897390037 0.5970656898788684
Ni 1.5535263946957567 8.583019673053304 10.733758398055551 -0.007278535939284239 -0.23853203890576982 -0.6504819007164798
Ni 3.467382016615541 5.810537213462986 0.33985501079879915 -0.018309082721832983 1.28720839952008 3.0057928878962814
Ni 2.209284610276968 2.538234313589267 10.865474872602206 0.5572297888288532 -0.7091562746292367 -1.6478817225440006
Ni 7.590494560997078 3.6979292246493567 3.337144071401435 0.3447731068538965 -0.22454858014248424 -0.6035217299168574
Ni 6.794054556302197 6.208743371902816 2.4696755914051844 -0.2563006757431005 -0.7979740048945935 -0.7525770648170329
Ni 5.660773820958393 1.864783584084885 6.983742855421421 -0.3595844608351162 -0.8618546055986382 0.17502604793232437
Ni 5.472995058161915 0.7032631230748719 10.324791831695519 0.5938284138884934 -0.8882122696565606 -1.083492954072863
Ni 2.6988790174738386 7.410182279037243 5.646062361806835 0.7720860813842381 0.7528550010687679 -0.7482383282323629
Ni 4.778815384332315 1.2743593831422402 1.5256309208654042 0.8304272403272923 0.17900405874346592 -1.0731131535004357
Ni 7.221868218479919 6.4942324345973725 6.524120508196121 -0.17046722491704835 0.38002267408481005 1.2989840519987694
Ni 3.764906049657419 6.291483793040653 8.77531893314742 0.7739128501803316 0.4746845218357696 -0.026610917719309006
Ni 5.945090766142128 0.5509875228029935 12.725995456070963 0.039979625716731144 0.0034738174812133722 0.4343277152852778
Ni 2.942033410702778 4.12918540518563 12.428793524612768 -0.01307663067830006 -0.5146034695178945 -0.6611782040880613
Ni 8.579614071781707 6.19564703530554 10.737446415042353 0.23336206466905618 -0.8115638277638861 -1.3582420663291381
Ni -0.12672436146316687 7.400833026765897 12.61855288912438 1.4918062475722502 0.03228225707247343 1.1287230295552562
Ni 4.0423656459392685 6.799453680269363 3.4060082824800704 0.850647424028909 -0.1638908572511113 0.3401880585863754
Ni 6.2090663964136725 2.801822314447785 11.51239882927509 -1.0342519576588638 0.2901155674100165 1.2640872401215844
Ni 5.137243381578162 2.959892051517247 3.4143155499721134 -0.9140590555163355 -1.8309447818481885 -0.8620001300375671
Ni 5.099163406384105 5.06629796972244 12.637018816019259 3.0651827998188246 -1.0492312046765155 -0.9009364020914483
P 6.493724824651743 6.916628514264452 4.470787517124573 -0.7902367841513358 1.5661427535022963 0.47688230081803684
P 6.640257972047774 1.1459432961693614 3.281680762887455 -1.770169816652661 -1.0921876536333834 -0.15574945909089952
P 1.12281474119207 5.9164800237520225 4.86908319950027 1.8814687587396692 -1.1915571912726577 -1.8112007664520418
P 6.461459290653094 6.481643707945727 11.6263794123214 -1.0038949426335615 -0.9609513491925 -0.5603140841811318
P 3.9008716809125903 8.248200152915164 9.817985755633066 -1.1097385180329533 0.12050631961788923 0.8831194285146854
P 4.476852071584101 2.204586910961947 12.857616869118708 -0.4509388414793975 0.22691656615402858 1.1950549200132707
P 5.586810437244101 5.463571971716658 7.993139999143245 0.19109132892530317 -0.7663329809505447 -0.5304730895602993
P 8.260881172284197 0.0976060091274308 12.941029181239125 -0.7000630540787169 1.4816575891740225 0.27194815247237036
