# total energy = -340888.05122995423 ev
CRYSTAL
PRIMVEC
9.10136696664020 0.00000000000000 0.00000000000000

0.00000000000000 9.10136696664020 0.00000000000000

0.00000000000000 0.00000000000000 13.32077053594994

PRIMCOORD
 96 1
Ni 6.497211035610256 1.9936453315711935 11.232006978812388 1.1125600466421486 -0.6645057257993975 1.521989713134166
Ni 4.543766441908444 0.702195944914818 5.958820583133593 0.9354359785302148 -0.8582833433076121 -0.44725393642864264
Ni 2.6254167192105546 1.6890771875682609 4.720348433287289 0.7025739934260288 0.619784728742939 -0.2643019487810222
Ni 3.4038202299682294 4.427305350267829 4.887350325802357 0.7200289556776825 -0.03479859573642394 -1.397102747950078
Ni 4.160025506706566 2.6196191484560165 2.2817017756323943 -0.468367064258174 -0.19759801969556937 0.7672074131356981
Ni 5.168202127776756 4.598638583319921 2.7397362592051047 1.1143153387703582 -0.13322890939088022 -0.5359935051578963
Ni 5.17841386150767 4.76460200986467 11.376190834218033 -0.5037904380627904 -0.3515927008788912 -0.13031584950914332
Ni 5.801384227295165 7.9726063296541065 12.402143335100922 -1.3709775116179357 -0.02187083193116233 -1.3450571922077479
Ni 1.8650794218716529 6.677936879366718 0.13251408268748208 1.030189357553716 -0.7490716227669357 0.44811654153925407
Ni 3.0443526404529346 1.9951106516520107 0.2813023196389985 -0.22934471597954695 -0.8731083241355866 -0.11232018426267107
Ni 8.213619628164198 8.979108299203364 6.865511501761783 -0.8102121988319981 1.3719429608549985 -0.18496079054753306
Ni 8.865040867073649 2.659756176756666 1.2223936749719428 0.11601665927765181 0.980080356712467 0.4054948502139855
Ni 6.97168349805231 0.716111024862406 4.495427261702002 -0.11040625506940986 1.1663256703993785 1.294133151664371
Ni 0.8001011695941256 7.696580072442748 2.3392205945563043 0.4152683846609816 -0.24101469611830753 0.4669146480823636
Ni 7.626781689214249 3.76098517364224 3.8444938560616913 0.6108262339980707 1.2176518314771803 -0.4615143030023987
Ni 7.547982054060728 3.8438531198275943 12.53560395995241 1.764419030211813 -0.5621709348842125 1.2441545057533991
Ni 8.364037919938536 7.44145965514218 8.699661748287836 0.10601918174530772 -0.12947509877540284 1.665471667711622
Ni 6.981076108756681 0.8010568131250935 0.12713062412969656 -0.44621109698642514 0.6408307507799609 0.5445529646921331
Ni 1.989486006869743 6.504683257885729 9.192796563684647 -0.494821916015593 0.6075910148902246 -0.25955826344844973
Ni 0.1317295448553923 5.256212346295414 1.48415991042787 1.06304008553515 -1.7354241856413597 -0.9317796127245502
Ni 6.534499336051925 2.0878353782567767 6.796856250223661 0.3856186801153488 0.053199723951430966 0.5543354980001938
Ni 3.637652549945618 4.627398902918572 0.47655849574965226 -0.21168200859246125 -0.17635710803892207 -0.04096692933066493
Ni 6.140264524743324 6.116027584524587 4.748268696715385 0.4879989795564886 -0.5942896697956281 -0.020799967464486757
Ni 5.403354145963577 3.0215628175810916 9.489197140976241 0.20326344551146283 0.14145669661731122 -2.4212209596090495
P 0.4129581434220018 5.340982478175743 12.541172176259513 -0.6060354974776466 0.9471416970029173 -1.0404593720211566
P 3.931754121942713 6.321236105407749 12.351178410526057 0.3607972501962947 0.5250354634844957 1.2969760204298049
P 2.3438659322535047 8.793276588581445 1.2688151971595762 3.2557241697779284 -1.9617815368578084 0.40114042990003174
P 6.397105100399634 8.093718219812098 5.871329142531746 -1.1966153225218554 0.5626075082009989 0.44630519936212815
P 4.740101130004048 1.1150903787680888 12.444530221314476 0.9761707372454156 -0.9400058572890844 0.9180056988689093
P 3.9090098059056784 6.180456161245743 8.156427548314209 0.6440353737601876 -0.08460497773558977 0.4504305343844114
P 4.617241777389428 1.047030356629255 3.7116857992213492 1.1505236703701154 0.4730714117123788 -0.6200153566965063
P 0.3420339211003531 5.921176419243724 3.5902544510830054 0.5525647792530161 0.09396327902203819 1.099086694746062
Ni 0.8014172272567728 0.047329838610400764 4.28754293893213 -0.5107285599435204 0.0789313243895802 0.8461829604996524
Ni 2.24386011207946 6.662373541862385 4.798034971261406 0.12889454368158446 0.40043517630289105 -0.9710969222669339
Ni 6.146553569313789 5.544798489913779 9.268432563682316 -0.10455365294337478 -0.15770169772126388 0.2184193273162948
Ni 8.729102850135215 2.2959654379346115 10.156954423445066 0.7314382259558886 -0.0018532511586548729 0.2085519476039118
Ni 2.3784966335423867 5.168884730298876 6.814106981162674 0.1162395739217353 1.4729803731149986 1.799084442804482
Ni 0.8653934660399372 0.09193654822589126 8.801060077607005 -1.265714234202046 -1.2858002063186436 1.3780768416668783
Ni 1.6181593362034852 1.1328016388753595 11.375672056301221 -0.583164249306428 1.3720164944054114 0.20104869724833116
Ni 4.529477295778734 6.817451733521062 1.4232180673897026 -0.17195486520616834 0.45499964181233254 -0.5925822001862181
Ni 5.745219691775141 7.492609337466363 8.052712010966616 -0.24380974236494138 1.8898549259208357 0.5945812328941179
Ni 5.400223275728788 2.893643104935825 4.713421382892817 -0.2986194911159696 -0.17574595681748442 -0.18176362376647406
Ni 0.8859498134594036 7.576041568403337 6.471962933522086 0.11054638019169993 -0.605158494189332 1.1253661972678812
Ni 5.038935412821172 4.746763330619937 6.760464434427709 0.2510347993584709 -0.2903173990081774 0.4638789465798333
Ni 0.901734314180904 7.732257430932213 11.370516131917475 0.37697900216247976 -0.9559518390953796 -0.6124151757517452
Ni 4.927507377110322 0.5989236441382558 10.217777038576038 -0.8892052296974492 -1.4888813606159712 -0.5350614802619301
Ni 8.110910702002558 7.571727520463539 4.777987390255093 1.2243143310990205 -0.5212579987199345 -1.2593849495499085
Ni 7.285644252759613 6.3221917489387165 6.928519355100233 0.9226272568013207 -0.01977718262692723 -1.660126858459941
Ni 2.392794881039058 5.650383448035284 2.564940866160821 0.7521615745461692 -0.1923534834671784 -0.25740599299213734
Ni 2.472759491163663 4.953227840143799 11.302673632449023 -1.2285270836287874 1.4576807666434508 2.102820172101094
Ni 1.2203476876789756 3.6492840969225413 3.632720519189128 -0.9255907103050187 0.12820523092404373 1.1373876472087896
Ni 1.829984550867729 1.3536645109324705 2.53468974265386 -0.018359990564426446 1.4936918946307371 0.17716443443156585
Ni 1.2519203296687609 3.3395827819532666 8.160516792490055 -0.6914159199266802 0.9603044596371202 0.2836718686672018
Ni 3.5137283373964934 2.767680186187301 7.00296853684611 1.4625576351197778 0.653529686403868 0.07585602789836614
Ni 4.277942817061035 7.0761398866705765 6.184407064643773 0.23402900882909375 -0.24571544402808654 -2.1852096302426043
Ni 0.7610444735518179 0.6516078169321651 0.6169379797653478 -2.0482626485701885 -0.7862099223801299 -1.151826705452255
P 0.17857883129022065 5.65360533193969 7.912510913743368 1.1654872336584832 0.39203795337813124 -0.13676083380353865
P 8.72235873721667 1.9280699826128762 7.878516398005102 -1.7729000710996305 -1.2375958786992751 0.18758048755856727
P 1.8815893015399927 3.158720417692381 10.317669091663062 -0.524446166639929 -0.9161074534049319 0.08793455632945502
P 4.412397311184731 6.322164444837832 3.6175885864787745 -2.4908484900992005 1.252999614848855 0.26269243820205723
P 7.135744738902085 3.943267351149135 10.490772540589186 0.1631940882944028 0.856727311674402 -1.7718567174367807
P 6.618559561309249 7.803985303956572 10.090123995982745 -0.8365935170390044 -0.295339277702801 0.14440086684729972
P 2.574012198611446 8.79517877427642 5.664951095994018 0.17737860732490096 -1.8954848705131033 -0.09619242546287304
P 7.135790245736893 4.33917681397867 1.6157028772605495 -0.5244919322762 -0.5348969296596078 -1.000611129675967
Ni 5.369424249930738 3.0155195099185903 0.051890533594857784 0.4820355628842021 0.004835473715430382 0.5631464114236043
Ni 1.4737661493577245 1.0996635617681791 6.842679812601917 -0.34043539871049117 0.7459942693931927 -0.9663704633255422
Ni 7.127935766049034 0.7206680793000784 9.085964718289404 -0.26651541149257324 -0.15190797385762225 -0.6564682002069018
Ni 2.6347820258140393 1.4900757989529092 8.848668418046431 2.098306600501457 0.7578054030955078 1.7991206953590562
Ni 6.81078043153821 2.227113596870119 2.2857109277789784 -1.8090857769915685 -0.515894420415176 -0.19232237311892683
Ni 4.285633472143586 7.174980731873536 10.33924934286571 0.02526520232469197 0.06427783614246349 -0.510196084478818
Ni 8.609920449773082 7.339933906685548 0.32814159457016906 -0.8744890065331972 0.35066221864482194 -0.9191444404590429
Ni 7.545397265843635 4.25160346107417 7.734611954565179 1.1791343921282724 -2.3985433155058757 1.898597705110472
Ni 2.884177683295762 8.559553485007596 12.52280288732092 2.113953305899779 0.15789787289247 -0.4349668915311734
Ni 0.15102808336076579 4.755418730600417 9.972208505901666 -0.023792217323591283 0.42382810130553455 0.3670517157464388
Ni 8.782609786502451 2.3491538264581933 5.589368794061423 0.22906857950002485 0.4932941665171569 -0.037952310874057225
Ni 3.905214535882692 2.6392416956252225 11.234884831045646 -1.4675273204202273 0.6608850983276747 0.09724400665583897
Ni 1.269731704812609 3.2527193356717707 12.778175412486325 -0.7087477263369084 0.6016257984457252 -0.5930637678083269
Ni 3.5348617114813248 8.473463654917834 7.809022000433121 -1.4961786656083331 1.1383250714213944 1.8249217155825601
Ni 5.782462485382002 8.275718254943184 3.2109449714547296 -0.8585841623774825 -1.3567012042045796 0.39609515416664043
Ni 3.385926942521727 8.400962165701742 3.153478940459197 -1.3859086790064712 -0.633444999838851 0.9831307135030165
Ni 3.481400281948895 4.4012845421246185 9.39633862427714 0.7167479709335656 0.0365950255152144 -2.094942312014915
Ni 7.618499445279194 6.12122446505966 11.416606364347706 0.6057562756743309 0.37850263789585786 -0.32064304657491227
Ni 7.813214090055632 8.930825547472084 2.4462663220751457 1.9757752800337394 0.9800284204286088 -0.3058149804231443
Ni 4.667235586109489 0.3618821821702071 1.3367259568802397 0.13991840559591387 -0.15864554969177191 -0.8149358295599126
Ni 6.217480522045526 5.612303328667956 0.0011695256545654095 -0.3752877305029859 0.8304421527256278 1.7712694774747428
Ni 7.976829363924288 8.856303554790514 11.400248477507624 0.22676384262624816 0.04684755648115803 -0.24767385330603797
Ni 0.25360048901798105 5.0841692066203175 5.723176180994149 -0.9314309711358797 -0.19885606047238655 -0.6537518297170031
Ni 7.529296947688566 6.346082837212913 2.5229671820073207 -1.5685462207374663 0.5711985923041195 0.5931367871381075
P 8.74757862506726 1.89017189058478 3.3443655502915868 0.17210013253478104 -1.597287811646533 0.4227654643689751
P 2.027029145586337 3.571403699832143 1.6932164892623958 0.7784673023202334 -0.2470156508967488 -1.564834576213834
P 4.83645730202649 1.3424971336705893 8.070601657866334 0.5706874569956559 -0.23035233130845492 0.5079013749073704
P 8.742645684174073 1.527236680257116 12.45867647598289 -0.9261630378687211 1.8852619072335146 -1.9516367351143225
P 6.57170572419094 7.937447749081453 1.024700152788973 -0.4415800259723169 -0.9357715074927626 1.1305886220090853
P 1.7726004321748503 3.2988359620661907 5.985502150518214 -0.9856033434132252 -0.15802359983705688 -1.8800430820367364
P 6.9540086434128865 4.242138039434107 5.753134240484946 -0.6216629196022584 -0.049236111317992624 0.21220239987230552
P 2.653485334920124 8.826132523312817 10.164080793775998 -0.17906447966775613 -1.8463744861396976 -0.6155107839579335
