# total energy = -340860.2112949587 ev
CRYSTAL
PRIMVEC
9.38600121277035 0.00000000000000 0.00000000000000
0.00000000000000 9.38600121277035 0.00000000000000
0.00000000000000 0.00000000000000 13.73736152643269
PRIMCOORD
 96 1
Ni 3.9099078010377304 3.982546065312065 0.46047347073176687 -0.809161903190613 2.1410979846353704 -1.628529543269634
Ni 2.6608750603680322 2.293197230361764 3.439862486152072 -0.037052938988239414 -2.3919368659329514 -0.8162512059372264
Ni 6.269332656767075 5.24562026396786 8.828562954357944 0.42374916843848315 -0.17876417481851795 0.9836883857786994
Ni 6.323217690388855 6.373817623545974 4.0633604753428765 1.9824562915983408 0.02279565773827687 0.6145707886421674
Ni 3.976435778447794 6.465659646536587 7.422104445021123 1.396405721883053 -2.305918038568971 -0.3122954459411654
Ni 3.3723902770084515 1.1570029976525322 10.799132345285544 0.3910959011798361 -1.0393563687649647 -0.8355596764578513
Ni 2.5241585650301386 7.982137109035061 7.7927247864435945 -0.04084737303366513 0.8412981216035252 0.12351553875785826
Ni -0.029956361837183896 9.09514791846511 1.4625342356684623 3.2475822573970845 -1.9561117401665407 -0.11178256659164619
Ni 5.377812706665849 1.9724587929948485 12.937847256996523 -1.5287619988609928 -1.4315627294001603 -0.844046887993256
Ni 4.225765517714292 8.990644179683555 3.995071684083754 -1.215499818131184 0.44930490542040036 0.1357843288228823
Ni 8.394511077363383 4.55096230571182 5.2145103625675135 -1.9971794567411283 -2.169802037438282 0.9854074253523353
Ni 4.63756693996163 6.51150087702061 0.2011082188457943 0.200400522141371 -0.4187997948530078 -0.575804466507247
Ni 6.5458442558783165 8.171997143889854 13.501010152453217 -0.4182341521575248 0.10081064096117476 -0.04369049890941507
Ni 7.021245223121507 7.688036143435888 2.1384812002779228 1.9153191316302112 0.23669729968987624 -0.5981573802811505
Ni 6.567863814992878 3.5023676233931242 3.7038813174962715 -0.8059053439265282 -0.13273217226011977 0.3387968346658037
Ni 4.666344420032067 7.523480768160319 9.623434310188689 -0.904976633599093 0.9260982460690567 -1.464501131999394
Ni 0.06655425821378104 1.1361379167012664 8.553238684414643 -0.9497490527187771 2.977282182051098 -0.08511842703689856
Ni 9.235262146283596 4.273343158443921 1.3135230171915393 0.6708681776823157 -1.1309791725792846 -2.212096684441436
Ni 3.36714350226632 0.05284600327481404 1.5593555323633708 -0.4654216084766049 0.5046916097208212 0.8137564645398309
Ni 5.685101004130306 0.8630522080746009 9.240807395867945 -1.4153336691358076 -0.5742962573928367 0.507390753819539
Ni 3.9954330451348667 8.928743500928 13.166904171995528 0.9483945955734118 0.2828154342041775 -1.4780840128901513
Ni 4.774865367381835 7.595246134311186 2.2858836581272945 0.05618631738358065 0.694018904767166 -0.6739403888497362
Ni 2.456476109456779 0.9747550098744272 7.678800318129524 0.8195422179836724 0.923517629826074 -0.5222507016505069
Ni 8.022281036713228 6.434216542089111 6.236762293560153 -1.4963259898194745 2.4080692527184397 1.4296112621007442
P 3.2913046115392723 4.057737321947508 6.595348842680503 -2.0067295623234083 0.5901201117989708 1.241072781504282
P 1.357121931958397 3.3840758486613196 13.25232335427766 -3.6140241074736656 2.415421322208137 1.7293707803584282
P 4.575084329123764 4.734646351693049 12.036869033357469 -4.171601766560241 1.2938477592134685 1.3046214527902047
P 8.764826373742707 7.271241368482263 13.93985076732512 -0.22336535846766048 0.09297109031209795 -0.39146871113822257
P 4.3143412122428995 3.6683684428731453 3.0856995594574226 -0.009876378573447506 -0.02516492930140182 0.29434323233811893
P 7.6876700893841114 4.984079336974149 2.6025710973212157 -1.2754355752548678 1.253261353150674 -0.26336606723031414
P 7.572475695090415 6.169118320592237 10.580324005136154 -0.9138345982103552 1.0265890417969674 0.9981680674521133
P 2.493522656696836 7.206543661331082 9.961840017854556 -0.07195566440269542 -1.773341015291791 0.6825821236851342
Ni 5.01856350585177 7.75351288869726 5.795147176695811 1.1071977538889706 0.359971926081522 -0.03691872740322029
Ni 0.4861995617705992 6.514523169448099 2.3121625846443226 0.11146452113059514 0.029093060711214414 -0.30215038708736347
Ni 8.192599416803946 4.07979442506738 7.534448310711624 -1.4766490802158374 -0.22565929670815973 1.161686114744838
Ni 8.990381371646382 7.994385840767586 3.893552693724379 -0.240761699567237 0.833217658588236 0.7656434110826877
Ni 1.3633448508385988 0.5027301873087769 12.05700763780598 0.42483340264159736 -0.3235427367202105 0.3169848809970347
Ni 8.418848978805864 9.126243740863464 12.412667631712381 0.2106201429868502 -0.3077430506837926 0.6054197182705187
Ni 5.18903206196373 3.5841760109645286 5.930831211887667 1.9116272846009206 0.647909254893297 -2.0259943240902913
Ni 4.067395517313614 6.167747964398407 4.022423430552527 -1.6905941738108625 -0.7621899053164486 0.4025555650800035
Ni 0.8603405922910559 6.517733181902139 7.071183443185028 0.3649061301583457 0.3362370443584274 -2.2751640452155657
Ni 7.95055321456767 4.147533196648705 10.150494890138884 0.8011945687144202 -0.6175854070987752 0.3826410855442636
Ni 5.214026983499142 5.387405200022661 2.1106498291413085 1.325584171084801 -2.0405249136062986 -0.20803438453754491
Ni 7.207979719534206 1.5401677298493481 7.436295140428329 -0.41763199979715165 0.5398743282695412 0.265565131764162
Ni 9.63069438221559 4.2894683087247465 3.5202404471211497 2.053296097229038 0.9219795959149928 -1.366835207314788
Ni 0.6620218930398257 9.288189807769959 6.803318228496776 -0.10529952997046382 -1.322273104433697 -1.9311779530393387
Ni 7.159454092670488 8.279532561100222 10.189124855802907 0.4626101071697387 0.3851216858742722 0.25063859236131675
Ni 5.401183849971585 7.025478309720256 11.626245554276746 2.205739117654524 -0.27026228012951514 0.8074965996730481
Ni 7.623620016324535 0.7868388158945817 1.0317064501299356 -3.853380956273577 0.9151232351147917 -1.6708833256454967
Ni 6.665403140789348 3.109572853834186 1.1229505848359813 1.09227224292739 1.452856862892246 0.6640766086817789
Ni 4.20754728913741 5.036199802346339 9.72760484592311 -2.2543342529544077 3.084421079223146 -0.3924323606030725
Ni 6.200354933010506 8.390165358748702 7.864790504636946 1.0445276285532592 -1.0558209420788915 -0.5526061740139128
Ni 6.5458442558783165 4.700884904917653 12.08439974408046 -0.12959516929303488 0.5714536457377192 -1.1332551130976547
Ni 5.774624684793001 1.1944062129430377 3.033855042524264 0.22509571089520589 0.24154048671479048 1.3449890579739738
Ni 3.2329330692828977 6.7981775155696464 12.164392878995107 -0.9527225335248044 -1.135569363053128 -1.0302644337660256
Ni 1.0392180669924178 7.300591394633684 12.099332872192681 -1.4198762942011676 0.7024387533997452 0.5827680423092737
P 6.847303846518332 8.739878382213934 4.027011308001461 -2.4633582550987314 -1.696841183161839 1.4483610319044218
P 9.04117841083138 0.4287694354473829 10.49534408771615 -0.2615459833024399 0.16960590535801756 1.548914819659784
P 5.552495577373904 0.13796483351446487 1.2226496295379337 -0.7601700466729425 -0.777032883866552 -1.6087911843004423
P 8.436682381328312 8.399448114061704 7.9154401836011 -0.1322680881395077 -0.6329181808011035 0.5189604609350095
P 1.9448076330837243 8.418989768825778 13.969385697702695 -0.38621543315908324 -0.026792437602495795 -1.5978172017874417
P 5.284834977514594 0.15978822520127908 11.318445719739932 0.2867258250021772 -0.5666415690610563 0.22493835938173518
P 2.7056181286967247 7.412266038429527 2.6551984067650967 -0.6099816266095882 -2.061542139287914 0.18980372046213118
P 4.351763199536061 -0.026055539685431284 7.416815433273017 0.287477358456221 0.5811073667773993 -0.05035505541378425
Ni 4.885432463021021 3.271753570773871 10.51101870993325 0.9111441958623857 -4.17417261261121 0.9814340425268839
Ni 1.261900948489845 8.886309388925898 9.467363880113274 0.6847271950525949 -0.6963066723600781 1.2285227127534133
Ni 1.3793667551048205 5.228274933514447 10.8556754944833 0.2125340721801114 -0.40653280456019664 -0.763484455758156
Ni 4.59701002822505 2.201139329340615 1.407859839335031 -1.4921682588973593 -1.5211335357814577 0.8680306525023632
Ni 5.519663344729942 0.8233372206571061 5.44200075394494 0.5088251722732204 0.895653299315638 1.3623440043126538
Ni 2.8399975097040446 2.811435907664143 12.23266759125224 3.2425194981621965 -0.22219036432295283 -1.829687769512636
Ni 7.056508430109318 5.842654422415483 0.42338562508586874 0.06250223229927945 -0.23297228542980522 1.0087563844909206
Ni 2.400047469475219 4.7228387620229215 2.4022935395929146 0.584058221875607 0.08198708049676848 -0.32375768094449403
Ni 0.39284733116637327 2.375737726036722 4.673423342233346 -0.1412072996106665 -1.7432652789523333 0.5533453661727825
Ni 8.5812174157721 4.7080088799253055 12.742556481773578 3.5442088864527412 -0.4257052637235894 -0.2283579265862454
Ni 9.086325077217161 1.8495491056098619 13.50206795480284 1.5508464894648581 1.4218164486466738 -0.29376293435461664
Ni 2.4388961289701756 4.131079536321414 4.567837397498721 0.0705767817772978 1.3597176224334 2.6705086943694267
Ni 7.2908205672516475 1.8511353398342272 10.858903340339864 -0.09821871186428245 -0.865603274007793 0.7794237526962319
Ni 2.528081913585077 2.7928610110368126 9.17587034568291 -1.3199022902086752 0.8752382259943958 0.9909247556261386
Ni 0.5384833435658897 2.599978683754531 11.027241274150459 -0.16637737111839088 -0.008245527838243864 -0.024078123995126273
Ni 2.6393623453251616 7.477817871701521 5.350248836567071 -1.349388215482934 0.48776963715450194 0.031835142232725815
Ni 0.9230691163637051 3.8110168910500852 6.747393616786508 1.6228052391913474 -0.17953524865658757 -0.28055826273888457
Ni 4.396956795928478 2.6137761057061106 7.814016930455266 0.8898788587257062 -0.9487375807351273 1.3032837078153876
Ni 2.3082993064978807 5.229222919648535 8.331572306860995 -0.9221446607379472 -0.9158171758580227 0.9506790207322143
Ni 1.8466582172009596 5.7462977327862905 0.5126230327080726 0.03518734653441037 0.7726388685639145 -2.03802837243669
Ni 7.703936029684851 9.196197608758103 5.937699887659209 0.5627933989595597 -0.4369566682676926 -0.3812236363714467
Ni 1.916612085095599 9.198131125031589 3.334950456312768 -2.4054737240771216 0.8217721357554557 0.33209191184180226
Ni 8.07709528446644 0.7437608242014061 3.17837224356553 1.345874803013037 1.1615148792742962 2.22219906298276
Ni 8.905090777582437 6.351187974345118 8.83904430204048 -1.1017143621768961 0.008578999918262645 0.9367534117900577
P 2.1976571228480735 0.43226759814218124 5.327019421881381 0.3649279845352167 0.6975863104034502 0.42272509804934294
P 7.414546836752136 2.5783345646930744 5.569304967151512 0.09715993158246493 -0.27396492579208304 -0.004389644427263408
P 5.99295246167442 6.033058845347276 6.9718898737404285 0.35914145976042666 0.6350452544464353 -2.355261364888789
P 0.2955755064077396 6.239926314607688 4.838188963938655 1.973273596657808 0.05487788298480227 0.025933946256942432
P -0.1571244780245048 2.236684116368255 2.312698525320129 1.081121368516893 0.49260433953898386 -0.6315452117129768
P 7.21756282688969 2.792926713046106 12.829940154133581 2.335336600940404 0.5756507145382022 -0.22570557656506288
P 6.482526290922293 2.868136741684204 9.043305278732216 0.20160765507559475 0.8978467074225311 -1.145784098802601
P 0.32903096953985467 3.6566922572216045 9.075698246514046 2.3140303832634603 0.20988455037240628 -0.7676660979396714
