# total energy = -340857.9588751082 ev
CRYSTAL
PRIMVEC
9.31807079221994 0.00000000000000 0.00000000000000

0.00000000000000 9.31807079221994 0.00000000000000

0.00000000000000 0.00000000000000 13.63793848944640

PRIMCOORD
 96 1
Ni 3.231628105482067 1.371806390444043 3.5761814794720843 0.781857301838389 -1.3996684517947249 -0.6672058983393799
Ni 4.89903165748063 2.7405005452243967 1.286626177581625 -0.01802806114630444 -0.169544713102779 0.2135565999073548
Ni 1.8091686819008563 6.079873503937713 12.608519277087291 0.480481845243837 1.040442145629976 -1.1182686669911515
Ni 7.4111462861870026 8.810077580873557 4.646486778671448 0.38275447119367634 0.6942834712824624 -2.660049703819632
Ni 6.048546149742136 2.6503761639693044 10.610520821231065 1.344047262885995 -0.9146403819411021 -2.847714009341257
Ni 8.830279158474989 5.428055811882682 13.039151125969605 -1.3307616015206825 -2.3426639878397526 -1.1577968069927609
Ni 2.2836634856924034 0.520834501932542 0.5017613427109694 0.8242704766972772 -0.6859338137661863 0.09375373411439336
Ni 8.28467815603191 0.16195459401162055 6.460291200819865 0.002861894928827329 2.3342456818690698 2.107001300061978
Ni 1.265804016461626 1.8575108334673804 2.1644769732652147 -0.6110926002855798 0.3935785583923738 0.7065026390564735
Ni 5.647915693573534 5.910946197509509 6.649762989856756 -0.3022365190432666 0.5500124451448076 -1.7065594388908674
Ni 3.657501215581609 6.622865446542969 3.723580315009906 0.3584405770386601 0.8479549647984107 -2.2479949409999413
Ni 0.3845092617921097 8.066821659573673 12.475658495688656 -0.9669805861057152 2.2606799926667778 0.5187979672152162
Ni 1.685844014209463 4.079880049112638 6.769994989833244 -2.5800986799162855 -0.7365279817739703 0.33872535799791986
Ni 5.381735681690471 0.6486597978441803 9.258987757533994 0.7326934385192284 -1.6648823708670553 1.0791313346700575
Ni 0.7300736464692834 2.9363850306198236 13.488752703487064 0.15877487618078465 -0.667367877838541 -1.6214430687364978
Ni 4.386789348678291 0.22377626686884136 5.572297685016738 -0.2691070834791494 0.49917479366765005 0.9826064655684303
Ni 7.95085826785328 6.6888187520148 11.082843582707625 2.342452643159895 1.5826209536629774 -2.2392256794477436
Ni 7.219156754406613 6.071244970331198 8.271505199272157 1.9245637901569306 -0.6508937914429177 1.2018894264366011
Ni 5.40092158956932 9.523627492305655 13.344082199093938 -1.9718088391868231 -1.451566426215597 0.24285714864368496
Ni 7.773581969944043 2.136801371035505 8.476933252831508 0.6032556207396643 -1.283287467199119 0.8271742806076334
Ni 2.3527849352530197 6.187991080002937 5.853389405680045 0.7608400761567735 1.0210323736447964 0.43658591519183526
Ni 9.52474566080758 0.35111329586797274 10.343354025645054 -1.8755428801735379 -0.5201747929580848 -0.5781421135014881
Ni 1.8892575008511792 5.727892695673664 2.499220282265017 -0.9552977504511483 1.2103876937155993 -1.511606570127629
Ni 0.17708248203557045 4.828950446622529 9.314807660957136 -0.31728672850816975 -1.4149521174266728 2.561757715515253
P 5.11317024366997 7.56983303275175 4.914281612232706 -0.657942727869899 1.138433829085117 1.9633018301570766
P 4.329054581695603 0.7532141436166053 1.6220422512967516 -0.44618178641038647 -1.579086458147158 0.6235843049946873
P 2.959046578925488 2.4840485993080748 12.964538537257457 0.08059122859050637 -0.499924527349481 0.6985720713554873
P 2.4364891656928975 4.782658270642866 4.286840925326708 -0.5878642258852586 -2.1486079198591708 0.657952498061912
P 4.730169577548373 4.943804987911845 1.9736009509513242 0.1777431897531713 0.44040631737918995 0.7944055708170449
P 0.137627906445174 6.115943756195619 7.853339065572128 -0.3893159264612779 0.6538469605339707 -3.267891144157765
P 7.520065216345272 1.1786055094532346 2.8229170182728924 0.2621329661541615 0.25973464112531397 1.4271010940843811
P 7.629822772879985 7.60096470745949 13.074610112779792 -0.4561630659928144 -0.2547209899608065 0.49182966615648843
Ni 6.256497536887494 5.954787720855789 12.041100011750414 -1.352599266221064 -0.26755773671415856 2.1856076370119712
Ni 0.27684733939142014 5.392330328246202 5.028471775070464 2.0664074378000152 2.5972944749692815 1.2099845447399098
Ni 5.2685583931540405 6.879736705647512 9.241231241723437 -1.0439367890467957 0.23889353601024665 0.11316376320988897
Ni 3.668077225995642 8.593861064884809 7.99402795829132 0.6022387494393757 1.1616989702606446 0.5779631647214627
Ni 6.466088904502342 4.3681159346961556 0.7937225930200655 0.7019538433435265 0.23957796367178094 -0.8908178256002077
Ni 7.01273353088055 1.8170797240519705 13.457290237264171 2.56266042983518 0.6505299803455957 1.2121730677507963
Ni 6.784263751724882 4.241716303624471 3.445761100828897 -0.9832541264547583 -0.43019338140193014 0.282768640126642
Ni 8.728693550075173 0.6889017504213484 1.0389779450037864 2.9941218793162565 0.03802738708636677 -0.49566498074217863
Ni 6.3707650397133015 3.4370636134980965 7.067903032958407 0.15846300136732064 2.3688900114158167 -1.3235424580644237
Ni 2.874485085967468 5.282703224703381 9.704006707807732 -0.010527381893885095 0.06095237131365632 0.14217377728899386
Ni 1.076274455385469 7.343068460561516 10.518668869640498 0.1965166137059325 -1.3385484445549527 -2.0465361527973847
Ni 6.430829324408331 1.7319871010555365 4.757935565065321 1.2798051650774733 0.3587195417316596 -0.6050615636001514
Ni 8.936477211945244 4.816277870267387 3.0472747327627343 -0.42814215529985616 0.9480852918631092 -1.6624058843021048
Ni 9.251912546338067 8.141114638455688 8.164543063992255 -2.1611284209236845 1.8014526859263424 0.9925121547179164
Ni 1.3903493514342866 8.523071680642156 2.598259261901701 1.8670613250650878 0.3952263784084419 -2.7380423184450264
Ni 4.57628163747105 4.860771658573122 4.544979442066766 1.8425173171771363 -2.05210850467884 -0.39694284687891634
Ni 2.9461690050116607 3.4518607100068937 2.3836119090439856 -0.10886924959959314 1.5169202690310584 0.6376232995862567
Ni 0.6354821820490032 7.958266134178529 5.578625586930544 0.43855589443401244 -0.2698825281925933 1.8519324398434491
Ni 8.14287575384622 3.0227728654643196 1.7095296185014732 0.3856418200438003 -0.5080792952461314 0.18585527733734442
Ni 1.919541231111627 7.1992533550723605 8.067713398953957 0.22346948814569256 -0.3192065712387019 0.28419148861609766
Ni 3.1494706748031844 2.007037916387198 7.349852947946942 0.7401794624836284 -0.12950878022681567 -0.6506454228775376
Ni 7.889750359223122 7.159167014278378 6.043093214681085 -0.31873605936018656 -1.6728911001041447 2.2720175291667837
Ni 6.908734542130747 6.604611345749055 1.320231800099873 0.0847697854482282 0.09941247506206749 0.014338785220175307
Ni 1.7147113977008068 2.6666361976014525 4.649787239366294 0.7823548103000978 0.9760241843652224 0.36779502167036654
P 0.7737381264694245 2.4512769441308455 7.977512609517899 -2.072129427885457 2.5697214504470196 -1.5309883170883503
P 0.8261765019813313 4.160062048771454 1.4384073018399048 0.06755007913583205 0.17835948318093153 1.0550107874727703
P 7.339732591197443 4.074643293295292 9.472488987677236 0.36307473337656176 -0.05170822700756901 -0.7982514269256963
P 4.187354678289255 6.361875600123003 12.080090547412516 -1.7289360068138546 -0.742757764733766 -0.3525275539883348
P 1.1923962543103004 4.545941998785506 11.215227278878775 0.10865893336099995 0.3904099308564051 0.35305591568797906
P 6.724041059825412 3.9135897567348055 12.232563072527817 2.941715854910714 -0.4236594369381542 1.1551665684587655
P 7.635422933460455 5.024182667058499 5.60620241760925 -2.975690412083946 -0.34427431284060706 -1.3307045230305017
P 3.999912365083356 2.1614290322903864 9.519853673611662 -0.6984522579481713 1.991762399490615 0.18653353435129166
Ni 4.7386676581629965 4.159139559757367 11.702974243032292 -3.622503862809903 4.154644312770296 -1.889473888432333
Ni 8.946801634446343 3.015104093155289 11.005311642398368 -1.2501318063827567 -0.028475995952505793 0.6906157926228881
Ni 5.1916749905759 2.3553846770199933 12.612610841997247 -2.1221772364714675 -1.3622172489268023 2.1206410023325994
Ni 6.694614592083107 6.638156400806783 4.079734687207387 1.0623417739165446 -1.5772121239425805 -1.5843736746880261
Ni 3.751613731160232 1.057135137860866 11.535568577573791 1.607049519018987 -0.7989363688078627 -2.345324822501367
Ni 2.9272905934708398 8.268203806770225 12.089663933403155 0.2964163128170637 -1.169409965751657 1.7087669880651475
Ni 0.473964605560218 0.5956669971167361 4.181651087122356 -0.7481280279067438 1.171047244244764 0.15479043761173986
Ni 4.6320596095753706 7.725407543652808 1.5940023124968314 -0.6556629306967869 -0.023945969292636177 0.029182535101227165
Ni 0.22709256828413166 6.923177551947268 0.7911228512530917 -2.118329323480287 0.35330479847399154 3.1500490016356006
Ni 5.926796236024286 1.3260919348570408 7.148748479261699 0.48215126252645996 -1.8156009524022667 0.036526377060808066
Ni 1.5475731608756829 1.1578262114591429 11.938296531490588 -0.05602330944315514 0.09522054846790698 0.3091849253366417
Ni 1.675985495250831 0.8062498074699566 8.582477177728135 0.2543808330125683 -3.4887923573556496 1.0283965273193514
Ni 6.847514816650396 8.992516090033345 1.4283558988146912 -1.5518289079827854 -1.201265162589041 0.03919621058348734
Ni 7.05301555116237 0.015343135460570312 11.644590006511404 2.227884286292995 0.870327676066656 -0.4071508977601697
Ni 2.640536281152371 8.34916852438039 4.599408157512098 0.13392542123727258 1.6512704365105755 0.3394360109116993
Ni 8.893502269187954 3.292353973207402 5.143753084004682 -1.1618434662583088 -2.9290557429445427 -1.7326337673804157
Ni 5.487747373743737 -0.11066700024961093 3.5056725691619968 -1.1853685459634424 0.28669934263961594 -1.9524605165671987
Ni 3.7953527557271673 4.186003558016096 6.615464102867315 2.2232591288161583 0.7678157361436583 0.8111321395431064
Ni 5.359810260981906 8.03823381820781 11.30480096214667 -1.7136597973810745 -0.1151129165164598 -0.319092928478973
Ni 8.63323923229424 4.026329095941316 7.214564809092044 0.3147264239801612 0.7714445911454972 1.8840403761215876
Ni 5.895972057654575 8.33364461834534 7.353085386724587 1.1682797088019559 -0.9867564831810618 -0.8475860114947661
Ni 1.7172179587592873 2.8515905858905697 9.81774773963055 1.8535092974122656 0.07059580794069131 0.9279774653696405
Ni 3.06718279113241 4.493173763565532 13.531330696426169 0.8351963795811617 -0.3724888276016101 1.6337967052058444
Ni 5.281016653879646 4.470195400850988 8.776940657319033 -1.1268566657704786 -0.23730356581530745 1.1419284725019367
P 2.0199154903010257 0.08006738738736945 6.588883373962406 0.6967812980036515 -0.7095452825375393 -1.1019915270976828
P 8.861317652474236 1.2231365700423673 12.512576692393854 -0.6840026581817445 -0.6286768890262463 -0.6614839082539382
P 2.6807251207256972 8.69463600112073 10.083523347238751 -0.2369397547179855 0.622459704471941 -1.143854742990372
P 4.779704442183616 2.489359899692215 5.810934411276152 -1.185643396891384 0.3521578293537419 -0.7578059173161401
P 2.1818635616630515 7.298024906075669 0.8195159449382027 2.958074755884712 1.6877654461128158 -0.07723465341344764
P 3.720435466098244 6.262237468530706 7.596672804026271 1.3729287218070354 -0.9693565425370596 1.4639424312824465
P 7.388857460715313 9.092657397451509 8.792255838567055 0.394498756213798 0.6256183047055807 0.23134477712871124
P 9.303189890222143 7.574678429593422 3.621581916071463 -2.4696713418009533 -1.640192067209227 0.5185927931829456
