# total energy = -340875.34086384444 ev
CRYSTAL
PRIMVEC
9.21350208807025 0.00000000000000 0.00000000000000

0.00000000000000 9.21350208807025 0.00000000000000

0.00000000000000 0.00000000000000 13.48489162095140

PRIMCOORD
 96 1
Ni 2.410620730766028 1.1163079335713653 10.113345405407445 1.083344601420457 -0.7328834430428475 -2.056899241199264
Ni 0.3163787686343156 4.402635199945053 8.43233178359478 0.03521922821361031 2.3054614106475264 -0.06479385654693356
Ni 6.427587939696193 3.460001783935756 0.6202400731010013 -0.30766206093421206 1.2311629785897378 -0.11038980000917761
Ni 6.043007141947742 1.3594983256695508 6.562638534442774 2.3757713119166826 0.6098448439214078 -0.896029194597818
Ni 2.089244558507009 0.5099673499766842 4.198278798513836 -0.5248837683979798 0.13994025997278478 -0.7019970378766361
Ni 3.6152492969819554 7.253790327671969 5.560131174010289 -0.5419877750681182 -0.9248664305444847 -1.3195963289324824
Ni 3.478023394352276 6.945036653506321 0.6439114031020869 0.1350122265435481 -0.29385163741368103 0.4272337845529739
Ni 0.7811336203308629 3.7120647787083327 5.9092685499226905 -0.6603307684861014 0.028623320163647478 -1.2904693296595389
Ni 9.113480477422536 1.4799925081988206 5.227971518708582 0.14942763063792974 0.5257646283410364 0.3530929395735016
Ni 5.974255988099033 8.118099760986563 6.799783947709528 -0.6891037268537358 0.769968520820603 1.0559124733514331
Ni 4.684255109961083 6.213696484778239 7.499015982418933 -0.4512124068557585 -0.5776602887690632 0.4556354756241186
Ni 7.505070174752621 3.4706986600572183 5.3411363601916655 -0.8093035709747999 -0.0989494193827199 -0.6308335303579329
Ni 6.240821035425599 8.336892799105739 11.501129183008857 0.22343323559111844 1.7479205183361575 -2.831662355195033
Ni 5.933707364661863 3.6496156604040517 11.088005876615549 -0.8431703989255737 -0.5157437537699247 -0.43919044269421775
Ni 8.59129602345183 7.23585163877577 7.878628859749906 -1.7736004396007647 -0.29152196083923987 -1.833309425425623
Ni 1.651455785218985 1.0794999920509163 7.033814275862876 2.481740100040029 2.214542574878767 -1.1447895960998156
Ni 5.561666143486461 1.3884195092572078 1.7481413565635258 1.4411526870814404 0.027841961912932697 1.5877780723838848
Ni 6.02307833656383 3.7921761808410746 3.138918601048539 0.9717780074943587 -0.935054683931396 -0.15108033575000432
Ni 3.6806190955020015 3.0131929919372142 9.438870972615335 0.6199001712748808 0.4942246487512263 -0.021624263137995016
Ni 0.15551562596190519 5.871645213452416 4.683033399561682 0.37406080007442033 0.480073811172141 -0.32651621752623766
Ni 8.8308102281491 8.655873460777695 4.22882155849889 2.367607288048651 -1.6216644407186847 -1.593804995304255
Ni 0.15521710848874806 0.40541068365319 8.448473839550681 -1.18392821397249 -0.19347705554866035 1.4883244596712366
Ni 6.983558306446746 9.565181639120041 8.676300716633762 -0.43797765333303923 -0.8615856682079678 0.015471356162721744
Ni 2.007880120067188 4.625472965555461 3.7664917005966303 -0.031256129800804236 -0.0043029982507280734 0.8206742747055866
P 1.5246042861317404 2.57201364981827 3.958800526475372 -0.039250717970506596 -0.45994258763990464 0.10285543930534544
P 7.977925537634345 5.084683131593182 6.8366112375847194 0.22555028193412124 -0.1401837434421586 -0.35777928930557734
P 5.9325464633773635 2.485812122693033 8.768780324197554 -0.32981057200679326 -2.09933247066281 2.420487423877135
P 5.757646550014989 7.2928371502410965 13.198985086949024 -0.670065222165046 -1.2873328409130862 2.5129880023107174
P 8.10031770162875 0.27121049516501666 10.661654745030525 0.5355787862179808 -0.00252636596627952 0.32592177847534837
P 1.161887129241368 2.5272728828537394 8.630654262397275 0.030753222022456714 -2.1932520409311067 1.1343676294355431
P 3.5428680232436203 4.887357553734996 5.753194585723954 -0.6815390271326005 0.39507776864571964 0.27667821095818795
P 1.709150736358172 7.545508236162696 4.102724645246569 -0.4356934852845529 -0.8063771413566242 -0.13662996465262922
Ni 8.113953684970493 2.233629352391103 9.674196719186149 0.08565450204602668 1.6359744295834533 0.6682703350481524
Ni 8.772018870241219 3.3856119667051914 3.5154974720859737 0.9668808273030575 1.0012443923845917 -1.7150260816009817
Ni 2.150588056540338 6.284548317141757 11.223152291785611 0.36493466940343605 2.1584261915011727 0.013412673861480127
Ni 4.04723356384748 7.549433188124577 9.729875756031301 -0.5582618296377934 0.29983202336683196 -1.1109657055718352
Ni 7.987166680399053 6.833673051714664 2.7824997943016907 0.2133488547719229 0.4741281351116673 0.9912805963036606
Ni 0.9962191451414446 8.355909467766114 6.15543490325019 -0.1278797292638249 -1.5053269077665044 -0.45264553975785915
Ni 3.873494551769606 8.086451380730557 3.4088189361924774 -0.46954308684414614 0.8007916768490466 -2.013718592046732
Ni 1.203495305438201 1.48543768803326 1.827189520535702 0.9350395144227445 -2.1863316596621893 0.6157439830146622
Ni 8.87135885158627 8.396218540144579 12.689189108114338 -0.9635018835284955 2.8071093484460174 1.1720664295378975
Ni 6.193629476860458 3.7186247923159823 7.278888829172809 -0.7321802463282358 2.217396499387794 -1.2235730820576218
Ni 1.8923520152549447 8.009573917890352 8.426007635644934 0.8002283481464089 -0.36061573031310795 -0.08055806135972578
Ni 7.756902831968751 1.2935020089959648 3.054355234624763 -0.17732564259977848 -0.19450498259254245 -0.6881891854592663
Ni 5.638460684806346 4.96295433976135 5.332896725122395 0.828602785524044 0.3756201741417402 0.6624305884379237
Ni 6.744007247740444 0.24265785166767712 0.08109540417388943 1.1045137792989042 0.9500861243432218 -1.167986345931253
Ni 2.747595362347731 5.407708520756373 9.016484411051904 -1.1337798752528732 0.7738532005869898 -0.6517054887109357
Ni 6.704407615035841 9.015623869941011 4.603553122333608 -2.6081946668215537 -0.028159493153351502 -0.228443030100884
Ni 8.378473334795798 2.5939417851921545 7.25704269396902 0.19077148369203917 -1.0839495819943072 1.2704998285161473
Ni 7.307597180858307 4.89545622221972 9.195968041787598 -0.3621015708300151 0.7691313696312883 -0.6202220733906738
Ni -0.26604632714944426 4.2689933496937105 13.303155707527912 -0.676237412414029 1.075477282857238 -0.7111841036925429
Ni 3.9157384596222364 2.6716576767378335 3.4339146736426396 -0.9039641331741787 -0.5883537639271673 -0.5982350275966213
Ni 4.144482080179981 1.1969168648260355 7.6369531674229245 -1.6646121479248044 0.017714643670943685 0.6110203522867477
Ni 6.297981603433826 8.369794215668822 2.022329655658307 -0.38875645441338214 -1.0186361054984778 0.7231168505743869
Ni 1.8105637557112586 5.85828563517841 6.603834867088676 -0.17903234087824005 0.598636376800098 0.25757671424204676
Ni 7.960991120484261 6.503009669179646 0.38878952557987584 -1.168626036397781 -0.016680288869158368 0.2640864903361065
P 1.074874813917433 2.5361178450213564 -0.35103075062640793 0.8695869412458894 0.6268485775682558 1.4231678204682456
P 3.373873964828583 4.623906670171612 10.943043396139883 1.319795589427482 -1.3831714825809662 1.6747502648000707
P 8.04699916406208 -0.29039853496739143 6.332195022718441 0.2982888472494282 0.4152843255005816 1.1074440655718218
P 5.762253301143957 7.100311807059294 3.8411044845818365 0.7994459614544297 -0.6641282878553207 0.08967956404501976
P 8.148605666962585 4.314415915825328 11.066174483015372 0.003527810647600376 -0.24048839130119226 0.9110120411598955
P 3.551897255456397 0.7092157857561021 1.824236593062034 -1.7104029810066734 -0.9769803776309046 0.7880786001577524
P 7.8508805549996845 4.858233673097664 2.012620466978895 0.12501269212867502 -1.1636887469971635 -0.6685786103171906
P 5.553245002422708 2.043241541733141 12.570656480215783 -1.9527582503132759 -0.4735138985664361 1.1664238865401395
Ni 1.1160960230194326 8.339315950199575 10.908333369083564 -0.11671291401372802 0.786246174934704 -2.129151353796456
Ni 5.701490253752877 5.794740110105435 1.928744427823561 0.5772530260283155 0.8940147352709505 -1.6972980681935996
Ni 0.9987252177556029 5.8546923692978154 1.80406270851806 -0.3495479025347206 1.2516256173194638 -0.37074973342331635
Ni 7.284738481756372 6.773057420359711 5.5177886816834985 0.5126026370377817 -0.5595478954390686 -0.4011581705118446
Ni 1.6220094320026257 8.211395684850409 1.7681659823709208 -0.45217759898250515 0.6579663820189829 1.3023766226200861
Ni 6.65288571040947 6.063645387005516 11.557401569399419 0.033599947442632457 -1.1699972057136947 -0.11538133968649807
Ni 2.1731979910813095 4.760690324692909 12.984076461381795 0.9672454097313277 -0.06521731723759736 1.3492118378060698
Ni 8.977387835570584 6.4786307422051514 11.639066368012848 0.47525530673757505 -2.60590432812548 -0.9805835216011307
Ni 4.753872333022038 5.1717967954419555 13.011167843421026 -0.23011219027319077 -0.5562283441475324 -0.31348920913895045
Ni 0.7440280826874824 1.524198892032391 11.381774710708893 -2.1263491084609702 -0.08176570851458176 0.44388373440482914
Ni 4.187149809136476 5.527216858544043 3.6758603215857786 -0.4915252475421922 0.3081911939648047 0.07718117446769288
Ni 2.070578002932433 -0.2009096302365235 12.989632203243332 -0.730053172682904 1.392942445924801 0.3160469425637976
Ni 4.178433836000471 0.6553232469987649 5.0845320301561525 0.9671147976907344 -1.396983448763394 0.31064171238782634
Ni 7.549718806694573 2.4118276995618175 12.13641582664729 2.558309609065652 -1.0034018050472266 0.15556253989107402
Ni 4.88055798906864 0.8768959987491585 9.847490719104966 -0.2161917235373567 -0.4666246276457706 1.2287353429848515
Ni 1.2557266497384327 4.123613497565759 10.926942800944142 -1.708911741173128 -1.8964814300984174 -0.9130113309781115
Ni 4.047556036426508 2.7373775883436817 0.9256566167488262 -1.4689267718709154 2.0837778107576628 -1.071914248096328
Ni 2.458899482597606 3.673976160374031 7.407817051668992 1.5054454356222398 -0.365110532859668 -0.19052285801634283
Ni 5.013582534668701 5.342504565276969 9.825753303227822 -0.42951332461577 -0.9290796972948838 -0.6327929680771489
Ni 3.2977151551644948 2.4459637254274655 11.970012605067184 0.2255708507594115 0.4905505423337487 0.1941136606913947
Ni 1.5285015975868466 3.6773298751959187 1.561806565548829 0.12465196635514661 -0.7793083101642901 0.14560542867836213
Ni 4.307588710652198 9.239300064256891 -0.21605202119743916 1.8002977463862933 0.4247917507703846 -0.004347992556050576
Ni 4.103574130154751 2.789102190019727 5.767177918100823 0.4944748170888194 1.5405636194816112 0.9066753614577546
Ni 8.432805357610839 2.3237097639669306 1.0111238277441055 -0.1675330819893889 -0.6787038716766506 -0.12802911035749562
P 3.34939368932925 4.928763032882155 1.8117089940419202 0.18629956396361463 -0.31775441217320766 -1.4599729051117372
P 5.985763652419194 1.8677058967149698 4.269761755782022 -0.682841805104424 0.7140285151198735 0.18650011001019492
P 1.3565960724583015 7.039346062618539 13.287378506261424 -0.35285305564855357 -1.6443978777604582 0.2802787838252528
P 3.785680661749231 8.341038875121809 7.260832207447709 -0.3739708114637753 0.5508331412738899 1.6109722511121611
P 6.096261184998604 7.051996201218684 9.373618185573966 1.9970714704083543 1.054472655581113 -0.29744835362600386
P 8.510309338604584 8.944698329559431 1.476542051603224 0.1191606042232722 0.4198945705790833 0.5249696432435669
P 3.4368758932683403 8.72494708720543 11.304102122623826 -0.374662181103845 1.1427527681754448 0.03180917409079683
P 0.5100300017920382 6.675661487991084 9.44485882773277 1.9595007112434317 -1.2391079444684272 2.092231597951971
