# total energy = -340885.4147573395 ev
CRYSTAL
PRIMVEC
9.09498017397638 0.00000000000000 0.00000000000000
0.00000000000000 9.09498017397638 0.00000000000000
0.00000000000000 0.00000000000000 13.31142281930447
PRIMCOORD
 96 1
Ni 6.921980338428537 2.0991760281697345 11.278409519248347 -1.3808405204549443 0.10661233524461639 1.1574008571059227
Ni 4.735119604975646 0.4726088289516028 5.985947701152389 0.8616288627410773 -0.5120336519081891 -0.8302434064512605
Ni 3.211683116121305 1.6101753161840238 4.683278217140981 -1.6043125797037983 1.0787492687402906 0.07829317658494904
Ni 3.2429425634875746 4.3217800342875785 4.455239775530712 -1.5633335661882752 0.423067054769794 -0.3692952603649769
Ni 3.954934003004916 2.6148523174394924 2.6971073194704926 0.28767816161311743 0.30529998845993866 -1.5151549496005197
Ni 5.333587500115394 4.648380777645963 2.5486981590723 -0.2856829855599596 0.9124747417483511 -0.3657599935182088
Ni 5.454241509065333 3.187199429094828 0.642366636659323 -0.04542599354328306 -0.23799802077917076 -1.7956314512588751
Ni 5.963014708270792 8.09759749483357 12.029905915291767 0.6882226098003631 0.13503356669978678 0.1621931578337142
Ni 2.0768205665385757 6.891130165176752 0.3418721248168374 0.014106871715027319 1.4744739269413896 -1.4336052137514859
Ni 0.8071576756132697 0.3020934093830706 0.5141828935009068 -0.5008390687439503 -0.06360677821736789 0.09828530343615977
Ni 8.180725614975469 9.075044125005357 6.7315732873980405 -0.1129264503881023 -0.16388262972099518 0.7971641073987884
Ni 9.009451126924024 2.808166124180858 1.2069548206020706 -0.6497362807997068 0.0016375356034229861 0.10387513881911141
Ni 7.2093453366783695 0.631939241720298 4.62188619047032 -1.212716598959092 1.0273662862826243 -0.04790505121139491
Ni 0.9192478510921354 7.751742678133785 2.6225230238429584 1.343879884070195 0.8549625064644952 -0.5415781983345254
Ni 7.61463584978158 4.270056881197099 3.3936673058757156 0.8441641302974108 -0.33841271185350746 1.1761354574009486
Ni 8.588999281624254 4.052741421386315 11.882588152532199 0.03968214908097036 -0.17648797718983156 1.2951297112496856
Ni 8.604815452403987 7.229945467107408 9.061778186707876 0.4242577326437854 -0.1760848282141419 -0.44604243261904464
Ni 7.428616217258355 1.170487587503497 0.26520235020149785 -0.7041166553228002 -1.2472709398951938 -0.4116099619727878
Ni 2.1074069853610276 6.520064063024741 9.099502346086933 0.7302912568356391 1.2239970569689178 -0.7108596304735887
Ni 0.49611025810331716 5.157454111202042 0.9720278408960166 -0.7336005237145301 0.20896538099224654 0.021017997012563804
Ni 6.841471572619336 2.099494352481 6.511668486689621 -1.568309165025996 -0.15518638749857788 0.7600211797999039
Ni 3.7124254477025502 4.8401029628310015 0.4973044290195788 0.14135642359402106 -0.1745928170496477 -0.8176519429394951
Ni 6.147333579473827 5.857667551202561 4.65187688808169 -0.1782340133466608 1.6426749815320807 -0.09031822607028316
Ni 5.336979927775452 3.157449748461988 9.673637530873547 0.42763333398423775 -2.0101465584247578 -0.7960842440710484
P 0.5252514845526237 6.0191216418764135 12.185982144101297 0.13499628570394814 -2.551017446279613 1.1202944391719285
P 4.655738616726356 6.317909935410516 12.362984103635387 -1.3550626401598922 0.10516069039975437 -0.7295124696880856
P 2.6649201841113914 8.958037203164487 1.5262741227147647 0.8145018273462875 -0.5941528871074476 -0.44037186459682864
P 6.563574448884571 7.894552059147801 5.781364304294193 -0.8373797603857257 0.25861389725730943 -0.18971707428559587
P 5.363746454862719 1.1774361524694064 12.605066104360658 -1.0506967334784485 1.208611318541467 -0.8031619768534362
P 4.110012512473137 6.4056128306543165 8.18000256403988 -0.18148003108778424 -0.09933405641564827 -0.31313593956458974
P 5.196517051684478 1.1442212843339339 3.7704741596068914 0.2171566585537873 -0.49086447402974165 -0.19891185341098647
P 0.16771871311955686 5.953628688578621 3.5300292553395582 1.9935218053838832 -1.4381054156146846 0.05969535897810364
Ni 0.803605176299547 0.4291993973733451 4.494269064585957 -0.9503661174774858 -0.30888873425246155 0.6595591804273996
Ni 2.2856685996696973 6.70984901740122 4.853131522142081 -1.578840917795255 -0.5192803061682734 -0.1774660248323847
Ni 5.895802803692166 5.541753409722375 9.198220171998551 -0.3557118652535874 1.3032250866633104 0.9059212569005495
Ni -0.20570389843385065 2.2562554333087665 10.120169232246283 0.8438170313706372 2.218669452562947 -0.3723222201167588
Ni 2.599518180616818 5.225148049737728 6.94544811615306 -1.197480498735628 0.38802034757830595 -0.7563768981790975
Ni 0.602226850506778 0.3378475960244095 9.362029862575769 0.646881327849415 -1.4868442755812843 -0.8106253751100168
Ni 1.9415873041326774 1.1437210604162311 11.892451658691266 -0.3221695105217678 0.5750850718427193 -1.948878198532579
Ni 4.639831496143404 6.796360470222856 1.4482164541023077 -1.2318582048845494 1.3565988742987605 0.18084188328315307
Ni 5.577451207485719 8.28465395511349 7.904202742767339 0.04422631680822706 -0.32559087749849086 0.9580472881718276
Ni 5.1830928607293965 3.420885853484979 4.5799810686373 2.441154208197867 -1.8911726162909948 1.2514266139347803
Ni 1.090324430946527 7.873797314053292 6.737336776428011 -0.8333729532191777 -3.1326716866994175 0.9667391595188706
Ni 4.81710175759699 4.641332167896513 7.050661577010559 2.071132096969194 -0.031758523358519496 -0.5522166518849779
Ni 1.0609203595659185 7.588369546612017 11.038471205384942 -0.03029659410101234 1.493125737714622 -0.03369533536991617
Ni 4.681213656607917 0.8328710039792631 10.461686652830565 -0.20750113774189424 -0.10357869062461517 -0.2897124184343269
Ni 8.182690130724993 7.566714398465643 4.291296388742764 -0.12944913063347382 -0.11822960776857057 1.831461316473291
Ni 7.092729498991341 6.4597188685891265 7.294300638366933 0.9473175604591492 -1.026762334150038 -0.9591312652646257
Ni 2.4171183502616973 5.992191405143354 2.3362212287927524 0.6843880665456213 -1.864224112726609 2.0565176894901294
Ni 2.708985363770856 5.641570818754909 11.369725850174028 0.1401469766669522 0.4704951663447703 0.7416992415622645
Ni 1.0502337576877199 3.848240788849049 3.2277939642634665 -1.3088704578745458 0.6760756900251841 2.21636137325506
Ni 1.6719393275498489 1.572449337808903 2.6075881566564143 0.2624152732812707 -0.37592613541793324 -0.9654330391129372
Ni 1.0797651587928347 3.4926907231261493 7.928084342096508 -0.5887931654574311 -0.3791814091304373 -1.0829298824805413
Ni 3.507752010539168 2.6873393106048034 6.945101597402798 -0.3965232428429945 -0.06875438385657835 0.10251631079837184
Ni 4.3341037326237135 7.150237059566531 6.1329316781341445 0.16627606965383623 -0.5037968658206937 -0.5985528159473562
Ni 8.411228796252965 7.5166920066953535 13.089295589669515 0.7475197048987836 0.8419169861344469 -0.2695367148174003
P 0.519341566339472 5.719423850310124 7.705197297340546 -0.7348372243351087 0.6952221810466479 -0.08226116009376155
P 8.563396912018186 1.849173209082147 7.9644506209135075 0.21177791074037722 0.10742968893958918 -0.8892440533551846
P 2.15160858972532 3.6750177936386956 10.660412882361477 -0.10712938409035097 -1.4376151062418272 0.1086018548708194
P 4.115751445056238 6.1589296793842125 3.8456705474100876 1.005137813901727 1.0399412947341575 -1.0544831971040742
P 7.274301686137172 3.9827191678882317 10.136169121628518 0.7943551771950835 0.6136608752333884 0.21825657648618538
P 6.734223564663834 7.942528080345671 9.874253697315345 -0.6000664243784053 -0.7517774517338731 0.5689627609950653
P 2.5053760393051325 8.823577014085949 5.565931505410037 1.2187674331388623 0.044701713782748814 0.7105192164150343
P 7.2153480236908045 4.468991385777381 1.3146284736366356 0.44601286493268993 -1.1851181205155332 -0.5384021145993889
Ni 3.2907184951183623 1.8706191726811188 0.4205464330951172 -0.441612164761833 -0.49177078789409495 0.606044496338711
Ni 1.3698222712179415 0.9784925529088024 7.146317123047805 -0.9538085675001315 3.0254883094426797 -1.3566071018288766
Ni 6.911994050035123 0.8717202124241346 9.093259551594 -0.14330377712837902 0.6433617447319308 -0.4045484271403162
Ni 2.533243059011345 2.074546821458108 9.250693660965585 0.4563044766666851 -0.8027757971586109 0.6964858782504199
Ni 6.5748431295033685 2.1043055970712694 2.2513214064841516 0.8517149460614751 -0.1423735520046258 2.3427562904432424
Ni 4.322052883697235 7.302186895804028 10.148629244669479 0.2350569358729758 0.5578782210461295 0.4282210881669077
Ni 7.60009297624691 6.0443329273286395 11.102326152726766 -0.06419221840719266 1.5752552573265257 -0.6170845562029567
Ni 7.0858991687696165 3.963737943956487 8.0080192146474 1.403049452451816 -0.5369185880753269 -0.8085512661898074
Ni 3.526123870789347 8.54075950599705 12.341739139101529 0.24536525977751936 -0.5361940512044766 0.3191512925207342
Ni 0.6036929613346637 4.91967494566705 9.819290912234212 -1.2596695706698626 0.03855626300664328 0.7760617782025344
Ni 8.869197435380453 2.608904200308989 5.469451044657599 0.048023321956814066 -0.3414013621681862 -0.05257854542766429
Ni 4.025856659554865 3.1039621691890655 11.80598113328108 -0.6148788068008895 -0.4857330663404474 -0.5873883146901046
Ni 1.6704113708557746 3.490580687691476 12.846322280872702 0.1272562367472131 0.12644119704508547 -0.51846166692172
Ni 2.994649600700499 8.880893580074378 8.050429107888283 1.9765152435235573 -0.9032282834494186 0.1697239189931206
Ni 5.880714231338182 8.061945171971836 3.0540661976452497 1.4964257486221326 0.03545731236634539 0.7533041727910447
Ni 3.7339805510653843 8.376313166797303 3.8350739858370764 -0.7034767077459562 0.5023889297295735 -1.1619550521355084
Ni 3.578465482541714 4.347691633224589 9.236969335659882 -0.9526585130560883 1.3531695369022372 -0.8320850876456897
Ni 5.92708044101908 4.412184138686976 11.759896867990161 -0.5982820787844729 0.6004202081733981 0.5683446677950922
Ni 8.24815579908182 0.07869158874089138 2.5799667014188925 -0.4661751988131778 1.2259444105032757 -1.88139831051305
Ni 4.95147099687231 0.3604595361006449 1.2177114538287472 -0.0877448089161521 -0.7184898933253367 0.8636952583518029
Ni 6.447267840528486 6.042886825457462 0.16170329313467144 0.6903165162149143 0.09049794618125705 -0.6036772816581151
Ni 8.150757654814905 0.054940047630325534 11.300852292690596 0.5161476740765627 -0.41980535329938673 -0.2740032352291862
Ni 0.2868493128655828 4.976091108603614 5.5311495721651065 -0.31872808894038657 1.070484200518021 0.42485654257004896
Ni 7.875034231377067 6.639044595595455 2.0476566026384644 -0.5949602135000914 -1.2902613274137908 0.3981324963116433
P 8.59130940662601 2.105478849532791 3.3458258903866103 0.1701178119974296 -0.3277845427157 -0.11404822269737133
P 2.3254955184991695 3.6688332070198233 1.6613991548548328 0.4101212932424033 -0.4140843916552094 -1.276509267935021
P 4.9694517729686485 1.3725052904128934 7.873054254160996 0.5328588161836564 0.5937330259612098 2.0389938216737526
P 9.048259407957447 1.9520465315028288 12.344481275668572 -0.02308747794708282 -0.8121793498606981 0.7095249708225652
P 6.8148505652172195 8.14757441170225 1.0052799984508087 -1.2345015560446673 1.1776876323794168 0.5250004964815023
P 1.7909653350221735 3.332619069461222 5.601779370348691 0.2656967722460198 -0.6278055421648865 1.119911344800897
P 6.785846672970774 4.24308116956243 5.798362822515769 1.0897157950541234 -0.9286552081629555 0.9183178307926894
P 2.5711782219338684 8.890998103211977 10.167730522341474 0.8459505327738721 0.311177016066006 0.7512503755858094
