# total energy = -381176.14269570576 ev
CRYSTAL
PRIMVEC
9.20244081730737 0.00000000000000 0.00000000000000

0.00000000000000 9.20244081730737 0.00000000000000

0.00000000000000 0.00000000000000 13.46870233310603

PRIMCOORD
 96 1
Ni 5.2486213507908515 7.603829649140385 2.3684174819696646 -0.1592944961296805 0.9734373974746527 -0.00029490553259949216
Ni 7.775961305552915 2.018481784594341 3.586378935565557 -0.021834322266272074 0.5042951456133509 0.8747319757819387
Ni 5.035603249607358 1.661114195975031 8.28614738793771 0.3723134783660104 0.5523053549440423 -1.2374603815626755
Ni 6.059218354538389 4.275012309529731 3.930019243143938 1.290735953057364 -2.735252671515031 -0.31763639853810455
Ni 3.916577237769878 2.7957659524042495 0.8803238981948912 -0.04459527011187158 -0.25668685543792563 -1.292116635454975
Ni 0.7769307940806256 2.2048680219094643 8.664793780573202 0.5866264968234155 0.6712723550992697 -0.8295011289685972
Ni 8.043411844463225 4.350739195422204 2.1293610743537066 -0.42357870429888983 -0.33567165877326066 0.06368211153999355
Ni 6.8317172530975885 0.3059829993075597 8.884683344351897 1.1049179567158582 0.23106684087697624 2.343544590672493
Ni 3.0730446981602477 4.992213740920639 6.676516247391703 1.0525479277545742 0.5624182750083282 0.9702903672052386
Ni 1.0955137754229372 2.909646158130262 2.5023498063443217 -0.3533773035831398 0.9034578829617214 2.1335911347353638
Ni 2.6171281702989284 0.6421978573505615 11.256508490174518 -1.5409626546922428 -2.2149089570792495 0.7712137060816139
Ni 8.25356798653716 2.195325090730646 10.419024714946602 0.5854522740096562 -0.4371137626708472 1.1487848333021375
Ni 8.322218195403103 9.554434229901588 5.353566906679337 0.751623442654512 -1.0514930041274988 -0.476396876541186
Ni 1.818945259280634 1.4593506799715712 0.9285722956592534 0.3877709505716612 -0.18761082657587044 -0.777800615270512
Ni 3.0228545856730014 2.5839717758560337 7.054771536290358 0.38940102997591647 2.0944987967195927 1.1085365273050523
Ni 4.9209776461711385 1.290771165733606 12.313101462195629 0.29089486877820225 0.564017501174648 0.999931330000123
Ni 0.24047634424169742 0.8412383711015505 12.241138374617655 0.09133355470867495 1.3932723184603941 0.1873696570993418
Ni 6.018874853778564 2.2171256731439732 10.447241239132225 -1.1827797021903435 0.18463040379130785 0.24249436598762752
Ni 7.681176164625406 6.525340389320933 11.938051383450862 0.009081650586294036 0.05014551050613944 0.14560825689183954
Ni 5.456366453357697 5.520240595413799 10.828809406742911 -1.6623174383533563 1.7274635360333865 -0.2893576061980694
Ni 2.4887449177669208 8.621766848056632 13.507087796601382 -0.42921507664906083 -0.9133491739335045 -0.6851388286687168
Ni 1.0668113623595488 8.263920732512252 7.242066974763117 -1.257706276295905 -1.5582396966051357 0.6023979007250593
Ni 5.336320612250964 3.958567975444852 12.630141194204587 1.9153355866904431 -2.8787212563560485 -0.7867565389122192
Ni 0.5669679032648928 2.3042543832703477 5.995740837683646 -0.6792669432689721 -1.5284796917338839 -0.5501934508073621
P -0.18807120423782497 6.211537155764811 7.8587188562675845 0.340925193862716 -0.8958985825572249 -1.0027415457554085
Ni 7.344891368031817 2.856741325587325 5.959348865032002 2.050730136274075 -0.7110095257878917 -0.8713059808195253
P 4.207328356954796 3.5889979502362332 5.049348935530021 -1.135479117332167 1.5935697393649975 -0.2090558838235238
Ni 0.934406643168772 8.340070930684595 2.140594493919746 0.3571552825683333 0.932873102899045 -0.4152241616866075
P 0.7246508072725408 0.9888482833364558 3.5620541236224805 -0.08428744649517096 -0.6124635124911776 0.5339247955543256
P 7.109529740423858 7.359017114762276 5.111776453881869 0.67824698664489 0.8153050399738733 1.5393541725545423
P 1.099406407909572 5.2719955505923926 3.1905736716899256 -0.6297297557707929 -0.09259725191244698 -0.9457435311038099
Ni 7.0504592725002 6.845346068021244 0.9795547383051266 -0.79432818061189 -0.07823455543287172 -0.69356304817667
Ni 7.478943324137742 8.614506122212768 2.5274421018556845 0.989734077752147 -0.12921644579737748 0.8729882536179546
Ni 6.830704984602247 5.38682360772768 8.814565346167706 -0.08674259290388286 0.9635774739614372 -0.8330983594015523
Ni 7.21995903082484 2.195702390806183 12.96380145466298 0.26769451940233896 0.25756900093256285 -0.5377937915914286
Ni 5.3310476136343175 6.2446015257990375 6.908852112442674 1.0348867630293854 0.09789372442469592 -0.2708490058709206
Ni 5.328526144836829 1.8240894237251464 4.837742488775485 0.8600877435062024 0.3695819383674603 -0.27622441125022107
Ni 3.73595172843734 2.545938087753762 3.1450225096436073 0.247601862417522 -0.7766641876732236 -0.21169229300510636
Ni 3.431185291812364 7.160483655503045 11.526973748712775 -1.2930964828697409 -0.9388943693924605 -0.3387654672072359
Ni 3.327869488201379 7.414102925790632 6.229988969946728 -0.7337789582739234 0.30567048442548006 0.18706498137472946
Ni 0.28616554290101687 0.29527595935909784 9.872128255456174 -0.7397326047541971 -0.10089034515917464 -0.8152212220108154
Ni 7.449302262105945 8.726315778743762 11.386238980049418 -0.5092064668720392 1.2993383500143945 -0.3836188760765006
Ni 8.930508739136044 8.20635946489074 -0.009013790828980116 0.005331953735874688 -0.24206576309064115 0.3127394754571195
Ni 3.2926885567678 4.6970730574422825 2.485056579467528 -0.6939142608685017 0.12025615128029613 0.8432434182553542
Ni 6.377632010968753 0.7711599434130876 6.586316682748095 0.4361074328935199 -0.8310921276048009 -0.13462836084156812
Ni 3.5064612581023664 4.975290452166689 13.070863571950818 -0.5743674769504044 1.9260352324961345 0.7068949893988857
Ni 1.4096298919685293 2.8049775957118652 10.909365733602254 -0.7612663650609147 -1.122350550370009 -0.2943190639684028
Ni 2.043263957848495 4.028175238160936 4.837540035076417 0.04805520363601402 0.0784412721270391 -0.9547480485952654
Ni 7.267452828138128 2.9781123181788707 8.459678735606072 -0.8191902339608924 0.024314408375648446 -0.6321910728270919
Ni 1.1213082171724331 6.044558866237659 5.666040387530215 -0.24395783790703152 1.2864589229485652 0.2184326970527335
Ni 7.824053261522543 5.295388155275667 6.1278823670656335 -1.1664118023552814 1.462915275569513 0.8924224510831662
Ni -0.23927266497632674 4.319791386787329 9.453103392785563 1.0229858978267417 1.0494752023665217 0.21439195132445657
Ni 2.5343246073799257 6.81957003115348 3.5484105847934395 -0.0010870624165916763 0.11560245455836866 1.0182324423021563
Ni 8.82851808700987 4.244414193647792 4.3946891327577084 0.08180710327547847 -0.6317758396665443 -0.12997183590616324
Ni 6.843882879923431 0.06603947639204698 0.37076358178903546 -0.264673473187828 0.5605732513797894 0.15864606391240418
Ni 0.8994447298278212 7.780369274728088 11.290436049162047 -0.7267675599530966 -0.37590222415853325 3.002134465208088
P 2.0254480323304693 8.28617223452805 9.598928951736406 1.9276575985909061 -0.7715065547316843 -1.3519852867861493
Ni 5.560703727904892 3.8512491100568313 6.66730368384 -0.8422630566199559 0.8227738375470927 0.5107470718862818
P 1.8021323998170846 6.412352820358995 13.170922631739062 -0.35176470768038126 0.48906341626526095 -0.22901947142964432
Ni 5.030551109571513 8.125893321951892 4.7362156396689965 0.45914297455674474 1.3057949042730157 0.45417380347692754
P 3.1422746608007963 2.484843082839419 12.105818322160292 1.0866181299654059 1.7466568211323856 1.121748655119952
P 4.205046151619842 0.7459047646983832 6.2979784435584385 -1.3985952733352043 -1.2041540541010618 0.5789612669686739
P 2.311036582189141 4.2863313117958315 8.757538740360554 0.5654928001685938 -0.4168958929620756 -0.0729761352474098
Ni 6.813671266557895 6.344604450697992 3.3256378962911928 1.0180182694088211 -1.0834497595397534 0.03571185157931269
Ni 5.093983534466011 8.193798133107629 12.774471356514585 -0.014555786326987834 -0.9001223908305853 1.064280128589838
Ni 4.658818510759209 8.948701964729606 10.52690861020384 0.5246973634187866 0.9562151200590951 -1.4238566190051543
Ni 0.698618942548683 4.716379778380721 11.86773185181169 -0.8642539590687502 1.3430108512016805 1.0066498796708792
Ni 8.364208933078077 7.132489830386396 9.646877349628511 -0.2684879618379118 0.45720127744934164 0.7170711586009392
Ni 3.0785017455942296 4.516438345668877 10.889607172817255 0.8231255644595566 -0.5079592247284994 -1.0936184725426392
Ni 3.5435286899136296 6.740180573796042 1.404125912086127 -1.3496360698276821 -0.027886184887306813 -1.9091315147622603
Ni 4.632573149407243 5.824629731963237 4.563183064295612 -1.4240278544756957 0.24054109891599865 0.16662882500756465
Ni 4.944379453295281 8.51122712836525 7.849222857537186 -0.2401528623386445 -0.656286937434031 -0.13030993597187235
Ni 2.511226480804387 0.6020558900457179 7.933806172519818 0.913192593750982 -1.2499199474822666 0.6751470075633276
Ni 5.56532335322 0.6434346654030524 2.9670877940205056 -0.5952628323421748 -0.05698670179768896 -1.0199828493343595
Ni 8.708518258107471 1.2420902535485068 1.631437244423854 -0.10698848763711252 0.0030094762502851395 -1.5875286753772402
Ni 6.2438101158844965 2.521726465833347 1.8235814489893019 0.24790139593581179 0.5683989180717953 -0.809604132934354
Ni 2.5630546277659145 1.7688011589977215 5.012283344206931 0.3978126510783794 -2.145172668925376 -1.1553635149609198
Ni 5.426973857229304 4.829496181514792 1.5083058248944996 0.7052736517453789 0.5025020582686701 0.15698101750515547
Ni 9.110158789736706 7.345830017000225 3.8897475214228736 -0.6153243789787403 -1.2133997410690456 0.9258226238101669
Ni 1.5422554697401079 6.071834900966702 9.941303003451521 -0.09157420996457132 -0.4928995021818995 -1.4392091902018245
Ni 3.5386974084585865 2.0369142736504378 9.748956345187006 -1.0289791392956988 1.822954050333228 0.739754459131068
Ni 1.737761325954179 8.642527554652018 5.017899593867907 -0.8281638982144125 0.5647921745571435 -0.7664358250769961
Ni -0.035367740983174356 6.167181390787082 1.0637773176057819 2.194066823522918 -0.7507520957931522 0.5522300216214167
Ni 0.6777818556941044 4.133635210493875 7.170440696520867 0.16876052663858676 1.9105276237788387 0.53796836949608
Ni 4.846897997193814 4.033254985519382 8.892643455701634 -0.9290982092376451 0.09808218628641818 0.3284887678715762
Ni 7.734209831340477 7.98838124808007 7.431598606366494 -0.06822936459104378 -0.8134505032636377 -1.7849287201293904
Ni 3.1297869485446186 9.141244634984583 2.954993025989338 -0.1902374655654401 0.2856151084365017 0.545216566418061
Ni 1.7548686635254644 4.243944869163588 0.723572281202958 -1.989061198509368 -0.31294542082033844 -0.10011541466636305
P 4.166607556119434 0.21771778773414183 1.1598415978137688 1.1226577971977827 0.6779471960162841 -1.039118541722546
Ni 7.69070069092249 4.584766469104484 -0.30683422508773395 0.5494848547761118 -0.5309117197596146 2.2763140996596087
P 5.587050316106392 6.057488295655442 13.089423974934963 -0.06763903930521255 0.08798340728951944 -0.26414228327470635
Ni 7.233320974963359 4.31882513049632 11.037116778446714 0.8415259213436151 -1.6336537518700769 -1.1738263496517978
P 8.335497317573822 1.2908999999057407 7.522284059887866 0.5946347118398727 -0.5101066100888053 -0.7154523920505937
P 0.11950749831602889 2.8006340436227597 13.305852500703674 0.19649038845368738 0.49926118273386916 0.3077641337297151
P 5.926243084013874 7.450489376977756 9.895388344990966 1.524483426090297 -0.6609486045757584 -0.8698818467784889
Ni 3.6523935653672637 6.713033373239134 8.555575531390284 -0.8331814060336619 -0.4780722073610799 1.3355883334853644
