# total energy = -340889.2406751899 ev
CRYSTAL
PRIMVEC
9.11744155138145 0.00000000000000 0.00000000000000
0.00000000000000 9.11744155138145 0.00000000000000
0.00000000000000 0.00000000000000 13.34429731556364
PRIMCOORD
 96 1
Ni 6.504510230842728 1.9651824041385122 11.651132584225664 -0.30170764312299003 -0.33910202461104827 -0.9093248832654598
Ni 4.518430651362701 0.34315040103664707 6.075057777924473 0.49567089427944955 -0.34607537060508786 0.02780390958614566
Ni 2.783472756189544 1.6960355384833983 5.021085216576748 -0.16609943486665588 0.3147212817738386 -0.38324529478716574
Ni 3.201771843228533 4.443758807537654 5.0310004339344685 1.219424349996571 0.8280034613771482 -1.00238416241599
Ni 5.369315855877048 4.343603715423107 2.772891965620684 0.7714217083273618 0.12404415756781864 -0.20497400044466635
Ni 7.188491555862409 6.030850040542972 2.770409286368723 0.5239262895807171 0.0592371883947625 -0.8217199423612815
Ni 5.294142552783334 4.685325413416117 11.70014612488924 -0.6461431641318098 -0.3436644471707501 -0.040945589174426256
Ni 5.676856266629508 7.874314604014283 12.629415795305013 -0.5844875961035417 0.4544710230023721 0.6537873109406289
Ni 1.9278920694322312 6.506689299301115 0.15281105055689034 0.6917540199923893 -0.008054237763044193 1.2305461709413452
Ni 2.8633415415262244 1.6818852696657582 0.524865563839467 -0.453209125570813 -0.9706300099328444 0.5292674992879723
Ni 0.43753050586440706 0.2641340964566998 5.102431939139806 0.07429588250009786 0.0669965206252072 -0.8699785202573532
Ni 8.852898690654833 2.3687112363549647 1.2455637365108996 -0.025282171605556458 -0.3287101398537629 -0.892935900384475
Ni 6.892739996644232 0.9892697277837673 4.794152103902094 -0.6815745083562261 -1.1205898589251604 0.0819485139493492
Ni 0.7677578456754592 7.190515627819572 2.172531253011432 -0.5240679573649039 1.0111932760671876 0.44677982500570146
Ni 7.786540997115171 3.817035013558425 4.001020419232116 -0.5613551238511364 0.1967780948974353 -0.3842937906563382
Ni 7.461358337546903 3.777036798801345 12.772253276880194 1.4573498656665933 0.6890528190111423 0.3539259769977582
Ni 7.948339109510688 8.951768223553342 6.858235040239362 -0.41428133815736395 0.08330374242566298 0.09685551296816867
Ni 7.45639844950773 0.4270737124965259 0.3353385773749498 -0.7451928565378199 0.5794883431167375 0.65163812580811
Ni 1.8970568831298735 6.438691422469955 9.03255422347962 0.1986902243184836 0.632485464139059 0.38514945378841414
Ni 0.2090838979425056 4.717190870579554 1.390075180299299 -2.336105875006261 1.4936584702896403 -0.5996715029328317
Ni 6.469207498328616 1.709602291061136 7.07977700990379 -0.9665884928736193 -0.02541149809456914 0.7316151178533852
Ni 3.661491465859365 4.421630777627595 0.8372582768243686 -0.06254465550144067 -0.0374458035512839 -0.8097074912814377
Ni 5.781333025895834 5.658566679485059 4.905456914919406 0.4757065353423808 0.36624310380221436 -0.5530003241285378
Ni 5.57970993012696 3.068939841679436 9.197516999732485 0.5380215913315185 -0.35753914827031325 0.1150697219833502
P 0.23712914722282846 5.718650617312538 12.495279087913259 -1.2680390256804808 -0.6617847273238087 -0.07449514299509752
P 4.056531960273483 6.251683585022392 12.893766886863428 -0.4961041251621263 -0.6181708472885998 -0.9675233459830627
P 2.2512512407508036 8.639304394526704 1.413761380918724 0.7829777885960774 0.33308178655889736 0.34122575582227044
P 6.279674129655224 7.869555299682577 5.761547266642509 -0.15972309902666684 -0.4508339404704171 0.0566390886502831
P 4.817619485931555 1.0089634008804829 12.754265477041066 -0.2224834700833394 0.48382762178761834 -0.6371309333308705
P 4.143621759078959 6.121823869320299 8.33119140846384 -0.758991710094125 0.1857200373110608 -0.9195540171926356
P 4.8903857845356695 1.1546054073836938 3.6026529705064276 -0.06964295710911877 0.14021433956977788 0.9018997944459823
P 0.09230406345548124 5.739821315891507 3.688857465766676 0.32420942376993195 -1.466018597085185 -1.0087700113376756
Ni 1.3036846892375817 1.2520617368886908 2.7122418346916732 0.5767256927699358 -0.4259415481041116 -0.5090871676853554
Ni 1.8628847133305726 6.7821636691826725 4.410476500004205 0.6750253943837987 0.24135202485306825 1.3418749378250245
Ni 6.237332732497286 5.4709206211501025 8.91899466924156 -0.4618539457300046 0.5621573080374577 1.5590189979733216
Ni 8.612562939344913 2.363806052963283 10.027959077479489 0.10193626992518573 0.23418018969497734 1.0386097204069273
Ni 2.2107789190488036 5.331651706079579 7.048791385820833 0.4281416410792239 -0.5439040182542246 -0.4268236935987488
Ni 0.4961720644863773 8.888803174291345 9.155055252350065 1.1516603550777198 1.9769039943215438 -0.8737590703457081
Ni 1.2794231780753778 1.0319849400328935 11.405837856620698 0.21147323501576482 1.076112859558708 0.029611137998213514
Ni 4.219679453973774 7.0169651336547645 1.7249505916588261 -0.7994068806863781 0.5478344636568823 -0.16325193811553174
Ni 5.70430888222868 7.846442586117681 7.9755528481491496 -0.9207251546826013 0.37278321891357735 -0.17361862606183648
Ni 5.154900990036556 2.818328734082481 5.008060951753294 -0.6627373210450651 0.043825996046014844 -0.15712294239965843
Ni 0.7914458697831338 7.621369431457717 6.982229505986308 0.6352056912836995 -0.7953622783033593 -0.39772806178437303
Ni 4.82448491919166 4.514573973714595 6.837337864897847 0.20848484181140223 0.5102333654746567 1.0131560562205133
Ni 7.9347723569329505 7.420712784461181 8.720992109392457 0.3774577415711112 -1.7280849716674689 0.3853042341987235
Ni 4.671229849245969 9.089724227084085 10.67842651195801 0.09290938383622709 1.614973144741438 -0.45549920715657033
Ni 8.254028679689707 7.330769226544931 4.629510261581176 -0.7517507122609957 0.5735755771767284 1.6057164020298604
Ni 7.166673518954798 5.827996090205552 6.767813728401692 0.2724839703711823 0.7263924360018651 0.11301438211621825
Ni 2.1401734540205783 5.3342228245116505 2.3956085997821037 1.9554226845193163 0.2343203148172674 1.730929640205116
Ni 1.9910212326367032 5.535435635424344 11.302459749024814 1.2677389779415587 -1.4950838898822574 -0.20156214654963997
Ni 1.2799611071090382 3.4412596725023437 3.8035785820197936 -1.5102942790741085 0.28895908520807007 0.10298579423562265
Ni 3.658428005599876 2.9762519339473936 3.0963167825162454 -1.3284589215294347 -0.9677719716587592 -1.284491514809549
Ni 1.0702052537465194 3.5477696211670806 8.408855596506635 0.8095244287363541 -0.3480373794274651 -0.10291611733995179
Ni 3.6012069443244186 2.531922552143995 7.386201445847437 1.2145963324803084 0.9572080800999838 0.11182704667633644
Ni 3.842345030464204 7.017621589424656 6.162569714259755 0.3393676195676091 -0.22024352500922714 -0.06398858703681883
Ni 0.43526755694653446 7.350937006586568 10.759399419429881 -0.10944697647993408 0.7655385100737073 2.159495770416268
P -0.02983864997389874 5.54757094972607 7.844151373131938 0.8144576043719135 1.3275490081206558 0.9129714788791116
P 8.996443685670894 1.5461174520346506 8.002948023868456 -0.9197591912249063 0.039735885137041245 0.14743322591572025
P 1.8008952302821608 3.343475115112401 10.532106167825912 0.3941531999489212 0.39318209428490347 0.21313391054763936
P 4.138360995478586 5.971504615456619 3.6519473283604564 -1.575561475713035 0.6586698358439108 -0.5019883518570453
P 7.0810880979553215 4.039391170726342 10.565587235578578 -0.26598139336597415 0.14953947362544567 -0.7993109785384621
P 6.320356152505941 7.661495290392275 10.27722992121292 0.13786486550099483 -0.8934321232946033 -0.5154493624579575
P 2.3687659410024553 8.671343083073861 5.697881086148502 0.8325864527621404 -0.686504855778308 0.35454432730804747
P 7.190725328968287 3.8573249864354553 1.6266964860445872 -0.5989297396708008 0.9255536864194962 0.19366268919690519
Ni 5.420838516372204 2.847386019341385 0.570856672729172 -0.03876117992859776 -0.30778444544468925 -0.18540687694601618
Ni 1.9421608649861015 1.0837811237655055 7.240895872926294 -2.109225047186174 -0.598330415523905 0.1313571462894641
Ni 6.992630682962574 0.5490878700043024 9.244355118914175 -0.2341467653538806 0.4945797180977998 0.05884278116982124
Ni 2.923471066559946 1.6431726141247145 9.760806196225419 0.5780639519653851 0.027037977954398593 -0.9423771857347383
Ni 6.812998855485032 1.7950418330006368 2.427527849848906 -1.5484877594246944 0.4350861907178571 -0.24210150142458306
Ni 4.070809873268602 6.810281857992984 10.542902130008237 0.08653099111370904 -0.3871112055004753 0.20416770249328708
Ni 8.312571769946194 7.108084841492069 0.4537276402423308 -1.106487100975191 -0.2896684525702689 0.36938216365182835
Ni 7.791719703744308 3.6931472218740855 7.971282238668361 0.038661678236256 -0.11796555547390651 0.9122914220929514
Ni 3.1910223799965762 8.384326032571726 12.627988004005502 0.22600331031113982 0.6700667648269428 0.21499538923641037
Ni 8.961232127569266 5.299704191944906 10.102153167383115 -0.9879247924575502 -2.1533423492203627 -0.7843499863532556
Ni 8.648467422981426 2.395452691536755 5.970091412063105 0.730871040598509 0.17375000943337818 -0.3359251695449634
Ni 3.6045803975863557 2.8499024331259655 11.946001575130989 0.47950405471160007 0.07743159991560213 -0.8082833572404016
Ni 1.437847837208957 3.503148863697022 12.865009565421598 -1.0047290084990825 0.2316049727686334 -1.2603843373487003
Ni 3.2610443287848985 8.598467375174765 8.442602893543759 0.363770988112638 -0.7036564278569301 0.22403384528959483
Ni 5.726400442373746 8.110082517258714 3.457253487940426 -0.6538477318649191 -0.20074042197929298 1.3186810162070643
Ni 3.023936151676941 8.935138010716118 3.546927169595721 1.0092772899913973 -1.0855359526448207 -0.5651716693837493
Ni 3.7946881650584015 4.448016652600694 9.734878016802993 -1.2987863341656662 -0.22542249810700535 -0.15810304692474064
Ni 7.228371243883259 6.212624466713907 11.807714608482925 0.6604613805266948 -0.45935843300166046 -1.2318180956752331
Ni 0.7060482680733757 8.774151350591715 13.258293128907136 0.04108031498007764 0.5499628228537948 0.19081724932831007
Ni 4.782052347621237 0.46811678602068113 1.564031400599663 -0.02127613576995691 -0.7513781594129253 -0.5787638062458871
Ni 5.895419568238058 5.645875201267175 0.5936174530618761 1.0837050700836692 -0.14154694233827236 0.11628071157231587
Ni 7.638975210508531 8.806390622846338 11.470637335061891 1.3972714123174579 0.1788341088245049 -0.22381710129309842
Ni 0.1395615849346 4.9733362650143365 5.723168309451159 0.17563822759502654 -0.4606552974362131 -0.21467323001030122
Ni 8.035784488524854 8.691966735177921 2.724091773082322 0.5867460531204153 0.7563113350484846 -0.2811619577611545
P 8.53134477270346 1.7140242500666483 3.5882547072868287 1.5439322788435281 -0.34058118025973605 0.9584244690055881
P 1.7820677141040506 3.295581196234138 1.6193970625810545 1.5565952190231773 -1.0174271727920414 0.7840183140454497
P 4.911520013349645 1.1071126559203643 8.655858020857444 -0.5923942525451281 -0.6542110287416087 -0.7998383117968418
P 8.679484958108752 1.747622021067295 12.402015869638438 -0.7884269846361066 -0.08960525916365858 0.2942532437274739
P 6.448210031133367 7.916263951198537 1.4154827538264367 -0.1128014947744638 -1.3552127925845112 0.0959959931813508
P 1.6923156224540188 3.322969989744571 5.963392827977847 -0.02743289939997211 -0.37849646724827074 1.9585566021626073
P 6.75022527248925 3.625240519455411 6.087668110915247 0.5204105631179747 1.6453476432682372 -0.34132680017650896
P 2.318775010637043 8.496315563426801 10.527943144151857 0.744069541566654 -0.606686243687768 -0.7897845271052656
