# total energy = -381170.3618053699 ev
CRYSTAL
PRIMVEC
9.24555970804221 0.00000000000000 0.00000000000000

0.00000000000000 9.24555970804221 0.00000000000000

0.00000000000000 0.00000000000000 13.53181118821069

PRIMCOORD
 96 1
Ni 2.703725283978035 5.519663927409081 1.788769891966406 0.22018721784999498 0.7042364687301161 -1.1675834540658794
Ni 5.088081195328124 6.057820227456987 11.719549577843994 0.6692512109041829 0.5904435565766606 -1.3815200630204723
Ni 8.432052250811605 8.442139156567823 9.897031543447385 2.7019635704445983 -0.35526989262016234 2.86367541776652
Ni 1.3306856872368444 7.271189006223925 4.277473040480422 1.345235112546509 -0.4567631614706586 -1.3123111081249785
Ni 1.6897185114634898 1.8978360628589985 6.824728319291539 -0.2905418563141577 -2.806640893450031 1.5174817979614834
Ni 4.431073223881317 7.427965963976641 4.859462539602788 0.26524811474437543 1.9427463746032287 -0.9977867728532944
Ni 0.08610389854048742 0.31851785656914827 1.3354138665253235 0.6930195169683742 -0.1651121312527221 0.8711298602529771
Ni 4.848001743658326 4.159253765372745 13.13271767784249 -0.4844521427454947 -0.961127469759048 0.09474797970686263
Ni 8.892693777385501 4.477227058468895 0.1631878289272006 0.30568616815476385 -0.8401128430461725 0.3426748295639711
Ni 0.8805461920547802 6.889976084005372 9.418898342262862 1.1271412868904331 -1.6965115677365619 -1.5103171618922442
Ni 5.486074808607665 0.5379001980410802 5.502805573645662 0.5008922905793889 -0.9343805406825069 -0.6369046762526773
Ni 1.7550199004242395 3.6751839902321564 13.001364160464156 0.5081379163982088 1.6137840095293432 0.9412073337963534
Ni 8.202632929606445 5.098047908806772 9.234689808544333 -0.9098198206240072 1.5542796835161234 -1.297088120527637
Ni 5.8359730197388515 9.354934785807085 1.9130329895239828 0.7438376280615061 -1.5853856608923083 0.9917660205805113
Ni 4.881868229254138 8.63271788099766 11.517316825269598 0.7981578387706254 -0.33638205457672393 -0.9282967963822721
Ni 0.15990103241360204 1.7156985345386289 8.69284915291086 0.4131809060043336 -0.6639529386197209 0.9524109158216565
Ni 1.3995835989649357 3.6923529948053 1.6981883688083776 -1.0203425466666234 -0.5481329687339076 1.265738402571762
Ni 6.966409126981236 5.715549603171704 0.18295391125187666 -2.425592349203868 -3.2028368348605936 -1.8994487402568578
Ni 8.355406559960038 3.176746615141829 10.425110183298884 -0.0540967818444036 -0.8498066732951687 0.8790064347875766
Ni 5.849517764865214 1.0124997462649907 13.413286209602308 -0.6238678976733772 0.7720711689859026 -1.2726914368508275
Ni 9.18525102655512 8.758485231136847 12.772514365743492 -0.41026373235753866 0.9548197823734653 -0.6110553192897411
Ni 7.583559490073266 5.591954959588622 11.392702396439118 1.1774940283113722 -1.0977620623973674 0.8660606732601859
Ni 3.6763211940891822 0.05624351401174134 0.5596956807447573 0.5948622544696466 0.68422942948057 0.14998787401677396
Ni 6.095495883695846 8.060269799602533 7.312942878896393 -0.760528972674258 0.5310467026755822 0.427901757154276
P 7.754001385229916 7.418008496057807 0.574706771657496 2.189034660415649 4.2367100690238 -0.21058080510848248
Ni 6.305980298403537 2.5309072799493877 6.429721021831668 -1.1562839698926601 1.8278951963885872 -1.4999342759960232
P 2.6488898687258464 1.413932707795048 8.810467466630678 -1.402448071422391 -0.4979288370756909 0.12212791438171224
Ni 8.52381443195778 6.009465949633864 4.621492924682366 0.1338727136224662 -0.204967315576447 0.007481138868393568
P 8.911305089289508 1.7843745528312027 12.306587152624378 0.41634439133397977 0.8338498928555961 0.033515872369258404
P 0.811420839555284 7.504306551354372 11.31226972428806 0.49890945582140533 -0.8218952915968812 1.3764691308601262
P 3.8479650120215507 2.187323786170628 -0.1383598026047884 0.2048089356217118 0.32316889832055956 1.242272715349654
Ni 0.761599291389803 6.562784967775445 13.394950415380736 0.2386780775653309 -0.5521888839708361 0.029767203960103572
Ni 3.4221792459434806 6.927966089277881 9.956354753432908 -0.130151298906821 1.451160706136746 1.957359239420397
Ni 0.1955112305901876 2.8728635552010213 5.390491437590686 -0.5248107490681994 -0.4530458605200714 -0.9748088239008824
Ni 1.0625459615339328 4.351848021841863 8.972430258882627 -0.6938525543926309 -1.8209473043158446 0.1060052977882368
Ni 2.7364268290373825 1.7986312060631828 2.1289195848305376 0.21752509763679956 0.7270233847176447 -1.8708858410175007
Ni 8.475487890814097 3.765698020803548 2.9408554020674176 1.2142854861081087 -0.02161217895313697 0.2674854887153264
Ni 6.97921422732254 3.2213749323602263 12.679036208695983 1.4408364413926025 -0.40641530514572594 0.37226694139879113
Ni 7.262988194669601 6.374896701251256 2.381503656147712 -0.4897211044539179 0.19004566126960817 1.740883151873402
Ni 2.2674365619521506 1.9965046771856474 4.496255345120476 0.5298940771283777 0.5961676035446313 1.1187273517951248
Ni 6.288487699236931 3.615642585035041 3.8743601607323033 1.2796580979766476 1.193095482294055 0.23279462220136038
Ni 3.9694424224074054 2.9431298097814684 9.410535733411809 -0.7227419837334714 0.19490093247938045 -2.184151621291735
Ni 3.259253990914975 4.104991574828976 11.324596829187021 0.027408216809623766 1.854087538513239 -0.5872247925290468
Ni 7.7360649991922745 1.2794560403118107 4.373143319759645 0.19492227263561915 -0.09483334033181733 -1.2021269963687038
Ni 2.106887415795642 3.9153651430599004 6.5482463249691625 1.773466999346694 -0.9959000973535429 0.38438377926698314
Ni 4.608643445653957 6.221771739624759 6.703727055236065 3.37677890570012 -1.2332759111676823 2.424376731629212
Ni 5.1483899819897365 2.7705614358677786 11.217547114889692 2.621938755880523 -0.6303671322444756 0.7532882319514447
Ni 5.7883676322605995 4.4092999305211915 8.25655673266105 -0.46177784107643044 0.145029244459918 0.447140807889546
Ni 7.545735904877395 1.6609463293247593 1.7901770661699776 0.19830687283713588 1.1380656471124204 0.21674013984165896
Ni 1.3663827936756743 4.627818736706569 4.173278355053413 0.5124866802852077 -0.15532188463517765 -0.30121939063266184
Ni 7.177004488406686 0.9791417664589047 11.431633599700612 -0.3901507636577475 -0.3008715203749399 -1.2012096267607573
Ni 2.716234526405317 5.881525892938571 5.814660155257425 -1.4689761370516121 0.8960996428244373 -0.10561757543151487
Ni 3.0764785189674937 7.464310259602396 7.758315363438762 0.3980736180492499 -0.33783549919379885 -0.12948949695310605
Ni 2.051950299385508 7.983938457784616 1.4219227205856297 -0.5132091602735291 -0.6152135644324889 -0.0928078252613563
Ni 1.5804914678301472 0.21441932496419713 10.398966513815052 -0.05150176742371775 -0.8064439900388176 0.08932937979445262
Ni 8.560953845727472 7.604953715481049 7.796001189793415 -0.3709857606935224 -0.2726348941267498 -1.7209182787157005
P 7.009299278954748 0.013212829529068031 8.932565254079998 -3.235504243186628 1.302020267721932 -2.0782633086973368
Ni 5.24592139245936 2.3039287865349167 2.11358767299228 -0.8739321055884627 0.8107966105805585 -0.7160622577204506
P 6.080795443592831 4.512055082285282 10.473702996565189 0.04698819582408037 -0.0708878852598134 -1.5491901848083578
Ni 0.8949766618112489 4.986204371746289 11.265909713716646 -0.6474685678114526 0.9222045674416053 -0.17252025079133515
P 1.0065086235060263 7.230258912930814 6.248476614589254 -0.6864652607896242 0.8749014114802676 3.2305484418432493
P 3.1730391456567295 6.11335830525498 3.753440257603186 0.5008269845590924 -0.4560049431483953 -1.067485265790697
P 6.911398046092596 3.792990913372164 1.4272139544667337 -0.11566364681360726 -0.02248326870418063 -0.2465374257087496
Ni 5.659845105297073 6.935325554889201 9.394554783274664 0.7302475480818972 -0.177164691541882 0.3123895483168684
Ni 0.4007598847756551 6.07582133241332 2.5025187885429054 -0.016669747346197097 -0.10391370536653072 -1.787055022443774
Ni 8.240031219050906 3.322142288764476 7.536786202978202 -0.1300646527302857 0.3046263594316818 0.8816456721826365
Ni 4.375969687394544 3.8427597618467093 6.1001815334091845 0.09020484042087044 0.47972696935568343 -0.1737782915681523
Ni 8.743701580995515 8.356728675013327 3.468000240377783 -1.320927646149396 0.15512673790523607 -0.9859175322195342
Ni 4.036389521014908 1.570367579834675 7.075215497643076 0.4635454744998146 0.8582118666397284 0.3034205120490387
Ni 7.475201529062365 7.971734318831169 5.499436491649726 0.065836438878835 0.6499352841843904 -0.42172519602991887
Ni 6.110788039626906 5.8528831486372255 4.824090876869383 0.33492475330490706 -0.166565575869797 -0.47520465600529765
Ni 5.086361521202866 5.05349355606688 1.6361451151258055 0.21549675435286111 0.5715418345761512 1.8461808820716528
Ni 3.000757384097249 5.2118422589878435 8.729655726527275 1.6631923847591419 -0.9656040174731629 -1.420936360034566
Ni 3.9241854071217093 0.40543721348516143 3.5390560657662786 1.8739557381920757 -0.25557048244529534 0.47287755053401787
Ni 1.739857182330564 1.468879069764995 13.153164233369418 -0.8515025729403527 -2.074819316012795 0.9896037228218699
Ni 1.7277639900948767 9.288736577544453 3.3116134452491846 -0.3627474319441301 -1.5651644487494272 0.27379831830723167
Ni 7.256192708206887 7.70825435527412 11.804908284263536 -1.2800841297704728 1.0314101173346948 0.862897702151172
Ni 3.0063694389038713 9.034687084996884 5.916703398915899 -0.2498685469645116 0.15177350516228702 -0.5108447738064106
Ni 3.6572476041945157 3.761029013097874 3.6058755756483585 -1.4179487381611515 2.800201308472274 -1.594394806369454
Ni 1.5393857089005858 2.5198958182118467 11.051348931687308 -1.404574887957407 0.16290946717444849 -2.16243042756456
Ni 2.744498202754321 7.869755794091389 12.354056630373377 -0.3309786241729655 0.10129426546581265 -0.1487429458660793
Ni 0.6092481831196738 0.09513496136603752 5.66786655299102 -0.657990550388699 -0.3055894946758995 -0.7819159229904663
Ni 3.5325342478740356 1.2895337005082168 11.500537983320573 -0.4524498788072852 -1.3433180980294543 -0.5272550968436339
Ni 4.51543895717692 0.20561200468612686 9.022226844036611 0.18513845377597793 -0.8436913044260503 0.7408710892340143
Ni 6.296143022762275 2.029381887881446 8.659601195266552 0.3254880333720394 -0.3696189622529828 1.075519191838767
Ni 7.854029096849108 1.0430470758878587 6.637948595388954 1.073547412824377 -1.6709990252877545 1.8847240324521735
Ni 7.261934200850895 5.723926080362478 6.970262676311384 -0.6367997752436968 0.9182900628785475 0.41793821818366084
Ni 1.3863532028722225 8.847057694147464 7.987854876921495 -0.6956813800712535 1.195917268013566 -0.1417703712029881
P 6.321457365530863 8.099397008732067 3.637716359089096 -0.14418849372617748 -0.31312771203447365 0.5028051913313856
Ni 9.666787518306887 5.161675851441329 6.782685060596918 -1.6408453845225097 2.0146079366302208 0.1398708401874301
P 9.858725340029265 1.7143579283657124 3.0741837710218536 -2.4864369912950663 2.2795891708664544 -0.4067410639162608
Ni 4.43240458449442 7.577568367314301 2.2880671041193623 -0.6925580039509234 -1.5053716449615107 0.9262316863231275
P 4.784669658937791 2.3446369863925103 4.379246313792349 0.11109685337853126 -3.341951256497974 2.115851808474072
P 7.812969565718612 4.214532967495968 5.6117635714884395 -1.1685692150179166 -0.40137285762581193 -1.419402954109175
P 3.595958788192702 6.042038056855826 13.221175495911421 -0.7737768388230997 -0.15882964067812 1.53233917468929
Ni 5.324915455503484 7.5715772445553355 13.60840173023249 0.41779886439231917 0.2938819764309842 0.28843612282506453
