# total energy = -340858.86592536414 ev
CRYSTAL
PRIMVEC
9.34619621101482 0.00000000000000 0.00000000000000

0.00000000000000 9.34619621101482 0.00000000000000

0.00000000000000 0.00000000000000 13.67910288280991

PRIMCOORD
 96 1
Ni 5.031421856256776 7.28203260542396 1.6348992393693789 -2.791921327851669 -0.9896410038177086 0.6983890088104037
Ni 5.223878726117661 5.3951758080334695 11.293494736312226 -0.16762949835793714 0.6316876508281121 -0.2832656343677186
Ni 0.3336956505354549 7.085267139166129 9.6312513310458 0.34778309732481394 -0.25712754251977005 -0.6567286529571399
Ni 4.725997514270378 1.8713701504713232 7.9878713533454295 -0.9754009489589267 -1.043035874499081 0.3969829560882324
Ni 2.1747944064947142 4.735222209810039 8.53964460108004 3.299237776789847 -0.4144086077638476 -0.12641677156505324
Ni 4.7774763623275724 6.291195627068198 4.206282653740013 0.18801397555156008 0.4864352346137945 -1.7417257023793553
Ni 3.175809392391195 4.474584839481245 0.6231127624805383 2.1288042548696824 -0.3568853167363983 1.7038934620229302
Ni 2.2187215281121464 3.731571596616512 10.615708595951334 -0.32151413632595593 -1.4698575112153007 -0.050274322774519875
Ni 7.47359224046032 0.20587333434638047 1.3870203613214267 0.37826018286774854 -0.43984915932413926 0.24766202623149608
Ni 5.24345900692373 2.3300347235299372 1.8119199317699775 1.8934680971933906 0.18949441675182846 0.6383974587481199
Ni 5.289096482425415 8.222942204273268 5.652041053620818 1.661264314498494 -2.2575332195076796 -2.8779913201685594
Ni 1.06129795066934 5.451720294370802 0.8726038593538112 -0.5859078734898361 -2.0260462603741494 0.5768154242702647
Ni 2.3250999319950427 7.255582870492612 13.520521294268892 0.11490182894691825 -1.68404274584559 0.33807152646400485
Ni 3.0453364949913326 6.755009954171751 8.17405692563072 -1.8347993797075883 3.547107291046459 -1.41825367099608
Ni 7.607934463040952 6.360432247694143 11.360754636465385 -1.4451173281561436 -0.28377059902859514 -1.8913603068217686
Ni 8.501580348269123 8.284430828341586 7.415673863297931 -2.5018404703343298 -2.2042476207106616 -1.0564251513217935
Ni 1.1913876540295611 1.0710834179743298 10.146406182504432 -1.6913346515213132 0.46852210177879955 0.8749734023687834
Ni 2.012712673922478 8.740833621946706 2.4151140811460325 -0.9849795937862973 -2.084367364712546 -0.5883223964685997
Ni 7.577353709438348 5.039375469128357 6.4248013693970325 0.4633806667871761 -0.08837730029382844 2.4442814409729388
Ni 7.435768184888884 4.8725458689430035 13.047771069084826 -0.748506494292085 0.050523462670848465 1.7012033167852765
Ni 9.016527714174583 4.905799634627008 4.599351884168885 -0.8450498753364737 -1.4061206351779718 -2.2271006140494354
Ni 8.317245322809416 1.2496705328394138 12.465711472924408 1.2444856638405728 0.7685423298970377 0.1320893964697983
Ni 6.096906902773904 8.536338851523427 3.3432137836360116 -0.2772225134974322 0.11076698084293828 0.36354473103444485
Ni 9.205629299639583 7.1134833051582635 5.252898664973433 -0.3227562362631732 1.036845429417653 0.20233836259403218
P 8.568078533441044 0.28125881737915637 10.620674229933323 0.9197609909971193 -0.5253414247606888 -0.46432940385369065
P 3.062206378931644 1.8453036095796171 9.633316840381427 1.0978826471356318 1.0612961062608495 -0.4248951091174682
P 1.1553113371267338 7.969968714737304 7.1261698317292215 1.5747325520538362 -0.4083654868935612 0.19813100938090392
P 5.46980518380266 2.145092195324459 11.753836951568783 1.3667202790034787 -0.9423820708307448 -0.7969285943492147
P 5.243907624335993 5.000065368378801 0.35882850643788833 1.4598744318606598 0.45652507731792347 -0.28041942316817514
P 7.034900488443504 6.253979074242537 4.924353703102525 -1.0128724635418234 0.9803755193553824 -1.7369516780294796
P 6.826209275976346 1.2613906627347884 3.168285704539699 -0.2802898395688463 0.5413018047446871 0.9255739981344704
P 3.0511685213507533 5.9548727608121785 10.32535592977776 0.05315807208021813 -0.34740540227042105 -0.013892698821692204
Ni 4.63304959416711 0.32947958147979034 10.168524890168221 -1.7173336466882358 0.9000187753731854 -0.14118261702031815
Ni 6.4940454669798475 0.11650407272551906 11.66309006064443 -1.9740482700403033 -1.0060433564351319 0.9726974339848345
Ni 1.4238836279349325 6.066765420387476 3.3377425204456195 0.39921261674969954 0.7996567919136551 0.21657713190123346
Ni 7.389840977308445 0.4678369299001775 5.334357306224721 -0.1594096815513061 -0.09114329307473981 -0.4896485993447696
Ni 3.945319101167719 3.4076230939820826 12.288170197401664 -0.1935721863656279 0.7919519670702296 0.46022386632574935
Ni 4.719071982968567 5.942105856954855 6.4221881729706 -0.30678685741811035 -0.3614546812746356 0.03932065197649357
Ni 0.15039151050434582 4.707211660131859 8.286321563810352 -5.165531884671607 0.28721947680914406 1.4613965249321412
Ni 6.94160675908495 4.513072474974987 8.913056911894916 0.8494701158913563 -0.02822968426965461 1.2589936276487608
Ni 1.3810032802794474 3.383509908072939 3.279250286843377 -2.9719527994183847 -0.15209540727808 -1.9761707156999453
Ni 3.8853632532579687 0.5424504171360173 1.8564181059684364 0.6918890029083568 -1.1349301868072326 2.67001967054815
Ni 8.270495649973162 2.6652453924513893 5.848773808192337 -0.33624090101316934 0.43632597666222916 1.1611873207315486
Ni 7.019395149132159 6.990206978746789 0.8181940442031636 1.6158977134382364 -1.3918738954509706 -1.0914780291608688
Ni 3.9424872037528083 9.08359601730792 7.005793629964106 -2.189121820812817 -0.06697749446181368 1.4917473693098566
Ni 4.31115725467222 1.1084588561335025 13.477212890832542 2.2306693052373 0.3081580267340241 -1.8483082128273007
Ni 2.269209679383927 8.146836129522045 5.162438702269007 0.17327204135569513 -1.3111739091967418 -0.17611053924575476
Ni 0.2799157690011936 0.8270131148325698 3.099479943553449 -1.5575573258261306 4.038813030030574 -0.21576466330226712
Ni 0.13656474801055238 7.475900750894257 0.6582955830372749 0.17339982518281102 2.971360931470657 -0.5472832191391027
Ni 9.193843746371588 0.7981305650593037 8.19821497328109 -1.6696021449402279 1.1432610752704313 1.1038285803064216
Ni 4.884041690132246 1.3808163563576712 5.252214523419732 0.4641365711165942 0.3126723696646099 -0.4899087949846917
Ni 2.4771345037718024 8.144929505519928 10.08825601967904 1.2680210279583517 -0.14302018444968917 -0.17123778453448574
Ni 2.6630396901744287 1.8922215139454703 6.299472618324454 0.564243501142525 0.7478860870992667 0.9235736798749902
Ni 1.7678423363955156 3.003951538710058 13.528140313320497 -0.4752707333565428 -1.4320173004390757 -0.4044702656042131
Ni 5.6911885305584295 7.580325799794592 8.268402102049269 -0.3279665768195191 -0.09064938415745678 -2.1991514371346774
Ni 8.131620522289454 8.12983539883649 12.587565308291166 0.26053991063542875 0.9672222698028763 0.5280559954783745
P 3.1129001465173785 6.171994242151448 1.9199442007841145 -0.39515670151277105 0.32492958976540814 0.41166266958759423
P 0.028015222776224064 6.07745746871308 12.638273095171034 0.43406700542472343 0.5135958541889865 0.3805083554719769
P 7.86183322598971 6.345786758422969 8.462261835943085 0.6865688762470241 0.35827474088475714 -0.5174900470370701
P 0.8463840408462486 2.316436008220711 5.079420180890496 0.03161788401559716 1.5590323677097604 0.07687778429466115
P 8.859128425842842 4.020303632388285 2.3032186177119085 0.2574558723934663 1.2325102366462513 0.26862525874672444
P 5.923740581640334 8.62309024361981 0.24013929306680426 -0.9698080282521814 2.0781450379519177 -1.8252819271354563
P 0.07861085530302604 8.283514901124882 3.34682515380473 -0.5565178503634931 -4.250655989680931 0.3271217123207205
P 3.832211436100876 3.778863348825918 6.549923569536048 -0.4930229151336412 0.011145217983542094 0.6357150268199503
Ni 6.736205407641054 1.2415860732225885 9.655586021802248 0.9572821278710286 1.3768206006622739 -1.403142012165622
Ni 4.539568940886778 7.416561751926368 12.525243003531727 0.67913093191174 0.46998583080851963 -0.16166736723723127
Ni 4.594346996163325 5.357959255207807 8.582118389205663 1.474559030456028 -1.6639205211744181 1.6853727775109233
Ni 8.827024242277762 3.1235454638625395 0.33932206058092185 -0.29151707574323343 -0.25277826441213885 0.7185834814804076
Ni 7.197879455840267 3.5079077780150714 11.2309948538271 -0.12166100204762273 -1.010844120257885 -0.3792235752222824
Ni 5.830035619653871 3.6393433336120817 7.1540336461288065 0.717844546431854 -0.3352476838619646 -1.1268918898837883
Ni 3.147593226399062 3.5528723273983625 4.392236440362302 3.0114878813985295 0.5199027702436207 2.1789716197526925
Ni 9.317194842351773 4.953325041738634 10.780104446675162 0.8263229883509317 -1.228270487533291 0.06030265354479937
Ni 6.138319897643446 3.7829289441245524 4.394070164034927 1.1936107313675766 -0.3782995207461162 1.3717632407440246
Ni 0.292772396340968 0.667997869197074 0.6159031068176261 1.7430151106147402 -0.12751668949745135 -0.29264527581040567
Ni 8.603257615519345 6.343655825714719 2.2559436886554622 -0.24802223778439222 -0.924111554656331 3.257224151362223
Ni 2.290575083642959 5.256010948271009 12.37106628361141 -0.6241612605440799 0.5893035294349465 -1.459792156559499
Ni 6.646005269187897 2.1557935898461524 0.04170179232868529 -0.5263626669363516 0.8511346480779729 -0.7890836443834991
Ni 2.420412439708782 1.0703824532676687 4.202932042442173 1.1421747841847878 -0.04031695445149185 -2.0591834092477503
Ni 2.655740311029064 1.3180473034251872 11.8888091077658 -0.2711750217517717 -0.2697763416320321 0.01482986592398091
Ni 6.813105909059827 4.692566170860685 1.99623252635907 1.9790004718392562 -0.12692147911561366 -1.283711956331047
Ni 7.512435031405436 8.100235995823212 9.679264609593263 -0.39425501563410814 0.6212600277368849 0.2228537089385646
Ni 1.087476645914112 4.478482203250281 6.352520692704961 1.8415043025315898 -0.43040755429526517 -2.064262623542871
Ni 2.122072514357707 0.36689520828214495 8.116126398413417 0.35678761481626936 -0.6399203231505495 0.21209621331174439
Ni 4.875499266907069 4.360729478727296 2.729720126170082 -4.4386756216594465 1.1433747180301599 -0.5108486304611525
Ni 0.5079564112310264 0.39402628090836705 5.7714592702868295 -0.5112738909240291 -0.7656002165495782 0.3317684670641125
Ni 4.978877541845455 3.458111245253863 9.851785108577095 -0.4719750933244065 -1.735962317533017 0.8215973007404882
Ni 1.0459888814758607 8.587172812050493 11.766928168430386 -0.47541471513357475 0.19592783108199807 1.1347784917207164
Ni 1.2235105299868196 2.628570918998878 7.961484237927877 -0.1850723764247329 0.12599768174976367 0.8561989499747577
P 2.6990973146850785 9.136944104582879 0.24110008202473449 -1.5302231567875517 2.2985176323398413 -0.667397959745528
P 5.963031989997713 0.3408099749982612 6.97585028693476 1.275443545674668 0.7207092695741588 1.0578348871851266
P 3.1882024484049643 2.490751911473206 2.3779751017479067 -0.32524892077803985 1.2634182390790176 -0.17036129546680337
P 5.437392575766649 7.737220393537535 10.30594574974051 -0.18507649018979094 -1.3427563119887134 2.5924955109187415
P 2.678442221328796 5.737975588179039 5.141619115861562 0.33762646850678624 0.18760259904575435 0.09197118829267387
P 0.21722428949624673 2.95865052626757 11.93444284478905 0.7755128476775999 0.7264495144920458 -0.8790439728937312
P 3.8126218090987187 8.658596442561219 3.7080761942688394 1.9133517234911952 -0.23207677019872935 0.43489412931170907
P 8.025485119504866 2.6323935131992036 8.35899851921659 0.32931280643476835 0.9917896747295951 -0.8979930031924083
