# total energy = -340857.66847426724 ev
CRYSTAL
PRIMVEC
9.36656551760189 0.00000000000000 0.00000000000000

0.00000000000000 9.36656551760189 0.00000000000000

0.00000000000000 0.00000000000000 13.70891542195855

PRIMCOORD
 96 1
Ni 3.888145724107129 8.692500805985318 8.883664918814592 2.003009176049028 0.745717104472406 -1.5015687262756525
Ni 7.162247500154132 3.049107501196837 6.249606803917475 -0.4373243360197565 -0.14433016151036435 -0.6583821294001629
Ni 4.6732044288474235 5.715515860733125 4.099925648057723 -1.2185609735550111 -0.07371738428880853 1.3480995785784975
Ni 5.721107700460261 8.209991540149948 12.332979546291686 3.3429655566951006 -0.46944049982801084 -2.839953905779864
Ni 3.0696483797925 2.346305976496264 10.595511580635542 1.0597475308268072 0.8235608522247623 0.6316125746158026
Ni 2.6769176462596502 3.35692095002915 3.742356065532743 0.1381685127843427 0.1783376288040606 0.25233732021997834
Ni 7.71860277002425 1.8547111419250102 1.4973972666438338 1.4194656890263102 -0.4937438524600658 -1.0314160308719655
Ni 1.2051585432692808 7.070820452287163 10.9309816880312 0.24409719169837313 1.2330326848086248 0.8681226979955371
Ni 0.29234831219332585 8.309061705633908 2.000775240874615 -1.7578555180616824 1.1603517122041307 -1.2550639535770514
Ni 4.42013855657309 4.425046637003609 10.558758113457467 0.8193072191547309 0.45825697240736557 0.048738859966599934
Ni 3.004850478230806 2.1541040481866434 1.6348019755972274 2.2597320269312116 3.027959910911624 0.30685807697567796
Ni 9.191289163019622 1.2446573508561067 3.1794947791224746 -0.12678572486869777 -0.16265209974800374 0.6944511072085782
Ni 6.901182580765938 2.9160929015903596 3.4892068308236155 0.7226039154937103 -1.112960881624993 -0.5366144265713468
Ni 4.127527043883395 6.717176397450026 11.977643889687846 -0.9109901867830246 -1.432441789571004 -0.9099638024010392
Ni 7.207825208884863 7.1629968254106995 6.463026813523381 -0.21716360053232278 0.9778548098160578 -1.653754893495326
Ni 1.3872539471809442 5.42909564797582 2.629356098912155 -0.8929590403129265 -0.2956118146378973 0.6695412313407759
Ni 2.493529656280407 0.6928907615258942 6.89214384485859 1.326671490611709 -0.15468913614718519 -1.5129808247673362
Ni 5.427831161605361 2.400341694060504 11.92777067392384 2.4296845169953705 2.47585587334511 0.8230983107660471
Ni 8.288689425220973 4.17738527314227 2.333463478255264 1.5204491081199234 0.030911087756559666 -0.579675519426879
Ni 4.7811447320560045 0.6341623945423991 4.610815607985596 -0.8435804898797988 0.4398859260993456 0.6789836077005983
Ni 8.342481612076828 7.371740108759052 4.356858038655946 1.8333528770690488 0.12686774305954282 0.9101923734720776
Ni 6.697619008253609 4.451984879977219 0.42716129241556605 -0.3530471739372307 0.30750805185485103 0.8513511349641533
Ni 8.621624003279718 5.172226950024406 6.625710946663658 0.11198594085170391 1.0870986691462503 -0.6415892262125402
Ni 7.111471347455962 7.119554693661185 0.6918632492678259 0.6015723194999704 -0.5259582324090812 -3.345499635970864
P 4.860282845715263 4.135226360894628 2.5933838033140506 0.1966171438395388 -0.4759497617014383 -1.0343635435360639
P 1.4197840298816904 4.044979500306753 5.63469363855973 0.42331799443833545 -0.656169180909244 0.5641123748812994
P 1.9382609080323112 1.3587514877342495 4.7881677830231855 0.3224965548438833 0.30819839305365626 -0.4657640794176882
P 6.978709645123575 1.2296708457247525 4.810623187649378 0.18017288224058647 -0.44127355047549166 0.5038094642261839
P 5.16995087455758 1.369682269914431 9.904609341009264 -2.8522072692259206 1.3611029328167012 -1.1825475315748795
P 0.14395381169579569 3.4955835887570066 10.963321629448092 0.4091126494722309 -0.7836647873607729 0.5773314446747347
P 4.4040374301225915 8.34637810341098 6.547802663081742 0.5173175260149478 0.23315843329868235 0.1521637986221702
P 7.518767090663347 5.291716228749835 10.330860203238101 -0.6419810623343202 0.2416993808901579 -0.3219638222688649
Ni 3.538248295552832 6.11468142490675 6.346651917895561 1.9902881289379335 -1.9275825223785963 1.5851385778785085
Ni 1.6361329645842058 6.1249097146589 5.138828586682612 -1.0610230551051212 0.25851053891022574 -0.668287561439333
Ni 1.0082171327118694 6.8973048225632 0.08874821007473953 -0.25546223900220516 -1.709751977686236 -0.28900690772687004
Ni 7.902140625054807 2.0476530289254913 11.792724466215493 1.2388906862512987 -0.6109920701519735 1.4359621440194366
Ni 5.982547282476739 7.8238455023091875 4.625580125509692 -0.8120343396424015 0.3631953181148261 -0.7777679622603638
Ni 7.012878876823064 5.651279953113857 3.6902479871910234 -0.648759004488102 -1.1418528820689948 0.10705456498835755
Ni 9.14129043527514 4.755845638081136 4.529124168514582 -0.8849014601157729 -0.8566972297674148 -1.4395370058548884
Ni 5.599220580913814 2.1973775817534293 1.3421511233315624 -2.1493270574133825 0.9492554009118103 -0.5488451643095837
Ni 8.49532523128523 9.354286139454517 0.17384814280656496 -3.194060374219544 0.2053614656910721 -0.553670353612369
Ni 4.919798004218154 8.60807058270155 0.46129305785222574 -2.0057569139974936 0.858440951931399 4.070361751371132
Ni 6.011686668391516 7.049361650252204 10.270650982216313 1.0628912186621113 0.037719368927644714 1.1390570644914124
Ni 6.792577251392154 3.201257994542913 10.23147063786353 -0.32377027934998437 0.7605168884893999 -1.3489948366992575
Ni 1.5796525733704139 8.772247746415538 8.941955867179567 -0.2206325329175297 0.7961351519136418 0.6228911355824047
Ni 4.329751197499609 0.6460223400407247 11.874388742645955 -2.3331550199080526 -1.9632794615595734 1.0974298758689294
Ni 3.5518485489595357 2.176003078809835 8.221689444061541 -0.29363977851319106 1.7329718674461252 2.2396470832558784
Ni 7.505288602610835 6.38879397032493 8.373378165718258 1.1354006986857479 -1.0025232590970152 2.9490064750348566
Ni 0.27087077702695356 5.296380778471969 9.540966477279804 -0.35588901426139996 0.9857059304293606 1.528250349331897
Ni 0.47195127297033096 8.99577147044969 5.423137575529537 2.306279021452815 -1.8708812130318102 -1.1677770581339242
Ni 1.2390093117347276 1.1068470696075956 10.874624935484741 -0.5102127966493665 -1.8413351239435773 -0.41979121223199956
Ni 8.233136324012184 0.1935057542560484 6.859365548166606 -1.8285109755957156 0.40133480529902493 0.9763517429079701
Ni 6.761105590616309 0.32050139873914585 10.615526058238467 1.1633871565963447 -1.0280625410187003 1.6890085744912975
Ni 8.159037422703344 3.911608971203406 8.323847766259131 -0.15501540913835238 -1.4058473269119272 1.373315158612177
Ni 5.211510326599968 6.607615678374119 2.0704437566039986 -0.628142356679015 0.33256756592664016 -1.0072286349924848
Ni 3.645692170778936 3.4018804654232135 13.012927587323514 -1.2622836112539422 -1.4436250598813332 0.28000778955205324
P 4.125073003668136 8.561668616188594 2.8647931578691623 2.444769436352951 0.02778796874654569 -0.14557843209516863
P 3.1711070195317697 6.426588062953064 0.12888675409936023 -0.4452482188525235 -0.7972445829277367 0.1517069135904097
P 5.24998817852472 4.883184098869114 6.229057495412676 0.9203281763544988 -0.14577203616321346 1.083462872165876
P 5.249913245999063 4.592829928514829 12.590487980680894 0.6566525483035658 1.258546255698697 -0.4897499008093243
P 1.1013301624061158 7.5469042540474645 3.646078073286068 0.873122979423606 -0.4510774239397909 1.954896636812517
P 0.7005263858903193 1.3219408845053602 7.653372133126889 -1.0159798988225535 0.744787393569285 1.1031804051994614
P 1.0436883170446438 3.3154551636438336 2.070800622757439 -0.288958828097754 0.03514235222908786 1.6862289548636316
P 6.35395034589453 0.7760686749746236 13.271944038791563 0.6914331463178609 0.7839884892487788 0.6537531152685837
Ni 8.73743222168226 1.4598354648452352 9.507667399534505 0.5621336538883739 0.9537085515871575 -0.5933558451274491
Ni 3.576557549294856 3.2396421808105944 6.076586665519417 -1.8990124240503874 -0.09709205445900698 1.342345963924172
Ni 0.9244303924921788 1.4441558338515557 1.1776451931612555 -1.6364526547714526 -1.2218201039222572 -1.7468265139410304
Ni 2.153129925353105 7.749147140795093 6.916120379755616 -0.7274185632735343 0.4673926161600466 0.19889385568885745
Ni 9.238534120446216 1.7868410068113887 5.444797758727196 -0.46902398111588256 2.5319074649230395 0.8146676635001906
Ni 1.2377167256671484 2.457449645176671 12.673014917812981 1.8272837880568338 -0.16549522562375368 -0.27271125589064
Ni 8.834479208973487 8.434433187623396 9.67176307412684 -1.0675078914985163 -0.7926479646959899 -0.30424352217096634
Ni 1.0680226547516807 9.024180264239314 13.140379383556546 2.278276365592302 0.9652618036423958 -1.5223252420967137
Ni 2.8374137496507483 6.578391993367978 9.046321888914319 -0.9375622808445981 -0.34681070610921566 1.2433752043852135
Ni 1.4131618679267732 5.502463957159508 7.51824349964032 0.3151221167566831 -1.0790691139735544 -0.6533417387627781
Ni 2.016256300675304 4.780020744171153 11.722905148778226 -0.24589979212475072 -0.14750598813518467 -0.41695682810699797
Ni 5.163197580682764 3.5136797937031177 4.633215749874116 0.2347720576427053 -1.2586894661447807 -0.23367316815157177
Ni 2.5355012372139067 7.37439084685416 1.9331626863179385 1.4972569862741762 0.4583675298433009 0.10121764659160633
Ni 3.4039504764444817 7.649908377128405 4.736965451585342 -0.49197004838909464 1.9520092879623931 -1.7947261658357865
Ni 5.759126590665366 3.7206715292642434 8.12305388722639 -1.147770018884378 0.06788277988490245 -0.49455863505187725
Ni 4.984127577494493 6.2238581147886665 8.529098257255308 0.4691998445721145 -0.6499393979494484 -2.0444674431938146
Ni 8.788704802362906 3.324044304397241 13.561119895179896 -0.29657700676464405 0.7577771209607336 0.7840419681945335
Ni 8.370656241723776 5.84702244326076 12.416452506560187 -0.21250219050091143 0.4194124887363422 -1.5796135342952216
Ni 6.650926678203732 8.76053017271596 8.547769569335834 -1.1575744065693097 -0.7717533806351677 -1.112053282209059
Ni 2.3913123247188626 0.3778191609271523 2.8286972236037244 -1.072146161601476 -0.6488338235900954 1.5141463058303473
Ni 1.3463969875665893 3.2895940757265403 9.03926137168431 -0.9951321088392668 -1.9091667388755702 -0.4653768712815985
Ni 5.085211554605479 1.0388083363112466 7.14156331310315 1.4507346743429208 -0.8811219384686825 -0.8715360945524603
Ni 1.9222721803702973 4.401920586272787 0.4950276809029046 -0.30915638609155144 1.2324919818138065 -0.9619746482506918
Ni 6.209630301479588 0.2334288672694059 2.7328997361778247 0.5506467362946968 -0.45494976241100354 -0.34306820834764784
P 0.003600507857807902 7.712374003829031 7.3919840672218 -0.6766143361374735 -0.698035739236043 0.3582328319032282
P 6.9594332528983704 1.5963063271976314 8.33197700863632 0.07065622886498155 1.2903338325229392 -1.267550001859204
P 3.2526617071434587 8.516175206549226 10.879504916218139 -1.931489056521854 -1.8645282742305889 -0.09271912220229192
P 2.908402951144833 0.9542657142389934 0.006044244850789384 -0.24099001352795912 -0.7500694679038308 -1.8461420584139174
P 7.334901405833041 7.507892507877408 2.579771373371927 -0.5242039687221359 1.3156080337086955 1.839117290356652
P 3.100754744505767 4.402192216678293 8.888025055151246 0.4926164237238419 0.1533364787740327 -0.4602338936280783
P 8.831378875724438 5.34606104298241 0.6797691396268228 0.35988887944941245 0.7066335082073831 0.45972532942277594
P 8.491662904093754 7.9814754365939145 11.723097163375222 0.49034254008800077 0.13520763038380584 1.1415109253485436
