# total energy = -340856.31191848096 ev
CRYSTAL
PRIMVEC
9.37075024131566 0.00000000000000 0.00000000000000

0.00000000000000 9.37075024131566 0.00000000000000

0.00000000000000 0.00000000000000 13.71504018811752

PRIMCOORD
 96 1
Ni 1.1496880007896189 0.8238407698735851 12.60388892580473 1.5729253236417684 -0.7980447102315289 -1.9762074824751514
Ni 0.9570722254859598 3.320956473097325 3.87277091720966 2.855856435942733 0.8062884382975598 1.2199933351261636
Ni 0.3662164238135361 8.438079649121176 3.7181338563661415 -1.5577874395590656 -1.8034162374106166 -0.8357103431031027
Ni 0.7009386924717296 7.829327588257562 7.514594067363913 0.9195673869290745 -2.1466081158203223 0.7770459964926747
Ni 9.587964435670045 1.207767912019591 3.7582912703036895 -0.49758533769334307 1.2515335718262897 0.24672691601173638
Ni 8.092102172108946 7.03227966804334 9.091549868161712 -0.6847089402201497 1.5036320365625846 0.9393841645446855
Ni 4.272218833310199 4.954109601361606 12.12534344231131 -0.9027001788600906 1.0041633658035996 -0.5815102586427726
Ni 2.8595126091577447 6.734289804036707 10.4680596945878 1.009544684720171 0.24963714767999587 -0.4401913731549064
Ni 4.757436291117227 1.8314663198357395 8.719926521344028 -1.0712755860710645 -0.6451026386824374 -0.44110668588032415
Ni 3.253187205911917 7.495719501826739 7.40251520672079 0.02797411661542279 0.6596555967959478 1.8422686915014401
Ni 6.174406206720092 8.649465037557077 5.3300350597065025 -0.2723883253335825 -0.64120073252487 -1.2853682609875476
Ni 7.03287939607153 1.850432718727231 8.383949509201859 1.4120408573171488 0.8141501004338237 1.0611258992315724
Ni 0.3244987799276514 8.597729124375295 1.09701688671388 1.1450791023157763 1.4191365878216655 -1.1925306109295204
Ni 6.793334902562046 0.8409826836543189 14.075334762018166 0.11996690217465145 2.176608004616522 -0.7139038166165511
Ni 5.731863146418919 4.427435943605982 3.9705312711797607 -0.548569542050694 -1.5973932268761455 -0.9929934652297091
Ni 3.517011313812633 9.316381346404627 3.3795920698284165 -1.0841295592155973 -1.2793053426229193 -0.5351080172291495
Ni 7.263343632404208 8.076368682119414 13.458157459433533 0.4764660392162246 -1.563448751609901 -1.8127051189117105
Ni 5.258527800170395 1.5289503833663636 4.32499677394096 -0.09952354671863504 0.7307411998888641 0.9923473470052782
Ni 6.022140882813055 1.1168341497453653 6.606918815749795 -1.269431535152633 -0.4725908725315344 0.3343758227799725
Ni 6.244967957536757 4.005236782511049 6.442365626790183 -0.9068712795186447 -2.1120496611191624 -3.8905071717019126
Ni 6.906599163135888 5.508520680420991 1.3618427278366811 2.182827503163673 0.5369077894420495 1.3709389450705163
Ni 3.0290482261265503 4.620004865157439 0.7503703381202012 3.0598004524609883 0.639575538216621 1.0303963313581996
Ni 3.614907543664121 3.653149576211639 4.925962678263596 -0.7705675878571826 1.1032122868786614 -1.5526843140045454
Ni 5.657309455914619 6.741973819397884 3.8775303213583694 1.227902048450279 0.8910741645853879 -0.9779532830671351
P 5.743501618465971 6.258714848432913 6.157888384918693 1.081835106754466 -0.514550761903088 0.16680186025031918
P 5.576805338880625 8.885907812670768 8.315319070050972 0.42380958936277335 1.7567807969402647 0.41390364310297106
P 2.533438606081052 2.6326279994933226 12.340217561136194 0.4421976049516578 -0.15969147445778306 -0.18021967631812186
P 5.201235031977422 9.342366437376024 12.343851538157004 1.9066802250082904 -0.26523345945635607 1.4289543452430358
P 4.310610797864765 2.454639965627222 6.493221626505604 0.1163547593433609 -0.04658041886270042 1.3406045557530333
P 5.517722757353524 8.979315453061275 2.762387592067507 1.3458331511418242 -1.440983765603744 1.265408015815537
P 0.20109911567740757 5.775324686961774 8.22407326178708 0.5414059344227192 -0.2917093942596976 -0.8301441618692348
P 3.365626840446999 3.9502867019281904 2.774429006383498 0.26611663339225783 -0.4229366998395168 -0.40871335715128326
Ni 2.906178946351236 9.326454903128122 0.6411083250594795 -0.4116014773323556 -0.5232076662471375 -0.16752999666559534
Ni 0.029818664976588333 1.6384007485109384 0.4468854660552816 0.4997270666266942 0.016354272988307317 6.354938605260165
Ni 0.36595779110137944 8.237751746205019 10.015737319126965 2.786989951988323 0.8905416891206857 -0.3023023392841955
Ni 6.597654891864356 1.6023139885647264 11.062935548199182 -0.7234796332304444 -0.9156389984089457 0.20969377451783885
Ni 8.435408985245646 2.239515647765578 12.482812270588678 -1.8858386056725907 1.18702305084773 -3.417845850943759
Ni 2.851594325035556 1.3718872352338105 5.025986068465068 -0.6919761633055245 0.10243300705594616 0.8963302707780048
Ni 2.413952167214744 3.1077156760742133 7.7434437233957 0.8287714498914243 0.027540885732746115 -0.3351216998070616
Ni 4.780525820202522 8.128254527308242 10.720717616263665 0.3364905551301302 0.6406435744698192 -2.272553347065596
Ni 7.554661522097233 5.582099812879485 7.369653859076184 0.6652845129469511 0.4107596981573506 0.11178025259880105
Ni 5.867345456287093 3.457001027991926 12.832408731421012 1.8281075695097098 -0.34288823112635786 0.37741480414831774
Ni 4.270044819208013 1.615442409931811 13.417849176413894 0.786534138488768 1.6655385163938154 1.0155474392708252
Ni 3.8338082739532706 7.377666787777822 12.746374934552103 -0.044834896926503436 -0.2935791004785847 0.2557049511406306
Ni 8.232513496708801 1.6056124927197681 6.02102576351064 1.1919518556079147 0.01605653924223041 0.5859850065846747
Ni 3.928940132424822 4.991498895619042 6.844010983869011 0.1339426476284532 -1.1161415933458196 2.84170945501839
Ni 4.9920330283941485 1.5101901409845622 2.0233521136800867 -3.0960108409432743 0.05068055707400304 -0.9280353151907695
Ni 4.409640888519548 2.8545086284225385 10.947399817718571 0.19696090033220273 0.6942078808495206 -0.42768964114346986
Ni 7.965222211145115 5.113290539093702 10.117037005538426 -0.6898904844210894 -0.860942378197014 0.4075386201168917
Ni 9.248115429445877 2.7239647040364883 8.2464974675911 1.1337405373745055 0.702466521313887 -2.8157459410750922
Ni 8.378453564068527 3.620914194696456 2.8925295112596623 -1.5223059588230041 0.7316953362720173 -0.645261789968121
Ni 1.790928453430309 8.130259867902499 5.438986900927645 1.0517740257030272 0.5683312980586535 0.7971196273140981
Ni 7.564791303323371 8.146827354681234 7.174090982759001 -1.1246249482264825 0.46820174232490336 0.04882062104712882
Ni 0.888370568631726 5.5970649013329 10.285924166576752 -0.16496197882810298 -0.8470882459227411 0.4527882359833105
Ni 4.1667416663523795 6.838736188446076 1.7074125772047515 -0.04212264020166294 -1.6679877492652564 0.9256956113139992
Ni 2.288880761085922 0.5081729851610233 7.225741622111773 0.5825752095721772 0.14451759493082209 1.1001336479533377
P 4.037322232019184 8.616826713772953 5.660512378415167 -0.8817721704581718 2.4456770357688846 -0.14793844768691297
P 5.475254516357358 5.785951117961256 13.686019438368897 -1.9917870820809636 0.6465321720401124 -0.9499287728297512
P 2.3758413251733925 9.309353283574282 9.48554119628077 0.8614396295484067 -1.0406727735835433 -0.5488143110716484
P 7.292674081282848 2.702580651531358 4.499466091016667 -1.156675291793808 0.6639570523847791 -0.002917173646794976
P 6.49323661970631 3.7087368678244483 10.7260945528664 -1.2275891451955503 0.3181524189425746 0.19102679423595487
P 8.613575063370114 0.08006462883833582 11.739594626279677 -0.511783483570596 -0.3128389771494612 -0.2792927657628997
P 1.572355699406575 6.671355844078576 12.29805761782952 0.436341660391513 1.042933801703578 -1.0777835623929117
P 8.776738570039408 3.1575118439148184 10.085190510166523 0.25138498360903805 -0.38437246641307354 3.6805668283909063
Ni 2.397487758690856 2.3407759770251904 1.3628425869086784 2.337971981680722 3.3016386729218556 -1.5284650364458645
Ni 5.652699046697912 6.851330477038054 8.705814171180696 -0.3662271629626144 -1.2261683535886239 -0.30539923304196437
Ni 8.88023850865429 4.6382684577658955 12.506581179080904 -1.1141405037553909 0.4479249943537383 0.004221237170199182
Ni 7.726539826676154 9.434003005933285 9.646624396352282 -0.7940001078485099 -1.0787896350599226 0.29144611329598197
Ni 5.501108416822587 3.583862247454876 1.43105509058992 -0.13052693707868487 1.0545603301989128 0.07528524299656067
Ni 2.0565704869164736 7.0463545352049115 0.6552103673973281 0.11099580902429271 -0.9823262153238502 -0.22479926270070963
Ni 7.718883923566298 5.241810381384614 5.045832380822918 -2.6996104968313896 -1.7597272811630984 -2.7129249545521086
Ni 1.7589460821770182 4.647639208206356 12.771362977676635 -0.5008483247153309 -0.8377111755832153 -1.460606167820362
Ni 8.747679872923541 7.168839614212167 11.694170850594594 -0.18658315664230446 -0.8210604544004118 0.9318109801831177
Ni 5.13116056018366 8.507844886150403 0.7216480509451466 0.9569468560187969 1.0541682369668168 -0.7364171672277188
Ni 0.2298270253027263 4.132135484975761 6.036414409883963 -0.021960049210858954 1.2925053862529612 0.8148023893058419
Ni 6.215403239897105 4.068311303725786 8.490185706945354 -1.3973040653276065 0.0458913632154758 4.174739026637642
Ni 7.0463170522031495 1.2580138758813384 2.786786214989333 2.365237245154578 0.8260291112595967 0.3348962140598168
Ni -0.14929948139263177 6.464852616622155 5.677889498031957 2.93841944354763 2.8119183397988863 0.49581513316679776
Ni 6.3912078889105794 6.595911932282432 11.234963784785151 0.026875484234605326 -0.7100492187571513 0.520910899793161
Ni 0.8093685828933384 1.291280039944972 10.014818985583798 -0.7634209495100722 -0.16886877008167692 1.441820916793059
Ni 3.4621643114846194 0.716198959564019 11.513392207247321 -2.5727244989394014 -0.5222041646832877 -2.55629746373163
Ni 0.3255089468251331 6.564688591814819 2.1474049192360303 -0.7625187494107771 -1.09525215149132 -0.26534196000976235
Ni 2.2209334496421453 3.0519034864508323 10.07597437710833 0.2161413299153955 1.4542568285635664 0.44315816909271416
Ni 9.373280543079103 0.4247208300384611 7.986295154735622 -1.0204749584794295 1.2229799285583132 -0.5539747722266654
Ni 2.267946504601934 7.074110698009554 3.46363739345386 0.6098690122911239 -1.2905981419279193 -1.11106700703639
Ni 3.7701527662112246 6.577048611645785 5.3271273158448285 0.45214134642793097 0.43970492043679116 -2.3585526340455507
Ni 1.0754529158002932 4.415816213059811 1.8892191918753396 -0.2980289087198222 -0.2520457571214885 -0.46622739220735193
Ni 7.6865267222953895 8.52772961858506 1.9423654029984097 -1.609794685864292 -1.0470005155737838 1.9209009965933628
P 1.5385554025678352 0.7824276753770153 2.0208566828377923 -2.50861455583337 -3.3733392838909517 2.595132948541589
P 9.021624391299953 8.890705636896284 5.8115154622378755 0.5965722951822178 0.09589572015806065 -0.7054536289666689
P 1.9779780029723342 5.503048162163763 5.291235467507778 -1.3044851843226566 -0.5321923862442512 -0.2001236143309005
P 8.093929468444836 6.80419560232254 3.4659960113397235 -0.9817950254107285 -0.2975501693111908 1.0736116904034092
P 7.710431506669003 2.97202720969635 0.9476846076947069 -1.028899949318331 -0.10429628551693007 -0.9898587762554695
P 1.0857513705343589 2.281421643735316 6.2108968460102885 0.40114402944445754 -2.068978283850985 -0.5299632398034163
P 8.77353377338877 6.43052755775875 0.15012504450643632 -0.5589745394341019 -0.04535477398571544 0.03849944162677886
P 3.5791768722346458 4.877072661990582 9.2971375733001 -0.26478968705071815 -0.30509764264114553 -0.16833166663128432
