# total energy = -340871.90184370853 ev
CRYSTAL
PRIMVEC
9.23524788341298 0.00000000000000 0.00000000000000
0.00000000000000 9.23524788341298 0.00000000000000
0.00000000000000 0.00000000000000 13.51671879053750
PRIMCOORD
 96 1
Ni 3.8705385027975927 1.8638669335205091 11.422614316406396 1.232021469935291 0.19063007301816848 -0.7030229080379893
Ni 7.126720620389558 2.460833347237445 13.095226657492702 1.0630868796126853 0.47280890207961157 -0.4586120417539392
Ni 2.097537171761009 1.4173334701908746 4.688922751582407 -1.8326864471296436 0.7159743259923347 1.5548622954924707
Ni 8.334589436658499 3.101722599191351 3.3884927413450354 -0.8769112428214445 -0.8936725214401835 0.9642912121990102
Ni 1.264757942328599 0.6860015900993961 7.320344053868289 1.0084594220757923 -0.3109111639991291 0.009395582282287044
Ni 1.5225414124102952 1.9027473264931003 11.085060470471953 1.7886005125540227 0.4263218142616658 0.4591835979866931
Ni 2.0964658830235217 2.887160088518616 2.9641755899714264 -1.5908006612602925 0.130107333042763 -0.8695974827688507
Ni 4.930809589734478 5.976110340089754 7.498116108131306 0.6597129323964445 0.04012926392071798 -0.10048282530811081
Ni 3.6427695878610087 1.9556652960258671 7.322155085949507 0.014032309723350027 0.5813716761823794 -0.6033767196985609
Ni 4.72168663997881 2.8338911795718453 0.1413805605555357 1.0979592660098383 0.49199575942070756 0.0719572070645922
Ni 9.26313818512316 3.547674241913557 1.1423576629220584 -1.429008338409423 0.3219777062259358 0.7062203319293643
Ni 1.1075370848546338 3.015474620575904 6.363711840560316 1.9401415899905294 1.4203923146056376 0.5881321348346645
Ni 8.584208947740725 1.7669337732734025 10.887527756626168 -0.5022493188279157 2.3418841722509343 1.739447704978456
Ni 8.45473077446858 6.857125268452294 4.241992172600083 -0.31968479642670106 -0.9798085911083191 1.1177181938043204
Ni 4.345341059450054 5.29918515146624 5.124850456410919 0.18243185347809227 -0.0016838154603261324 0.4559020990219439
Ni 4.404973054087589 1.4467015579943998 5.01483741479396 1.9271595759085651 0.05235768766610983 1.399182513297242
Ni 8.413319923616061 -0.2021411024665268 5.290456918830041 -0.06964090022658974 0.798618837567444 0.2796923151941635
Ni 5.742052221444303 3.9116722962180015 11.082316678369304 0.956728569360404 -0.17503813211718242 -0.20699360197785643
Ni 3.5261653499341827 3.752530507214749 9.771520102547198 1.0246653424116934 -0.25891703032002505 -0.04690360653007406
Ni 8.073074926491072 8.637921148578869 2.830887877007786 -0.28391175259214974 -0.5284030944051481 -0.5810322905650896
Ni 8.186705414646598 7.132289474774944 9.52390648727344 0.7776648610235962 -1.1867158040199561 2.173254000542625
Ni 6.107232387459078 3.3495320017171326 5.231321780520755 0.28843843681790965 0.0018154559421839703 0.6303599331556241
Ni 0.9318826728977012 5.529207466850642 7.062836717693929 -0.30259030283825955 -2.084033892632527 -1.2648554857461765
Ni 6.082371100551188 1.5390263296207642 7.147438051637875 0.8002676860247766 0.9643220654369457 -0.5665482380163017
P 3.851338422752458 4.034260974678376 12.098166223691424 -1.1780660987647582 0.35537453651882667 -0.5216449497457081
P 6.301569705587876 1.7600073374706844 10.978360112218242 -0.3928437371088783 -0.059358801574291326 -0.3049624026148619
P 6.7322277780576805 1.3583202371517158 4.565380072030805 -0.04006832877579551 -0.7683932059136831 1.025326887255092
P 0.9039331191465729 8.57104871971556 11.95510484804776 -0.5621202841519352 1.486853017332033 0.24247019761791147
P 6.531471962751697 8.189466753719948 8.493514197339932 -2.739583437679901 -0.9792591463627522 -1.6468892767237442
P 8.761830467465629 1.8564510295877321 7.9979637331216225 -0.5539130657507944 -0.08037191349084868 1.856690523353725
P 0.15916580064736852 3.385133881743104 12.449749334463077 0.028980446392750093 0.36052754147467586 -0.4180361772141058
P 0.1813821126033936 1.0608252018011024 3.2993772183072636 1.0195172225518507 0.5813158832437795 1.1854755038549518
Ni 7.081846551635682 3.1781258037192006 9.158847303004018 -0.40301553543555757 -2.0334446097207497 0.7777538211929766
Ni 5.004396043702556 0.7778738345866498 9.128069916395832 -0.2080914630277255 -0.0075407884617354 1.0789063631434452
Ni 1.757504585333969 4.387269084175841 11.272213689386172 -0.07119796030106448 -0.5265601276591384 0.2695112608961036
Ni 5.68028688457953 0.6995653984506657 2.769319250919812 0.7960721598861902 0.3700467938190208 -0.7812340664320933
Ni 1.9714760401515383 7.120237476478215 13.388039422240677 0.4475010194424422 2.4562368135626023 0.48607270906805317
Ni 6.4106379813613446 4.835917419237239 13.274877161145415 -0.9419802074066358 -0.03972431517281545 0.44500524960378196
Ni 2.2061252146521557 2.809888770703492 0.18293548127274986 1.3338510390792835 0.7148209291141818 -0.41877665492455624
Ni 6.103935404016984 7.099661344520273 1.9262408732111467 0.27027642119690226 -0.37274953746216455 1.9335456819405665
Ni 6.062810845844312 7.333691757422514 13.222297201679822 -0.4182254104067765 -0.12638360433427268 -2.2994614843103496
Ni 1.444014100902945 5.099916211045907 0.24358704726044486 -1.0924457923907767 -1.072995654085965 -0.8079833095014793
Ni 1.755112656170097 0.7678277320983875 1.6898462368882443 -0.44578917895765807 -0.4046854669388127 0.46826319169045805
Ni 2.5649515302239045 0.529153836634004 12.985660601866211 0.5023189957235865 -1.5332336614791013 -0.6618546613297956
Ni 1.376347440734257 7.275565108166103 8.433269905777438 -0.3623702511103695 0.9188402789550626 1.405706944679321
Ni 5.637712392512156 0.7020561447653231 12.743197484255354 -1.400610246882704 -1.166078587385579 0.28261977325360366
Ni 3.020969592979394 4.45654267745076 7.572093213078658 0.621244344007601 0.2381756840076156 -0.9168726137057306
Ni 0.3062001798674696 1.4867086511908996 13.47900661244971 -0.7590439034882992 -1.115586492173298 -1.465832449216308
Ni 8.326998063018719 2.3598089722428663 6.065289586336911 -2.4653470033939864 -3.0661793594041384 -3.6623379640877056
Ni 8.472351627150696 8.764758040998244 8.02464621088324 3.201919722362963 -0.4518140449954993 -5.273791525711658
Ni 4.168763122719426 7.2464833130424235 3.738494777704121 -0.9680655916397778 -0.20501102433018886 -0.2312553027386985
Ni 1.3082374886741952 3.125004658736221 8.829485121812258 -0.6641293162965852 -0.11318433203517927 0.24704110481804553
Ni 7.941703527432851 1.4604436066269926 1.764580632150026 -1.050370203376965 0.6211492131906334 -1.3144227551513428
Ni 8.173194247207428 4.058124854830674 7.379925254643271 0.4582865400937204 1.82700045248846 2.080259256081443
Ni 3.5272735796626176 8.295718278933645 8.093838533978074 -0.24210381541742823 3.5581722906113686 1.01083846383093
Ni 5.999216929927622 8.017238618673426 10.549393013609073 -1.197204362256106 -0.9448567576234825 0.06948252027185452
P 4.549827914841768 5.54375298203635 2.4752486454300615 1.703005660101338 0.7669047942936147 -0.2657893319598261
P 7.136870157652474 6.253601828842118 11.485953339485544 -0.9940938973827396 0.40922963466606943 -0.13710613295809934
P 2.765190171656618 1.3252211092624602 9.132827916029914 -0.23348522051048176 -0.6026421555253815 1.847485202705373
P 5.2701772383244565 3.764065331638209 8.016427763922122 -0.3666069148995364 -0.2520277593993595 0.19636568995036502
P 6.776870965618133 3.504370165274963 1.5257940666632517 0.5537832250411495 -0.02028703238381022 0.20130863577793717
P 0.5383512198552399 4.606393807230633 3.218073791330184 0.3182817454315873 1.6861523359894253 -0.6075588761007086
P 3.0372051585009654 3.3850507645134713 5.491451003527638 0.5999874915113539 -0.1472059403962626 -0.20687738811496628
P 6.932198597306021 9.01975246626338 0.7935072619557716 0.1346291321725165 -0.15044270216600542 0.24739488861303846
Ni 4.377932248713777 8.51592352597366 1.133768882526688 -1.0115115786385547 0.3652768832342032 -0.6307893073835589
Ni 6.749405338848421 5.448897752530058 8.802938402192375 -0.30210205034793136 -0.5061453114482122 1.6408595255898968
Ni 9.296292724498835 8.341358873249689 0.49168274246607235 -1.1678678180755175 0.3883653896225505 0.3872880973979717
Ni 3.5002235390410688 8.546270550037303 10.632264585651889 -0.7330289674817763 0.06379575429972238 -0.6638935461366954
Ni 7.4743815214473255 0.5345195155691762 9.51828406845118 -2.2965170569700453 2.1945157381348785 1.2775235681321482
Ni 3.0952117495367957 6.853929872735306 6.497770696709991 -1.6153109876968308 -0.24722313892186454 -2.105668697293483
Ni 7.485094408822196 6.760847810794512 6.978492123637069 0.10375841073558904 0.3390045798012355 -0.7378482432472906
Ni 3.509098612116285 0.24417995016515756 3.3194758879572044 -0.47710907211686227 -0.7871969688837476 -1.588178393146097
Ni 1.4326362756910132 8.49063741766987 4.114746158705961 -0.8194990234505629 -1.2655242296784268 0.5748493016828293
Ni 0.9892612670874186 6.621829626610089 11.134423793150765 -0.13437202185638794 0.1901356498802532 -0.7291946813373507
Ni 3.7608607006734847 5.528653351986425 0.19635152566022812 1.5247914442490191 0.24915326606504185 -0.21532166222757756
Ni 7.628111455276721 8.914609170778117 11.830386521459245 2.2653838259003503 -0.0008268667766695436 1.4342333342537879
Ni 1.6348882011303836 5.878484536262376 4.640465406706591 -0.08150654131592415 0.11636684352821895 0.35376271194701653
Ni 4.453670515404566 6.030838418178965 10.89824618514968 -0.1350147976467094 0.0897582398017551 1.002610676604499
Ni 8.50554310751732 4.733729403027804 10.695279451535471 -1.095427757837236 -0.6793751867120623 1.1724646934175806
Ni 6.411099743748192 4.962929781363616 3.3909530113421607 0.7539703456201338 0.0521694829147037 -0.48047310349308864
Ni 8.545790317154982 4.622130669374409 5.253367240393646 0.6866539797616626 0.6180844582223808 -1.375298764701109
Ni 4.196422689691614 3.547397184481448 3.623305379730597 0.6708992880305671 -0.7324630676759774 -1.1475280780769013
Ni 2.610047244923468 5.155096816274228 2.318820172211928 -2.2997085673241493 0.2240292173039045 0.21254744191655006
Ni 5.302694545606284 8.528058641500023 6.632532355212449 0.25246767515025553 -0.06267295354918884 -0.23184639935547813
Ni 8.32945463891675 6.097249084655426 13.338757369741952 1.0499701397250691 -0.22344249156249904 -2.72584140550346
Ni 8.452569726498131 6.423253329770028 1.8918137166973163 0.940485368028664 -0.8313232697790005 2.4929670791041
Ni 0.7613556704843276 0.061308192101792676 9.845239544082688 0.4589478278268032 -0.7600368635291879 0.2013492592078855
Ni 6.168914607094218 8.151980883155638 4.359682475660775 0.7558932736744595 0.31488711792774154 0.5307769939539633
P 6.609205042953668 5.515936415852634 5.530027556849683 -1.0911782385322626 0.25781762660825924 -0.2701715201879218
P 3.358102311617029 6.555511312610998 9.149561261404507 0.04179636721049576 -1.3722232110995787 -0.07620364104577199
P 2.8504407435164727 -0.23206792275813773 5.926297260846153 1.3134704185404025 -0.10562914539574067 -0.16668796038027422
P 1.6497107737482006 7.852029271906993 2.0900224506774463 0.18041430882743123 -1.2311143847399892 -0.8314525962680132
P 3.634033043501847 1.8983698190657823 1.6757892663078213 0.46859769221174136 -0.8111581076850353 1.1197830467531489
P 0.5112115973306428 5.276355619060481 9.152494376085764 0.7506086282367525 0.3246652803604279 -0.3925231205446659
P 0.35896669133735026 7.4168459280460795 6.383986903442032 -0.1385420940736775 1.27386874498838 -1.0821883763288265
P 3.8501563110421273 7.723123683994539 12.54091970012232 1.3878169517727776 -0.08784508193944225 0.8870830411481239
