# total energy = -340897.2237882643 ev
CRYSTAL
PRIMVEC
9.01197934558282 0.00000000000000 0.00000000000000

0.00000000000000 9.01197934558282 0.00000000000000

0.00000000000000 0.00000000000000 13.18994271710026

PRIMCOORD
 96 1
Ni 6.4578492625896455 1.891136842393644 11.348784764674413 -0.7096280720593328 0.7308494433319542 0.873079013559548
Ni 4.621550314881012 0.2934489746134377 5.990014881679935 -0.3722692553916363 0.019944561442726945 -0.6094177836863183
Ni 2.592701415185537 1.4924108255582145 4.838928270131156 0.8112177572783771 -0.16021957904711118 -0.07167644259937979
Ni 3.2780083771291544 4.285664830443047 4.72479605694491 0.33922518045247385 0.12832093056630162 0.3596322833539161
Ni 4.970917720510229 4.667610541624658 2.5749667409126316 0.5227263557353449 -0.9383454388675259 -0.7956623260422813
Ni 7.326216562205673 6.066035433958556 2.7757446300970754 -0.2918875717087747 -0.6804871888293184 -1.3111075747351808
Ni 5.04725819805776 4.714220499112065 11.149629932980975 -0.23806975455737067 -0.6007056006243009 -0.06438839357839879
Ni 5.598557026235378 7.853994124133846 12.451741097810007 -0.8973630829178932 -0.0026466935942277 -0.12268327266455
Ni 1.7159800106602245 6.518896411085333 0.3720721865444869 0.87832149290541 -0.2728683502937946 -1.0026327880916863
Ni 2.7544664455217625 1.5886046937369815 0.43810295965164703 -0.4592347629396027 0.035088616173016986 -0.3505107806686221
Ni 0.5105971243887314 -0.026727728522071174 4.616756843035004 0.5052287131712138 0.6263901498745986 0.049385235301347204
Ni 8.52548572164819 2.491091347383813 1.2774615987579647 0.24981198269496332 -0.7859142455165818 1.4281711872201082
Ni 6.84283201083105 0.511163076695423 4.72517816487172 -0.10186993546362455 1.006509240327957 -0.15067127323704374
Ni 0.6686275904591445 7.194434387352936 2.3649299440865477 -0.01633216150112026 0.7146309245905628 0.779949800403031
Ni 7.594494177140441 3.7160987200096334 3.7995604636837195 0.4316671377339792 0.4258991249019504 -0.5943626891254086
Ni 7.6441772196052655 3.748550857850343 12.53615721010318 -1.0719355882525667 0.4718177418109358 -0.7489194134597876
Ni 8.023185025500547 8.830946763611776 6.850869795263189 0.4155314085143812 -0.08293941710770876 0.06327073503418781
Ni 6.765671443157582 0.6856286896084086 0.4512910903142672 -0.23350244690166236 0.27191987033759624 0.2837757412349177
Ni 2.028173001240031 6.438266231340586 9.191371867972055 -0.1534706903590518 1.0941499195660769 0.49305299704062827
Ni 0.08100958407773619 4.915818478422447 1.3892434877151478 -0.17932390397672987 -0.43870758952052835 -0.041639015697025064
Ni 6.3822117194357775 1.7435206197247095 6.911753826931629 0.3651614407022615 0.7108909979321563 0.4099762830241068
Ni 3.2853621523243834 4.470996186925748 0.583338217361538 0.20766208879979076 0.097138077205594 -0.7416110527238324
Ni 5.786970479674903 5.423192918975622 4.674475867536087 0.6862521163375536 0.20813002957514476 0.9452959020434301
Ni 5.053404368012595 2.807601076099054 9.422934678807115 0.4068482789180864 -0.569313973686897 -0.3353150467647903
P -0.03792781652774588 5.507175555059372 12.411789190707692 1.5555796332744694 0.6505819166294537 -0.2725518474946403
P 3.945300392240342 6.23820028852921 12.558777278412034 -0.5916355200022326 -0.4455706351889487 -0.9113604256382497
P 2.403557991414133 8.443756080415922 1.2815809745444098 -0.021943594150626727 0.04471328374697461 1.310282250620408
P 6.363908389262358 7.686758822298227 5.7725260790830974 0.39142525949479684 -0.04360693805667328 -0.19201486918083707
P 4.793246546522559 1.2020989209759767 12.639104655648742 -0.22728089147198277 -1.256164642840398 -0.13517523448397364
P 4.214316989486396 6.205153360047708 8.057986586372381 -1.0100910441419442 0.4847100243925717 0.4561962332235949
P 4.661419311772792 1.0374230212916398 3.8088599252326865 0.9251140277789165 0.4983026754753418 0.21171466160260954
P 0.3186671965850177 5.358982565708458 3.621351274525516 -0.5288849191375731 0.5591426895808499 0.5236979756199949
Ni 1.5714008250510842 1.0929818743291233 2.51398988585631 -1.0606679857585475 -0.008133684850727928 0.23403492236636467
Ni 1.854485122149776 6.510479222320206 4.823152800181097 0.5880249198328389 0.39978802963719534 -0.5430262436349617
Ni 6.0389364118849596 5.71242338602915 9.040003958276436 0.9709724808739276 -0.37424180573697485 0.40040843683001365
Ni 8.641226573158393 2.46529005034467 10.345808232266013 0.4852399287541127 0.47742300381285524 -0.6830282100836172
Ni 2.4288636295859507 5.367264574782497 7.0705349908865545 0.10255436312515886 -0.6543994906033311 -1.3245395318703703
Ni 0.47642640207531267 9.217272296784664 9.244290211043605 0.7316536844008045 -0.9549197982864395 0.45920828057704133
Ni 1.3027447069812672 1.0121354070786341 11.458762455354533 0.5402360824843341 0.839108055930742 -0.19119314461049008
Ni 4.125179501182462 6.804711337944018 1.5721488193417756 -0.021043193823544405 0.720987720046526 -0.6051276409513966
Ni 5.887030487018809 7.981738932212732 7.917157285394043 -1.1464297028063999 -0.20445180939260918 0.10654265834894555
Ni 5.280731548526874 2.970267304375872 4.903057515583668 -0.36585718121770544 -1.096517391356989 -0.7978583052523356
Ni 0.8963395824940551 7.283265468357068 6.974050035772977 -0.5669786406855009 0.5934234651405909 -0.0206043065139129
Ni 5.173227646193679 4.411300835340948 7.155333211106539 0.10932510619008914 0.15781636892225726 -0.5214240919841535
Ni 8.174234812323137 7.239782667723515 8.988062513772489 0.2528548832863452 -0.3635123351346127 0.00409216779150263
Ni 4.603147852934128 0.3030999033592352 10.56309967251386 -0.13467541202941968 0.7742838603665052 -0.7493711562852255
Ni 8.244420107936424 7.0862996464613275 4.722566493239886 -0.09190125428668688 -0.33690655962162624 0.28131082463419294
Ni 7.3631116058935 6.058465371257584 6.799468168325654 -0.012275732043559504 -0.8586720941055986 0.6538752426687449
Ni 2.2825992038279037 5.223081916267216 2.617649277774939 -0.4051302677857152 -0.3376940885199281 -0.029937668099696828
Ni 2.2909442967577838 5.097130492090108 11.382168741185694 0.7312561918520697 0.6969589612320964 0.21966451257730557
Ni 1.1508928539915513 3.16372746628271 3.9192728945181106 -0.38245648033728324 0.9335855555850373 -0.5695847108497804
Ni 3.5749891464717716 2.6443040092638226 2.739327221317761 0.07262055168020395 0.43554821795594023 0.1307249120221039
Ni 1.0582587176781217 3.339127621460089 8.220459958289911 0.08566401512772344 0.49819494625288396 0.14535474612013677
Ni 3.785220602053023 2.544153882125858 6.847137033393257 -0.32186303502494246 0.0489787438915479 0.3176505396054916
Ni 4.313629002539611 6.905627483331486 5.929881547896008 -0.9550365263699616 -0.30026679691140545 -0.06434134239054726
Ni 0.7568918179586446 7.42481662888582 11.345131308223253 0.1065557709750681 -0.5708972590136169 -0.35398794058394517
P 0.28350155174518565 5.474525153671731 8.029153659461086 -0.18047447264140531 0.3545070463122088 0.10805858077283972
P 8.53447066511589 1.6204530289574952 8.054662968367477 -0.8151826554633961 0.5623223728604122 -0.6569531102631202
P 2.0623284031884594 3.1558690202407496 10.396154556415114 -1.3748673335906452 0.1012371869756321 0.12522866479422304
P 3.9118749606237926 6.206424049143943 3.679532613570121 -0.5169033212956646 0.027588194030913775 1.5044133948132996
P 6.862496149894763 3.8104000725131573 10.148988404436649 -0.24904733661479686 0.9861031658677791 1.0919616536655066
P 6.458218753745288 7.846802564567923 10.226149873308058 -1.398462604412082 -0.8862446044072286 -0.3540223933663064
P 2.397528977191574 8.476289326071285 5.793062577753303 -0.23335846512463035 0.06225720616800891 -0.37776961638457524
P 6.893614514783398 4.1112650049797255 1.4661679415281816 -0.22530499869253456 -0.7844183776973458 1.1221875424295835
Ni 5.050709786170226 2.908796592848106 0.7227688591360772 0.9457473877585519 0.20706944952111436 -0.15391317721310913
Ni 1.44592703578249 1.1495320451012578 7.02496321342671 -0.40050716719140705 -0.03378455264961278 -0.4507624638025334
Ni 6.838785632077792 0.7538980383999987 9.352671880170934 0.1528839646176464 0.40560515053960466 -1.375874948919553
Ni 2.7429851837586234 1.6206512925044254 9.02904358892296 0.3656314383601445 -0.4229040468293685 0.9707788768058828
Ni 6.363340634559785 1.9032669666740094 2.5892254947286744 0.10805549544904618 0.3104617351665363 0.37763874723366575
Ni 4.2825556975480055 6.891172268364394 10.344661007287641 -0.3565577581936505 0.35293507383939865 -0.07673046008351947
Ni 7.773021489171673 7.1410924812493075 0.1135815812445451 1.330451012258799 0.19284944926699046 1.1478669494735587
Ni 7.593034236476682 3.656835943436317 8.10726408976394 0.18299595351167838 0.5317414147497617 -0.39925555417249303
Ni 3.0459769433649875 8.46837680815289 12.35414857042744 0.9007865067771454 -0.6983884945897715 0.27919120718802887
Ni 0.1615649643934141 5.033064330493439 10.192990295083982 -0.04440783669141384 -0.9753538977710752 -0.2054077455479753
Ni 8.524629583604629 2.3167005338998967 5.756631651004881 0.2910553056154665 -0.06954396963740926 0.22636532163624887
Ni 3.6496533958498008 2.885004967216483 11.82896465617229 0.0007975562006308845 0.19081879199020685 -0.8608526466966852
Ni 0.9738344946034834 3.392388419749064 12.646556661419496 1.198523852398478 -0.22933134624310827 -0.45790318861237267
Ni 3.0163635790371415 8.477974566220192 7.9029787381947125 1.0337811886700323 -0.9753137885617591 0.7217472239203698
Ni 5.656026418906916 7.665995221746993 3.611142504254492 -0.7119711183702125 0.3899844132832122 0.1081241439034525
Ni 3.1968014307024286 8.430012811821896 3.5404444270130067 -0.6260988438864249 -0.9486337081674114 0.4678523294052846
Ni 3.3421105866434484 4.298705164643411 8.95347814160434 0.13286047030786796 -0.12576525402398342 0.8402354846669658
Ni 7.2322035930431365 6.069874537185476 11.216845781380014 -0.4507568073755785 -0.4297521800994534 -0.27392893034782495
Ni 0.5508031693102933 8.87659243930275 0.34310047515034214 -0.9250348378015487 0.42223838822091153 0.06273131759095002
Ni 4.467995197783577 0.37311757615557334 1.6482153327153657 0.579991250895085 -0.45666597377116186 -0.3990012720698419
Ni 5.961027849920801 5.438657475636178 0.06255124785853523 -0.8604520688241568 0.5423528717170207 1.0167157485473135
Ni 7.813359108992562 8.818194812752402 11.533338387334384 0.9419154156069715 -0.3849363093363435 -0.3134208177948602
Ni 0.2806735926076086 4.7665080036252006 5.847748169986353 -0.5377505970583191 -0.09788626822552819 -0.08970476085600035
Ni 7.816288002299485 8.726425826461941 2.571287149721195 0.478794173128769 0.21730295432366445 -0.09932248645142248
P 8.53666057611153 1.6771473914001245 3.528573847739532 -0.6061213723232336 -0.9337164247359468 -0.05336787409817905
P 1.7596250269230849 3.192223345164222 1.583320970211292 -0.3114032731441992 0.1144040633748933 0.03458262307087592
P 4.757234676816511 0.9972926769970875 8.15022419559195 -0.06399938567009623 0.029274580594401196 0.6786033415430441
P 8.422505832976768 1.6344396209954797 12.442455154230148 0.3769610044403508 0.10011772865920823 0.2763318833623628
P 6.1918606904239795 7.6640306102365034 1.4725520277393338 0.3746045883930323 0.34024256597339464 -0.1828368022259948
P 1.8776639331817968 3.264796815320079 6.105426795941822 -0.08567558509194922 -0.6186850679208571 -0.2131660493371555
P 6.908349101112073 3.922184665064163 5.905981778511513 0.7461421078249666 0.17596398636556146 0.5417152381330218
P 2.4350458474584102 8.526711350847396 10.237149895370921 -0.06733307802901951 -0.563177778882172 -0.9427595087748215
