# total energy = -340864.1147837568 ev
CRYSTAL
PRIMVEC
9.33451995114014 0.00000000000000 0.00000000000000
0.00000000000000 9.33451995114014 0.00000000000000
0.00000000000000 0.00000000000000 13.66201349623060
PRIMCOORD
 96 1
Ni 4.3788979113891395 3.7257708959428317 9.996140288719655 -0.9318284636846146 0.28189472216212097 -0.24995930690610504
Ni 2.6214598662674033 7.200825924746324 11.061913753426738 1.0785266112065233 0.43433260038128424 -0.37241092317582314
Ni 7.031404390490432 5.024874684673463 6.875326552279653 -0.9688132684390799 -0.021784699975259256 -0.7275021241262761
Ni 8.015766840816648 5.947311930688187 4.666356315340491 0.08899513638348544 0.10578341158541782 -0.32864123428904046
Ni 4.69226707538388 7.170134023664596 9.709045931040256 -0.7082931552979931 1.028977853744118 0.011811133702315143
Ni 0.24299901962587614 -0.00379914955604121 6.4363931618278025 -0.34292242679840296 0.5111743892316875 -0.653693722785558
Ni 4.2426325914405165 9.323925113747181 8.945845324734504 -0.62350974300301 -0.09313949756916218 0.3820201641308131
Ni 0.7617621568055405 2.4234466978833686 8.89425716764257 0.048229781540665324 -0.723590961997328 0.9284248373197043
Ni 2.0399472866784616 8.211054329420918 13.217478402270128 0.5367982604473788 0.38315324929399175 0.28894160170657335
Ni 6.2854082376164735 7.385630747622255 3.65572279250685 -0.24917023534590638 0.34767099722698186 -0.1882975682302499
Ni 0.7520449217002853 8.22514011978963 1.599644522172873 -1.0720939682073019 1.179855072344381 1.1182714952046289
Ni 1.6148159171935947 2.0448199060107797 1.6280065271140907 -0.8819675742984294 -1.0189315252517095 -0.36255279943482077
Ni 6.4520014123748695 6.448211597338622 13.18656153926137 -1.0837212680335853 -1.869459135873303 -1.2868679854615257
Ni 8.231879643080692 6.160493693737005 11.623121885560394 0.7793697595298449 0.09044780966961197 -1.382699428040554
Ni 2.954991593016564 5.656074913124339 9.086591214184109 0.7537032080016761 -1.0177616733133246 -0.7758334642418122
Ni 1.813529174562158 4.091320025584428 10.389387738945134 0.4877513823220568 -0.9480724363473026 -0.2676130154321262
Ni 6.808776093410376 7.59626418676739 1.1951993820028535 0.8151474313500865 1.640336306096575 3.544246938779528
Ni 6.725885557642204 3.7395113090791767 10.025035294741093 0.6589374876830006 1.2697539514890583 -0.4558362787810149
Ni 1.697258396011668 6.1948913991768375 0.8315190232239582 1.0166350159080493 -2.0868448797187606 -1.945298708711437
Ni 1.4101565707164363 2.3278425461561594 5.9340270421177745 -0.30618933304342755 -1.062292408735848 0.32806942094597047
Ni 8.854156070608779 4.6677452918857965 8.094674336988842 0.11054586597106768 -1.1236314739649618 2.2697711563347682
Ni 6.735210742916124 2.6207877808422557 7.743833610186199 1.372298287311888 -0.02930903337676243 1.7575873520019603
Ni 4.569966197046652 1.237925346002637 12.703623355597998 -1.7283158567313526 1.6491289646875402 0.6280240859335958
Ni 5.8575325193122545 3.0998633402149904 1.3837436135081456 -1.421772482782616 0.4737666380071905 -0.3245842906108475
P 6.918503373585473 2.1304081179993344 12.195751736113637 -0.6824489405413795 -0.858818904096108 0.36263353207408516
P 7.2382293455597315 7.969215590605401 11.200883283759598 -0.7313994022981533 -0.6984039212087392 0.16139123075770914
P 7.7462512508127706 0.49203934046224335 7.440195683076404 0.2777812142143797 -0.2886708645436899 0.6601124818277083
P 4.6460051952862385 2.1459594279756606 8.290710454080568 -0.6038963396474568 -0.1845195892450564 0.9705672750157093
P 5.744724847605232 5.271016637113882 8.877918024195655 -0.3319798117439702 0.6921116604421241 -0.11991933676616767
P 8.970566866956174 2.6072993997403406 7.1003398191670035 -0.6228206873557854 0.48536334170585443 -0.9991995940404211
P 2.7047237828273234 7.712656314075198 2.017101049483349 1.6435008198674859 -0.5256363302932883 0.14777466841553905
P 2.225732234132732 7.478042493580014 8.46148549370655 -0.5636310643695066 1.6016661432198869 0.7285495915541841
Ni 2.4746278699122968 -0.025939697054749182 5.65916090536814 0.7253760789222088 -1.1157158186623106 -1.0040669494350514
Ni 8.512325955763007 0.1807835117487993 3.676311009363863 -0.3230747959448565 -1.02173145659435 -0.43154475322350194
Ni 3.8764300454133602 1.695055449340352 6.228853182542303 -0.4127641301818892 0.13251877069773307 0.03713392873781992
Ni 8.215814934515713 0.399566920125825 11.866387872452371 -2.0881800535904165 1.4105303342098932 0.6247158474959693
Ni 0.3911481167238752 8.332599111654856 11.219819290613124 1.256264658753372 -1.881468244519037 -0.13648675420654557
Ni 4.090199883209182 8.87150894290529 3.3641889372135627 0.5978833006841574 -2.054991996874222 -0.7348639638079859
Ni 8.154076420600093 3.5857904371163105 5.11105470521694 -0.04860464838158081 -0.06684816797280099 2.113292018166696
Ni 2.7953246319451024 3.260109041513662 8.026761038229683 -0.8287490812939211 -0.3136337051366147 0.46260316519120326
Ni 4.972834736823513 4.71677952436217 3.085470444145064 0.8031164683274814 -2.651171941714028 -0.245214593132268
Ni 5.776779588576843 0.7012305962992496 4.699664682320397 -0.825679955450294 -1.3627299268971627 0.13242672520455903
Ni 0.2564192587332974 0.735871932705698 0.04301440066140909 -2.1485292441024355 -0.6499224286685839 1.934177144876979
Ni 7.7894420738982815 4.06414723846493 2.8071206646084175 -0.061097124421636714 -0.6110460633183606 0.5543964331451162
Ni 0.8049949852301225 4.373707918383835 4.733764616578811 0.8375687364680802 0.15030000594055407 -0.8878795689074902
Ni 4.772329251654558 4.20543453006257 7.234664492450514 0.8792558317942213 0.6225005850122054 0.9428065599626732
Ni 3.2819424833111572 3.337921598514054 0.7602518315029178 1.33426035870256 0.4994321610940947 -1.3534932387902432
Ni 6.838525207992939 9.166087718555287 9.493255169709096 -0.8533933622051626 -1.4584143023753657 -1.4523470131353633
Ni 7.828469701155796 1.8043253380455568 10.028259437877841 2.2439747640969547 0.515216677621861 -0.5343724246147056
Ni 4.686890391982701 6.519116609691666 2.0547667703029604 -1.3985021994007656 4.365482999525856 -0.30554835702531896
Ni 8.585965982415608 5.597584812096934 0.29846006898022215 0.5872620735248854 -2.1166138834510773 1.7970473577697956
Ni 3.342943570163072 6.948159142970099 6.646446927293748 0.4002909374155429 -0.1834099011206454 -0.21110736703591382
Ni 7.418712285771174 4.181108771480154 12.237106459155726 0.08893214435603394 0.04958758112014041 1.4537613769843867
Ni 2.9592481340424976 1.541605278451503 10.46986996860653 -0.15189846077592548 -0.12702740856585865 -1.2528484339829715
Ni 9.257463332815945 9.003900437139524 9.003881768099935 0.09192105178102879 0.4879627270019144 -0.36737567474476085
Ni 2.57107212842094 3.7464935298848747 3.0237179284497557 1.637312945889219 1.0625898853716087 2.1010070301517563
P 8.94999358533083 4.278887866319298 10.604482145099686 0.07667852379966149 -0.2929111278772827 -0.7387077630341085
P 7.950938600849311 6.122614212414118 2.478152584586403 -0.16406029294944005 1.0972288156017167 -0.3173119253191503
P 7.450393645951036 1.9276996861590623 4.115640183454968 -0.32890528658370455 0.418242379687641 -1.6131610312333637
P 8.503290140602692 6.666405997516665 6.6939222949645725 0.12357570257183234 0.15832827556166926 0.8545943244917992
P 4.996805783653768 7.873499424640666 5.460693145870152 0.789127353137241 0.6103966026598197 -0.23711227574010776
P 2.257618953748056 5.848832746864514 5.038153972532 0.23671298341916008 0.5452211944037513 -0.09317112213804599
P 4.1503701977994565 8.706885351823368 11.7481568447452 -0.49044461288350377 -0.7172634771174035 -0.3342840343971146
P 3.162301943115137 2.998481120735473 12.032448979582526 -1.5216999498078891 0.886859098062776 0.14549847078685266
Ni 5.6396461582874045 0.5584945872296246 7.14049225605966 0.864483301470737 -2.1292254015675005 -0.4183238836578537
Ni 3.0316186660031543 1.4981344197721815 3.550962410313988 -0.7201294858112888 0.43279482358051913 0.2477345313406443
Ni 5.124128633640014 3.5546504790844837 12.357837271263652 0.6936100993645216 1.4544314064682178 0.8742838325009267
Ni 6.126852084400463 0.7827993640646316 2.3295096913913165 1.4758448391469874 -0.6571413150145263 -0.321382238733782
Ni 8.652745137019831 7.70785837090123 13.299532565064784 0.019901109799301212 2.442526405955045 0.5393765626975162
Ni 7.544354922194551 8.408404746899599 5.545506592715829 -0.8763823669011681 -0.7849737359801836 1.1632290337519258
Ni 2.0431676960072926 1.1684205116186495 12.748803364851549 1.8906563387762083 1.5002880597910162 -1.3541779235620937
Ni 9.24538446420288 2.6433773187430414 12.348779986707813 -0.5427382800808975 -1.5924361399811866 -1.5677067555553066
Ni 1.320246476063392 4.220939167439927 12.690562495502636 1.3090751176861841 1.6504055174071188 1.6569548884898626
Ni 5.937445343266232 7.1004424988847346 7.742563182042275 0.15972669857109265 1.033280080663898 -1.5038482663384487
Ni 3.163954153118624 3.7956771146779484 5.687003911008828 -1.6261700418985219 2.714092749607964 -0.8783253495601517
Ni 5.535202216315549 1.5878764930689389 10.404948383441255 -0.8162926006981233 -0.04590293317970159 0.2686867081122792
Ni 0.7065774092370883 7.501182768148628 4.772031480473137 -0.21754823756525116 0.4888978372216742 1.0719281320533989
Ni 4.060161398513014 6.809690876350159 13.137624385790852 -0.11851834265358299 0.07403722952207249 0.024841484523712057
Ni 0.7076014060584588 6.249087621099136 10.033751869324462 0.9932660021648054 -0.6271388551151651 -1.1503184963378446
Ni 7.99877801479209 2.9825844335267795 0.745156046092525 1.2899432819527399 -0.5581165623091807 -0.7490076022982197
Ni 1.9605478613131384 0.3094411980655462 7.899717290385269 1.2450356228067718 0.07091771005648431 1.054612523593087
Ni 0.9570123073306364 6.120495276420945 2.921716830307915 -0.5224255366654745 -0.6978084537165853 1.4226736544406464
Ni 5.834177550788384 5.868519249109455 11.068061468162878 0.25257694703461014 -0.9986180105053383 0.1983258990005294
Ni 6.074522766436908 2.767787798553649 5.64067668927263 -1.2838261133114084 1.2349162749845828 -0.8678961838070278
Ni 5.993956526097371 9.029551697532646 13.130465742561052 1.6849655147701756 -1.6584780100026082 -0.16761278618738876
Ni 8.021274207494939 6.793084765637144 9.17865944981346 -1.6171197587707957 0.34209735979394634 -0.9396150496085689
Ni 1.3891352321409944 5.212993262076162 7.0227662258733305 0.955612967698722 0.7705290213097633 -0.2992026173129492
Ni 5.301549851359118 5.574332523290794 5.097501915928447 -0.12026797835483802 0.6562051763535022 1.3339734235897607
P 8.206256386246949 0.026422291728084146 1.5134775699571077 -1.5446128498503204 0.2920395239056068 -0.6417915720313334
P 1.2628205102924692 0.20695563834641192 3.895504203159833 0.5152202771662868 -0.004804363367178823 0.3054051465792353
P 0.9969453830081406 6.451142636553848 12.363397844704766 0.45281137591176207 -0.36843316947499777 0.13811991893459438
P 1.0250982947059792 4.15379596656375 1.8368300028712243 -2.3146351067269944 0.28702715829267983 -2.24041867131458
P 4.213434213525782 0.9510475491824537 1.3855741128396928 -0.38921179678324586 1.2253394299294251 -0.06644604743837589
P 4.91407393472209 5.128637206700377 0.6220477317931405 0.5465648529158393 -2.631842131037164 -1.3944195446909597
P 4.400124609400043 3.0105413203089504 4.2405519269784975 1.2872593073626735 -0.7304421805912066 -0.19624201988830717
P 0.7893680656434675 1.0152037037246433 10.796433476329684 0.1959491712382367 0.8034867071827065 -0.29326105501753363
