# total energy = -340877.8663291153 ev
CRYSTAL
PRIMVEC
9.16735880091322 0.00000000000000 0.00000000000000
0.00000000000000 9.16735880091322 0.00000000000000
0.00000000000000 0.00000000000000 13.41735625596223
PRIMCOORD
 96 1
Ni 9.25215660098798 0.018867340599943883 12.899579958277757 -0.8937949059506608 0.1799311985434256 -0.029295663640323738
Ni 6.189378784031151 6.1964468174612835 1.3823230750274709 -0.979914520558564 1.8263787597440608 0.010932073531471496
Ni 7.017851309514912 7.150457150717083 8.967959319058599 0.5427997294464523 0.34100772627419335 0.5786388506322486
Ni 1.4271927113747938 4.813385770071782 5.501638963090433 0.8307658546136337 -0.5999083015339862 -0.45670094077415535
Ni 2.01129096040323 0.09034156815036536 5.351203526274429 -0.46932145775164336 -0.11747550321136542 0.021634033330007903
Ni 8.027810031907029 6.7492752065283925 12.472693657494062 0.5627193511885148 0.7590945542205766 0.12044152781822484
Ni 0.3750375543840261 7.661491552225208 8.558126138620858 -0.22516255957739933 -0.5245317843751999 -0.5622974331597477
Ni 0.589652751564516 3.567816765983363 7.262894803143258 -0.08283477320904443 1.10019458309826 1.5597972709002428
Ni 7.47219476584542 5.9138538232754465 6.937926610867348 1.4566047599704526 -1.1728254191911092 0.7480226126771311
Ni 2.6042723798516385 3.531092327693982 3.4790529002367925 0.10335577598053168 0.8087525835673361 0.1253857591973776
Ni 0.6090169629970321 4.519232736773886 12.399662812464474 -0.3600971388054766 -0.9371077098056828 0.7613090453733922
Ni 5.441487340066026 6.757846686758191 10.909477513655418 0.5514514915841794 0.027785140533068277 0.09173670368436458
Ni 7.324352774758838 8.25087019976954 4.284658366591988 -0.857427165954904 0.944157931784245 -0.27253462110345966
Ni 1.0818583153785422 2.036849555997537 11.284626909813566 1.2596492589548887 0.0007340499525471228 0.6533268263644425
Ni 7.120635733404213 3.6052745929555075 12.166790820762442 1.4182801533586413 -2.3745340970754714 0.12819494651139857
Ni 6.312643086886622 0.8833006634071584 9.108774529828453 -0.3358292673970475 -2.2318671822001437 -0.5778811465306176
Ni 7.9040415243321585 4.7915491220424995 0.8303729189079718 -1.083797115576843 -0.12774526056848967 -1.0408836040427687
Ni 1.2949810665896082 5.773556568262794 3.104588305761175 1.0761503976648628 -0.012304271288649776 0.9965405591510191
Ni 5.196177993040179 3.8929738058450845 5.965879499694835 -0.23835231879479593 -0.1457725503838457 -0.8384981902608849
Ni 1.9019243730861266 5.7595763464976155 8.04845492332682 -1.302896499679298 -0.00478662275536595 -0.6624208182459107
Ni 3.3117724421135644 2.89982801900532 12.560590291123264 -0.3237826206451585 0.5461113103181885 -0.8963498111620305
Ni 3.8223026389022894 7.499577665788101 12.403755121314296 0.6915642725790864 0.9932806574528249 0.7113908203867103
Ni 6.84470740887299 2.8702541203728824 9.740638383765274 0.045915017364559635 2.0574623127915856 0.6460292642617648
Ni 2.7584673504026593 5.505668017166365 11.691481615463431 0.1806145977636954 -0.7728263019843723 -0.7334627125850851
P 5.110380684515386 2.5780537344428445 7.812121337042144 0.8553134620460109 0.824690080733199 0.90197101400355
P 2.1972049914837712 0.44246072619803284 12.583520605025717 0.33088580734884304 -0.5859071021588877 -0.39558016220343484
P 2.5370114702836934 7.897321850526338 3.204842538694942 0.3071766366573613 0.43971391929785564 -0.41613638908823164
P 3.756132644999955 5.891476301092626 9.03630747734874 1.4233228579888713 -0.7107886680263372 0.027477636594978486
P 2.4256830682401977 3.723973551260776 10.598704976070248 -0.16859494759499996 -0.9729090357750083 -0.2886119862812965
P 8.232599654210196 7.937566554492983 10.580953303003959 -0.5167205158608973 0.47003159644479053 0.6690007854562736
P 3.9700987931961986 5.267435870929185 4.61353093686776 0.48214663454076967 -0.6783786271267478 -0.8108521464088421
P 8.836728581636608 5.380927769586832 8.701329446288963 -0.5806803065423096 1.2030973307017732 -0.6068492516281936
Ni 9.455671960454845 1.406731167125693 6.619197722810048 -0.6939422858929597 -1.452310246360157 -2.2103928143764513
Ni 6.898070602902567 1.1714509103366353 13.404609739945757 1.2749108130996494 0.8336786573850545 -1.1182259866786741
Ni 4.4126163570171455 8.398913872743883 5.603061117501502 1.3888592769943628 0.37727056526096964 -0.1815808183317066
Ni 0.6435302344078813 6.135218029809068 10.588427450417171 -1.126541448522905 0.3259024952016387 -0.2188034501285909
Ni 4.700113888018962 7.948842405490472 8.9787740519218 0.5710733795801648 -0.10277856332082298 -1.4803671524973732
Ni 5.729718259750608 5.083171964384862 8.506361731919707 -0.6849683645291236 -0.6279083862913379 0.8740588609743141
Ni 1.6828886756202797 2.07232723352622 0.8687465649977172 0.9796239859013386 -0.14516859825125966 0.2071303846660368
Ni 8.737656937953798 1.174228619972602 1.9135164979530568 0.7917478214792235 1.465670469717147 -0.7906851845426641
Ni 7.473496530757324 5.1573450622878525 10.559767537430629 0.08725501376392715 1.0778972051526403 -1.186323967898176
Ni 6.005307392016053 0.9342455082553233 6.620176796701537 1.3874791088173848 -0.7250994282220544 -0.4215148797913257
Ni 5.3783517418386255 2.8950334904917536 3.415548774196303 0.6523827172836184 0.057974262521938866 -1.1021419366326182
Ni 3.759616241243081 1.7173487763516286 4.635535347558225 0.247721932935154 -0.7597180467371885 -0.6030303921027357
Ni 7.380677025595073 4.5341113596754505 3.7572886489111608 -0.6215271653553426 0.593177667678372 -0.9942286231883909
Ni 7.1024751961472825 3.4096523291868848 7.387690054873998 1.426852982629317 -0.5583194223486061 -0.01024584609772429
Ni 6.134319628672682 6.102334714745661 5.039438163759968 -0.929014134164271 0.6605953350013977 -0.6764022201266673
Ni 5.022630728622736 4.488852110590409 11.090973794658163 -0.48768324808828273 -1.2817856858426118 -0.6169084356364085
Ni 1.7738747090756237 1.7782292043795318 8.391590070010636 0.38520190429290435 -0.13963404158627563 1.6796271332763975
Ni 4.1038597215737225 2.3647934728537603 9.800143708012996 -0.37656119789877085 0.0712817782641224 -0.14462069616758963
Ni 0.33172270204416177 6.6677865565148355 1.2246023383840647 0.16216384725767555 -0.5329086955849854 -2.0821559588835234
Ni 5.697870856201603 3.0770972309877864 0.5552944085129006 -1.034194107837735 0.43826818799026457 1.1351849831305159
Ni 4.2269223425414335 0.8727279488092695 13.213331887386655 0.86738864804299 -0.9367598395479609 0.3898229480046835
Ni 1.644954146004339 1.3145533770608584 3.3579612613540077 -0.36790069401029546 -0.2768178218598459 -0.21306937585829114
Ni 3.7936821455574443 1.1051067366221443 7.01036707800731 -2.2591882386125994 0.2472694187787677 0.978646709589734
Ni 0.9543953623142499 8.926568695275135 10.508378992429392 0.7207907735443715 0.7976513314478522 0.43398010213787197
P 3.746809441370324 2.867476410736916 1.6031729927473037 -0.28771518549864 0.5548396913301219 -0.048901867907025456
P 2.1741490847693945 5.438975483827561 0.45921957433503174 -1.5289612593559925 0.03077327662711474 0.19812329607142007
P 8.770815273773241 0.8320597128783278 4.027541461773648 -0.21728932747690965 0.18474301810977214 1.7888936183144095
P 8.408576268639292 4.238491549012028 5.709702249126285 -0.43045383415216837 0.43722174900362126 -0.8077277418472475
P 5.40557879668622 2.128110610208917 11.708494399431839 0.5244147991813614 -0.0825951463944126 -0.36955802710806035
P 6.046514668628825 7.4680694545048745 7.012245469771039 -0.755508379531215 1.7920046531395655 -0.3248015488279761
P 5.654197560143038 0.8061344229426388 4.367215013874819 0.7671246236139047 -1.0472278010932417 -0.27713123933520656
P 8.664107220431156 1.8314548880310912 8.532271437345885 -1.2360915262396066 0.4511465866148295 1.510751164105869
Ni 0.30616685665741494 3.7328108848880763 9.827206667142823 0.22107347710969022 -0.8829877880328277 0.10641847406625544
Ni 4.244798691683793 4.943250571072125 13.410633611238804 0.9224115412460888 0.9508281447155689 -0.045583087946437624
Ni 5.073922099623506 7.671850667369242 3.3352729657168663 -0.7527593560311681 0.1960386456282495 -0.9853323491400257
Ni 8.798418190320753 6.479397338629967 5.0187886886609085 -0.11506509399765989 -0.9244455409569822 -1.1586879513484625
Ni 3.2220881735701257 3.8419116188076776 7.57746537736929 0.3741507886850653 -0.8023885890225214 -0.12030937311573472
Ni 2.5705823372371914 7.265094969191548 10.110581637011654 1.0621034326534933 0.8010007075360592 0.05454081136035768
Ni 1.7218316146750203 8.846968521119694 1.3460020005136097 -0.18174202649991927 -0.715695104189019 -1.0854932723323434
Ni 2.774757746518543 8.013087254100553 7.3374015928969065 -0.6958253618482855 0.19139677598086394 0.7548157243395646
Ni 8.061490907162941 1.1856786507822468 11.020291626885125 0.3649338980724876 0.46747720545405297 -0.6275648869089901
Ni 6.358544051069081 0.6768609165677745 2.1413831118952293 -1.4847105170677333 1.8523494727762098 2.9233574070081847
Ni 0.4515996659211192 3.93132086659508 1.814254173212727 1.9369346530174574 -0.5206116233851873 -0.28388012802326595
Ni 0.023804879906648986 3.0657388737634874 3.9294333074728174 0.9326710141905681 -0.7440669704634927 0.4283799823422751
Ni 1.5023467166409812 7.251921474977409 12.617077720941415 -0.3009501961316753 0.48086905337992664 -0.024311065941538777
Ni 2.570637341388399 6.874831349017499 5.120532617356539 -0.060181297475586676 -0.19950860645472093 -0.40950140027021736
Ni 7.932955373150108 8.578438254925848 6.810770764313963 0.4813526778845646 -0.3721658970445526 0.005390574887952007
Ni 3.6342342785661303 0.7527528941959923 2.0946103319161353 1.4705085145357382 -0.2308642379478669 1.379415872193276
Ni 0.2545839636552459 8.147352387197476 3.023910050242072 0.3640700074102956 0.14315465314502443 1.3488619106658188
Ni 4.3751585300450015 0.1656358340021311 10.947100353081185 -0.5816239014025015 0.4330491056831703 -0.9485390915710763
Ni 4.3671462586858105 6.183530009286112 6.771726067579489 -1.2451713770536879 -0.5283395881570643 0.3055501567975319
Ni 6.468222328576358 8.841587281659917 11.741152197475294 0.34040505969318796 -1.636091671887608 -0.19736327797694397
Ni 7.114337758090982 2.430688446000058 5.105665912021071 0.7519319750338663 -0.5397396024638897 -0.13502173962524489
Ni 4.421178669888409 4.934559915181377 2.273490248793121 -0.41492257128578863 -0.5722969675746208 2.317348649003416
Ni 3.52481268709782 6.961902920378592 1.3009563508824236 -0.03086480789965652 0.7611555505146633 1.2042399289466486
Ni 7.771389846337315 8.410574752799823 1.2491112714261665 -0.474361334168396 -2.7995734450802883 -0.9154960450731782
P 7.374846585567102 2.913129856238942 2.0416119987562324 -0.4725129681057476 0.5572336454835952 0.5047648861609177
P 7.984741781511744 6.393370846141811 2.702551047021212 -0.38630902131415407 0.457294094273464 0.8510408028125859
P 9.074493192588529 2.3166740079059416 13.100558709638115 -1.6006999226518754 0.7666425417711635 -0.4814580931141773
P 5.216428688042985 8.486948016751104 1.0447515982382705 0.1608988645023229 -1.4937942245365563 -0.4884118987241911
P 0.8381825916435495 7.5905361971678404 6.347254449033791 -0.2728030442734979 0.7858965049047691 1.0950307795091334
P 2.2594238538577174 2.4911288408183037 5.781095803921603 -1.928719464196517 0.8575053274910069 1.4652958599865473
P 6.3133031367011085 5.489881825769881 12.701285409496316 -0.8709763653942483 0.30404400456565056 -0.2780799764017211
P 2.981252497509135 0.12260058609757032 9.19840287748483 -0.4102092249705193 0.67554398589143 -0.04029407163335641
