# total energy = -340884.9980100976 ev
CRYSTAL
PRIMVEC
9.14040581413536 0.00000000000000 0.00000000000000
0.00000000000000 9.14040581413536 0.00000000000000
0.00000000000000 0.00000000000000 13.37790783536710
PRIMCOORD
 96 1
Ni 5.3606378613881684 2.771233978493567 9.41701748690644 -0.11893846091013711 0.410238535546558 -1.56468210979637
Ni 4.676222544530009 0.4314189345591495 5.73585792399333 -0.30223909014642786 -0.758323737492823 2.0120252635047087
Ni 2.7537118202839848 1.9749766544093 4.901826044232099 0.13611908645448167 0.2819991089504692 1.7184065680374405
Ni 3.5894556980799868 3.496662296857411 3.1459220694723347 -1.4443076877706547 -0.6407317633082513 -0.7546712283419003
Ni 5.823480597568977 3.5364139223417475 13.1233268767959 0.8860476579050741 -2.3797737482078567 -1.0626832164163633
Ni 5.282258880351566 5.032058548233208 2.957534646643554 0.7180173245642925 0.111894152468846 -0.03134920373524278
Ni 4.704539522168655 4.8867078127878365 11.653308293030879 1.504318263996332 -0.41290656929702435 -0.6486422764045796
Ni 5.591469673294683 8.191512988717168 12.794055634910388 -0.01869371975476135 0.11693325755465024 -0.33603212743647287
Ni 2.38442113901975 5.37243812547193 11.861388720482791 0.537860640273622 0.6437515239711816 -0.43296117395505435
Ni 8.325867815802534 7.240892488919065 9.799156836817106 -0.027575852735739603 -0.5561722940986163 -0.3745529092194904
Ni 8.116049797179187 0.058952876267262436 7.236176953488536 -0.4333905481829891 0.6573351761928872 -0.05482620381126042
Ni 0.07219823853200187 2.6223824675686607 1.574325240324472 -0.8822817631047385 -0.6041063987757338 -0.8434977003580053
Ni 1.4640371021101692 1.2313406473894897 3.203313764403031 -0.6191740917421337 -0.47702088327843006 -1.6825684752929086
Ni 2.015468652775731 6.530591542405434 0.6073050241676662 0.27689598339594895 0.03846858838884343 1.7403085103168545
Ni 7.716403827749055 4.416324241696801 4.093024427019594 -0.594531353492789 -1.0702908535602922 -0.8522996149203514
Ni 8.097412509443487 4.045991554154061 13.188958647692136 -0.14179839622744614 0.8128835750165743 -0.9129897337115566
Ni 4.654660326889735 0.4152623529987648 10.332667707573588 -0.6031327220085548 -0.7284619169363841 -0.0057620992947578185
Ni 0.6623119871855409 9.05048263803667 0.3745482427677049 0.13979036465848185 0.6254828075689809 0.43548496881817256
Ni 1.9738889461010367 6.809776101796919 9.65872912401737 -0.12979725800151193 -0.5182384951673203 -1.1558250279783708
Ni 0.17081316430527316 5.241117913162558 1.7894291557097406 -0.1240385011408638 -0.28493093788528345 -1.003253966615453
Ni 6.261790484175182 1.998467497705401 7.012016723886233 1.0220307330023237 0.9746890104935664 0.37267728946333234
Ni 4.060744169360251 4.549719326157229 0.6060418200651289 -3.3208365860065454 -0.9671003995130312 2.021446556818609
Ni 6.553360293631344 6.267110200439124 5.132287669697565 -1.5053891284630074 -1.655388315333691 -0.08727532547890131
Ni 6.8538694201083565 1.1258603627058286 0.5548363518826039 1.2148932948954367 -0.3469922259924024 -0.16517075240479942
P 0.3308232828161253 6.0267175239070365 12.798698047093303 -0.7882102406396102 -0.6470348227081438 -0.22490776325411588
P 4.127999276353524 6.442962470545619 13.071835313907084 -1.4229179092409687 1.2927465557294897 -0.5755332151237313
P 2.4021078245364644 8.89692381804659 1.760933940155034 0.45674439241758114 -0.4169645414164819 -0.7220742682424854
P 6.656016192875901 8.185078142927107 6.054306011191326 -1.1357817361742504 0.4176595106009775 -0.07131905925996104
P 4.925965856350777 1.360229511715686 12.924396909742326 -0.6186950952231861 0.5389253340927106 -0.5279557224550843
P 4.134845440411415 6.37491214823454 8.626450065527163 -0.05040416348416481 0.5127257928792073 -0.6391649330417637
P 4.7865563847740695 1.633765300228965 4.0372524120235544 0.2567624458708675 0.41264740209836676 -2.5392811316792914
P 0.09767437800083202 5.984571112063332 3.8075402998461345 1.3292181682929625 -0.6360307582881563 -0.5951437902658073
Ni 0.25119846444829363 0.34124334560116626 5.186280047654791 -0.589656799009307 0.7132546130683265 -1.106037157921966
Ni 2.231538709070104 6.851154719540674 5.386601184494229 -1.638830668085326 1.7297955266006726 -1.2398227111472648
Ni 7.158692818194614 0.4553284084478428 9.502087245099753 0.6408721455408576 0.16885205791112853 -0.28513379792470894
Ni 8.495915928129643 2.535018467481448 10.60984503381806 0.45377271138376685 0.1614861044643606 -0.18293013327074947
Ni 3.105553466586252 4.75843135566041 5.10186565656822 -0.08099951977251857 -2.9262041324283605 1.713552582379249
Ni 1.539052413756513 1.18222924621052 7.226598722091655 -1.0044050495007606 1.8635558830149908 0.10268754626891348
Ni 1.5179563568197807 1.28887950285601 11.704706623778986 -0.24707272938692934 -0.47908702177883944 -0.7929747519077892
Ni 4.023716384849548 7.211030782674565 2.0371743747894477 0.45424245193133383 -0.4116379869972459 -0.19144177028618642
Ni 5.48373170834093 8.385636930321292 8.27014241687685 1.1425769047192127 -1.4344642193176713 -0.34209710268363014
Ni 6.913611113409258 1.0530478888938666 4.812795748139874 -0.679990708808874 0.19886814465724462 0.15759962492576085
Ni 0.7421525191338345 7.67078406164367 7.252137016320956 0.8843419880678769 -0.36743301034525755 0.6419118996592815
Ni 5.075959918019658 4.696724475079874 7.4119094842770625 0.9686160648266092 0.8644817588088402 0.3462404354280424
Ni 0.5278328505792296 9.07508861085889 9.256027516877555 0.6519898527205739 1.0783440628820717 0.2551313380253477
Ni 6.311230939968416 1.7510367085904353 11.204051856256811 0.500288595557119 0.8638868055373187 2.718361295076331
Ni 8.618671580062188 7.303485988876925 5.284006525969548 0.08317493015728257 1.3518405336781685 -0.2395638226043939
Ni 7.44334334034527 6.655001607815253 7.531721925493131 0.12203921132264789 -0.488117507412224 -0.17127326575811147
Ni 2.4116047063203747 5.7363451076305605 3.2018147378269375 -1.58753201781135 0.10789145906735613 -2.1231905082273306
Ni 3.557363732783251 4.4686530657708 9.612896386453306 -0.5404731381958047 0.2503719689634914 -0.5170059083117999
Ni 0.9049440631758165 3.6039706627314296 3.61428286872624 0.6668621418467161 0.49823994055820636 0.8034648528058356
Ni 0.9025282538827583 7.819068867399565 11.56340874433264 -0.9042418123155974 -0.6410405527979218 -0.12496255561702994
Ni 2.5673298025210274 5.59421179508022 7.2771936111566005 -0.4036287435395242 0.10979536095828832 1.4886311922783781
Ni 5.117493922664592 3.4624040553501008 5.195885700269527 -0.10022622921261448 -0.42226281370094376 -0.5284740568523996
Ni 4.378875998512315 7.029593724531526 6.378211834783136 1.1904840128131369 0.17661884634074096 0.005888340459976956
Ni 0.7005892651898533 7.882777496883544 2.8374278843558383 1.3688154709696103 -0.9536170203146158 -0.35192463029701326
P 0.31545094808640417 5.767541313144021 8.213300060343855 -0.9970252120969215 1.6925741803553689 0.8310247647019752
P 8.20321270833546 1.9849396968967512 8.284991920386128 0.5944884160699955 0.12589586606457673 0.2538910378603434
P 1.8488116310567373 3.274148254367026 10.559423812466198 -1.0984858279372696 1.2231732755160418 0.12430281054584398
P 4.168015973610463 6.33269261314322 4.292622557748245 1.7117029307650198 2.186499295588306 -0.9529030249667266
P 6.866565443975393 4.148665734210523 11.017804202461345 -0.07345487465604124 -0.7560868777425043 -0.07703230759465442
P 6.238966890513562 7.897987132387323 10.554192758139989 0.5223890270005842 -0.20492000727827936 0.25382084674404026
P 2.138279147143987 8.94261670739959 5.784299333416033 1.9500544782288673 -0.3879807525896221 -0.18719662185658728
P 6.864298623299349 4.282654945057818 1.6022455243448108 0.5552680371167921 -1.1609446085931232 1.5699207324874898
Ni 2.8339645845407047 1.6554097815228044 0.44302267991494737 -0.1467678244175795 -0.15072115263837269 -0.12597248493878305
Ni 1.2000804590343666 3.901664544175291 8.325179543234364 -0.8447598548998806 -1.7604093948317876 1.4496095595995422
Ni 7.9637249319926 8.93699535773924 11.842271561434623 -0.23209836746528414 0.6818377893199419 -0.02026929177199735
Ni 2.7557866924350414 1.7602410973838882 9.325753275599597 -0.14085274448472515 -0.8714504768171895 -0.7369730397311888
Ni 5.189282671009954 2.4292456898073302 1.8436363332068333 0.8161997838740008 1.7813093782092484 0.5710813499999648
Ni 4.19036426616259 6.9722833792138 10.782566714886068 -0.02126662268826015 1.6790836020681017 -0.3326040755915304
Ni 7.270141787964794 6.27827063610626 11.761682430238876 0.2474141718867481 -0.38441308984302186 0.7352691696662047
Ni 7.452666554416096 4.188655010249605 8.405192828855148 1.1015192154469546 -1.220082295295544 -0.5621578222580899
Ni 2.823809593528266 8.258539585561646 12.66489255840564 1.8337778804216094 1.3034207476138842 0.10763152053775013
Ni 0.2548939305746025 4.9255728188948495 10.86268785729708 -0.7152739574912004 0.28974430011352675 -1.2641574312378874
Ni 8.53097852536071 2.4665842481203937 5.883790824120081 0.5695325174556062 1.6986602386484486 0.7534823502401217
Ni 3.749504206295837 2.627784447486169 11.30857331235613 1.0387745281195657 -0.2593080951108567 1.85062271989309
Ni 1.190556156032601 3.50584840483896 12.69974218417803 0.45501069755592605 -0.5644998401277053 0.7959019528569131
Ni 3.1426178127207622 8.595701739905339 7.9254339433793595 -1.1035670991149187 -0.5834257304979307 0.41693034574443677
Ni 5.613123294994474 8.244243990653047 3.989720472993054 0.522272556027378 -0.8413917097585961 -1.0288899220160022
Ni 3.36371509228862 8.936346388916663 3.771473172000965 -0.9023620787943814 -0.32586495709548396 0.28325072196938317
Ni 3.448519778709331 3.157955413907867 7.366090457321928 0.3492853929019533 -1.4318476076304307 0.018106479792723656
Ni 6.14547881843865 5.70157500338995 9.61059574627524 -0.9844879988618594 0.9882690631708463 -0.03150938346219089
Ni 7.920417688593017 8.996097222623517 2.9984571581303148 -0.22382198638910483 0.8460536340106396 -0.012637743368668557
Ni 4.625566414745186 0.3321623522880625 1.4633963596529487 -0.21615984185815673 -1.69483546558572 0.32864869048820816
Ni 5.995274527432878 5.841432354858295 0.5348919860957974 1.0966328338889306 2.2231858523760613 0.09560235728735793
Ni 7.974739121164507 7.488844281173282 0.5255349525229495 1.3478594375432336 -0.47450017373910536 -1.0342648131746703
Ni 0.30836896155495697 5.153077523034912 5.804272948501886 0.353335651711927 -1.2081786018794223 1.228472062021136
Ni 7.357405243586537 6.622178410042373 2.7128121598121036 0.02356287492160458 -1.8551440048022114 0.9591616042819286
P 8.519159980465046 1.8625679420141819 3.5193533546327305 0.1243143805100698 0.671024757864838 1.1088879971071999
P 2.045138410495243 3.4712245470935783 1.3745534418827365 0.8801737156228003 1.2305726533039065 1.6060419036900793
P 4.538284678311539 1.1117841375400714 7.816390728455691 -1.1661510924947271 1.6028131123401363 1.8194599211370406
P 8.784560807681231 1.8199188078431279 12.874644766106133 -0.28888400899576056 -0.9436789352652974 -0.43759378763105927
P 6.444744849706218 8.186997628176982 1.703449013083629 -2.5811921700907807 1.2343169508376872 -0.18676339097391062
P 1.686697391095783 3.455631014539824 6.262252074675748 -0.9883433680522076 -0.9508273733846206 -1.3459215970905725
P 6.832234079220468 4.2184801548702975 6.181383247057878 1.3125211672532557 0.4070848204089247 0.2944126521234736
P 2.5052207440786116 8.90657608673168 10.329604757539142 -0.2287183952494577 -0.5963380676842246 0.40875012392648963
