# total energy = -340893.59679379343 ev
CRYSTAL
PRIMVEC
9.02363779315156 0.00000000000000 0.00000000000000

0.00000000000000 9.02363779315156 0.00000000000000

0.00000000000000 0.00000000000000 13.20700603356953

PRIMCOORD
 96 1
Ni 6.378412456429435 1.8789650092309207 11.43570840570819 0.8991875377211418 0.44617201621837355 -0.03690227234298806
Ni 4.337969450396046 0.4876626479796799 5.969447660001213 0.7227268142248198 -1.0165074891912493 -0.2136998103534384
Ni 2.488457594647285 1.761134348026863 4.685515759121763 0.9950549757444284 -0.5962362519990377 -0.7674550103701299
Ni 3.712396742582252 4.27588682295816 5.041391787816653 -0.7614152319339532 0.2587216264797673 -0.19625230430095233
Ni 5.239827897583852 4.363506345112502 2.8471002706637534 -0.18238814472435042 0.6105002181172196 0.15724532691013562
Ni 7.107513359678529 6.047190810683061 2.5629116293842036 0.252444535221804 0.46071366147797427 -0.3886196717252017
Ni 4.815166483360834 4.554545779049637 11.286627984754112 0.4309775678661223 -0.39878169985986806 0.1848353207132623
Ni 5.567079142738268 7.940710947538591 12.354876897113162 0.5008935761309696 -0.5634503158172683 0.4998502224681198
Ni 1.9708256411084908 6.263712997510398 0.18572360896276607 0.1381363739948266 0.48986405778968534 1.285954986728953
Ni 2.7707260058223606 1.3898928690410959 0.36791717085377323 -0.13082827036918757 0.7895760106388854 -0.26284387617825694
Ni 0.629763285165851 -0.052021271392356704 4.623112792545207 -0.18452910232675315 0.04590627561381126 0.5402016297019729
Ni 8.465236960287056 2.303012816089727 1.3156608157918186 1.272478806619389 -0.35986728218285763 0.9367176734561159
Ni 6.992353695236334 0.6856944987775153 4.91407638101667 -1.1280445154309928 -1.2399934323971742 0.2956048726593619
Ni 0.8123845674842646 7.4445191571963685 2.060332908271555 -0.47837456909284715 -1.4923145546672363 1.0750345388928646
Ni 7.582391317752103 3.926699114533177 3.8282485200367273 -0.11022139275211341 -0.03717892304314242 -0.2784371026308237
Ni 7.7162208886142105 3.765185023179874 12.761771671050939 -0.35135076007141425 0.4246009749158171 -1.353197304816379
Ni 7.816545692662818 8.8199020168014 6.9959487124995965 1.187095555956878 0.17247448515506425 0.3927437211959043
Ni 6.740070832168248 0.80024145821927 0.4212784524459157 0.5409678184440361 -0.7996598772374486 -0.27801209927826315
Ni 1.768687132789292 6.646161834530736 9.13846891302468 0.6423011646779002 -1.280796325346149 -0.13605558020639794
Ni 0.01972296494055057 4.890414598216143 1.4430366809644515 0.5201848202604138 -0.4873767725914574 -0.7122261718038121
Ni 6.570733246921246 2.0886743495879667 7.232631510696371 -1.0214864304630795 0.07200991467939856 -1.3605519454092376
Ni 3.4968761795406134 4.505745946319392 0.9738084224604777 0.3408138650958324 -0.6003767565299725 -0.9249173383870781
Ni 6.112684373174947 5.880695671314392 4.732387240473596 -0.7841864641921978 -1.3724489539571396 0.9755004506512682
Ni 5.106693146825338 2.6690115615665677 9.565610022890128 0.42871371153261006 0.314648005333742 -1.1371079111848417
P 0.13536268690886447 5.731941003681607 12.511736596136165 -0.6679047241786175 -1.969739101141988 -0.11127065995223417
P 4.035921225362854 6.143870065097234 12.613589102048905 0.10923537468976026 -0.4629407510362801 -0.5019132756447356
P 2.5092931741173548 8.514108982118975 1.3140816791927445 1.2506995059607686 -1.562521354699625 0.07826283756764588
P 6.182491234491732 7.82029952594976 6.024508092573959 0.4873947703135864 0.3512216906927177 -2.6305938604523598
P 4.744655778302746 0.9666662132138081 12.557247312921483 0.08704675440786298 -0.5438060592237796 0.4140221709587063
P 3.992643858910513 6.122908154699237 8.006443636429765 0.13820656511112972 0.04035397833701437 2.1051953572014908
P 4.541885615343917 1.0011274856244603 3.8218832459968026 0.3662490173394854 0.26976065790274834 -0.0495533854480953
P 0.1358183806131687 5.724234817078126 3.4019790935739667 0.3805194112155705 0.31260886341652616 1.8131085249977161
Ni 1.2972652279582613 0.7856890376859734 2.4581670475857305 -0.03907999672059721 2.4229124883788593 0.4397892526204813
Ni 1.8471386390312952 6.608217437964411 4.711070701113637 -0.37399755093665266 -0.44494482867949176 0.6568235266637913
Ni 5.90055669791189 5.74314836171618 9.269244884886062 0.8142321186246688 -0.9026024769399617 -0.511781426688067
Ni 8.689149506398062 2.261431893526678 10.246021181789027 -1.322986585560954 1.5744379036315532 -0.860784255352595
Ni 2.2835578531891336 5.186335773244928 7.057652347153705 -0.3083824840400044 0.6447663383889412 -1.149235033465679
Ni 0.601297317649055 0.13443686167992155 9.12486577917837 0.6541966305639056 0.8565208520905507 -0.7239362611518887
Ni 1.2927895036545998 1.0538255298449917 11.27865108901936 1.9798972726219128 -0.18899305163537775 1.127892820344477
Ni 4.212658193531231 6.737011818984899 1.5966081664062972 0.023750565452378452 1.1301175959099374 0.6538793564338029
Ni 5.584684259908516 7.873331444765524 8.054807627458667 -1.4162600376048189 0.1360902900990753 0.4695649412210171
Ni 5.442020547729304 2.7104932241148183 4.916889048890565 -0.2728938042150913 -0.22176073298470195 -0.12296609401229144
Ni 0.7960833659629649 7.229684390620613 6.82029638558384 -0.760654956729161 0.5939667392385707 0.26353421737706223
Ni 5.19718218577114 4.421681737422393 7.229950587933028 0.7478225808511831 -0.027854303208106865 -0.45887635115891945
Ni 8.378691251020085 7.395412520784016 9.074441691660505 -1.597047927721585 -2.142569684084891 -0.014672000189877958
Ni 4.712847455378538 0.18808599731498096 10.255490587200848 -0.9938833240338303 0.6101479769841234 0.09226352272211207
Ni 8.095448286972438 7.1494191331991015 4.839641295918941 0.6641313731791143 0.6686914817459709 -0.441942037297426
Ni 7.207829140089427 6.233456740272136 7.012114559455261 0.6491472410654562 -1.562081181838413 0.7393469392800041
Ni 2.2427619871067668 5.108461779816301 2.938083804956009 0.42946627342791843 -0.19715553284151208 -1.090514893916651
Ni 2.4584359519894585 5.231905143675354 11.245633598642147 -0.5070536821950945 -0.6911063591060613 -0.15306728427304606
Ni 0.8519992393905239 3.2399371194146873 3.6453583333145865 0.6058670902205824 0.3979980276163081 -0.46307419129035093
Ni 3.7952337367508275 2.6022366425200048 2.574177641063884 -0.0967200158315689 -0.2817057460797665 0.45506957581831947
Ni 1.1994489951927545 3.4550245478462944 8.246269367640583 -1.0659842557651382 -0.7187673153564396 0.1578600776759991
Ni 3.658209798139737 2.6444221488095563 6.811460439539192 -0.31164315706914714 0.14699510993703718 1.054206289293604
Ni 4.187013015162267 6.835053642693131 6.017455217340609 -0.47346016251036527 0.7351915223507338 -0.4234164676894127
Ni 0.9340006447072459 7.290666134258002 11.292055702836073 -0.4704308887657382 0.4834098175239094 -0.15259497262231783
P 0.1575057914829675 5.463857750985072 8.031906537317006 0.012849859379474644 0.8014092558283875 0.06451360630235341
P 8.574323716551099 1.7190120072012738 7.989525218089169 0.4064212186829968 -0.05873659460926014 0.2545836930519938
P 1.6640851244666206 3.2606102734059954 10.527700349421705 1.1711179495816992 -0.0005489305249345384 -0.4787957157906657
P 4.0218443505368215 6.048706781818171 3.917528391529525 -0.09497475100568804 0.8872918147248202 -1.4464185634660702
P 6.780740367322689 3.947787355859098 10.52208764676671 0.42566798272775075 0.08979114992221957 -0.21306037699722663
P 6.455537487928215 7.738671699234191 10.191740391514339 -0.4132981483084882 -0.17224154320865176 0.2279666046850977
P 2.4398292110335107 8.448272521394147 5.891962585357843 -1.5817328946310694 0.02838780711407369 -1.164437709348046
P 6.984900170488703 3.844656200482994 1.7064240325972257 -1.0369161347545883 0.3730151324187253 -1.305665834894319
Ni 5.281769765655261 2.8561166894625813 0.4364201165216095 -0.13484793305154194 0.23073234035569298 0.19951991930863058
Ni 1.5388641039788957 1.2835312513651709 6.819715263315381 -0.6905198904749721 -0.14466671891417665 1.01265751931754
Ni 6.775263019233329 0.6707802303720881 9.142285911775584 1.0940247068421223 0.29435274541981565 0.3108258033741743
Ni 2.605828050328184 1.6038433191213695 9.259273765217621 1.034744066803934 0.1914019181871865 -0.42025606768356005
Ni 6.444032349849246 1.7291365287107663 2.7962665099939006 -0.7183230287301693 1.1649609288413678 -0.7304804900283097
Ni 4.17918049763086 6.873756024827011 10.37241256808761 -0.726328158422833 0.05207358076678774 -0.06880092082379764
Ni 8.090629664435834 7.497713501490894 -0.14049352731019907 -1.7521271002183372 -0.6918902884599374 1.9417536716726558
Ni 7.63011733759498 3.881626044176746 8.413959236641922 -0.02476049477413155 0.44414135894158996 0.03961787150193822
Ni 3.047878014416436 8.18441233114542 12.313538710404485 0.66137952146559 0.5792178630641702 0.31256129800804233
Ni 9.130928761355042 5.009129575915684 10.281046431556492 0.0914140302376232 -0.8928083736676753 0.0016753308198938892
Ni 8.547207685235568 2.3470842626604593 5.7257390574842155 1.0964214892090731 0.5085217821001887 0.6770884475604146
Ni 3.623143942002582 2.3627944159118197 11.467181049309623 -0.6396745256883306 1.1484158799984931 -0.4636637452452337
Ni 1.1327011470593178 3.3023085032592614 12.801167970924642 0.40388611096596894 0.2607070323409123 -0.46522286220223746
Ni 2.8112782336865845 8.410219841175314 8.006575381540317 1.8242277748393292 0.35852182389855675 -0.260066570543436
Ni 5.387301208661959 7.983140092046285 3.6509051634143055 0.9010099356418612 -0.21365713004096107 0.05389186492244912
Ni 2.9694986972761046 8.367592176638022 3.613344271450613 0.4310259046055544 0.19310913068628033 -0.3226143113686702
Ni 3.415591251057986 4.23825825371165 9.007310338924436 -0.11706284115397902 0.12320083573091685 1.017500449232138
Ni 7.2284752231676075 6.042570708176054 11.38075445206041 -0.5912678522501688 -0.6082782707652363 0.10399418089547896
Ni 0.6653922162960472 -0.0531311788305631 0.18192916930613362 0.6276031963460933 0.8086014027014525 -0.26018715528170033
Ni 4.653372659238552 0.4483638033932354 1.6480762888070926 -0.3377591374299086 -1.3661006431416085 -0.19155772703876042
Ni 5.905294107709112 5.35989642093974 0.2877466616282064 0.35045318795780933 0.5473811781695477 0.44943706012289053
Ni 8.137669887812827 8.864226125227985 11.163538347493251 -0.7807309015434295 0.048656327555122655 -0.453447209723548
Ni -0.03773595053524657 4.937599199796479 5.6624508720484075 0.39932600239911226 -0.06463650503346287 0.31261040607842294
Ni 8.022744837951064 8.947099213947395 2.372942398879356 0.045135458886057744 -0.8142611720903912 0.24533337809831945
P 8.435206293991522 1.6494758550157578 3.6509051634143055 0.4672995422256081 -0.6659913092059885 -0.46820996985501945
P 1.9788566786694963 3.0411554043232347 1.6402573067322483 -1.5563699903862487 0.5011627706319562 0.010206765329672745
P 4.7631903301570215 1.0779998552673895 8.026729676363358 -0.39498520893191325 0.29230768996532885 1.498530196559645
P 8.509867872395747 1.5728471235909716 12.385464321855343 -0.8222740150925388 0.6913331304048868 0.9675174324457919
P 6.4214461846636315 7.773060782543171 1.495535302791614 -1.008495160409734 0.3033778317365614 -0.9137127279205103
P 1.7488712243803386 3.4749216689946287 5.8086130485673975 -0.22605601792594615 -0.8126182371703295 0.12204898151466077
P 6.948886832392104 3.885650586594958 5.914282553231042 -0.39763061697456037 1.5518990990990884 1.1086049186491425
P 2.4863189925102533 8.47211297222131 10.214087430300665 0.15349485872876792 0.7356229534611975 -0.2638787452006746
