# total energy = -381173.25313436356 ev
CRYSTAL
PRIMVEC
9.17337254707979 0.00000000000000 0.00000000000000
0.00000000000000 9.17337254707979 0.00000000000000
0.00000000000000 0.00000000000000 13.42615798136001
PRIMCOORD
 96 1
Ni 1.0125110044243717 3.782924579982123 8.87639570255346 -0.3348890149709651 0.1192117691761818 -1.7301562523742011
Ni 1.145460694001925 6.172670711366845 8.073055023581265 1.3348560833050302 -0.28277223967106785 0.9905930833183327
Ni 4.959253672895831 1.5584551033354663 1.7268057552430225 -0.5150210166712873 -0.7971386534774917 -0.5993951093429934
Ni 2.991024014021187 2.8600557729324736 9.324117748665705 1.9241596127399767 -1.3442737770745041 -0.933868634043095
Ni 1.998134853659907 8.506716124120855 7.336133231824783 0.32613595136868345 0.2788788181539326 -0.6338666607573018
Ni 8.50578961348487 8.285114961412999 10.33935049275044 0.20535503793316895 0.8063725133709339 -1.2970971193887015
Ni 5.5938675916824945 0.8530080704218421 13.014834338947509 0.38761874126451307 -0.3055069622644222 -0.19028245987076262
Ni 7.962322325184825 6.128849510296536 9.852127904078273 -0.9799919107637187 -1.7458816335292577 -0.2452431323773583
Ni 8.022903278056567 7.0138322883697635 1.9115629841056228 -0.8340260134221442 1.3621858814682346 -0.8605513134061824
Ni 8.914674351878595 7.770589663771698 7.829021295435409 -1.7986609821138184 1.4344081692687556 0.4855554031120024
Ni 6.386401120355143 2.4064875364408893 11.352393552787555 0.3003053634588247 0.6723051672391582 0.22110253057541274
Ni 4.2040282507236935 8.650435353170156 5.621116177753092 1.861773337193271 0.6103585503330327 1.4550903802084552
Ni 6.287172748578397 1.0511400765841092 7.0982759354730725 -0.43732690712291783 -0.6897117927513798 1.1801216957422063
Ni 0.35290973592127245 5.9433363955289344 5.897440177568925 0.05673781901167648 -0.9341123746227848 -1.087145977444418
Ni 8.890530035107181 4.326887230404378 12.061013655295111 1.8263664184488868 1.0670129541399687 2.225854657457476
Ni 8.036131281394098 8.894144343924786 12.584593071725696 -0.1092122347613087 0.18439231963857278 0.6516445535660133
Ni 8.24739405314398 4.8429628280207435 2.847271760830405 -0.7037860114562589 -0.820316891366168 0.6317884380720346
Ni 9.027616915742449 1.0321328484874635 6.205784751899312 -0.2314597054400207 1.3253214043417174 0.5008172143670794
Ni 6.244241364653539 0.39762992750966486 4.894143825954922 1.0645554937384119 -0.34875420298883164 0.9203652002400213
Ni 2.540446297008129 6.45189900095845 12.047452658530986 -0.2108895945981529 -1.8892941683213593 -0.8201119744442134
Ni 3.2397691863516176 5.602545602193801 3.5479559786727077 0.6920342702369695 -0.8532918036302917 0.851102766398773
Ni 5.3372057987693395 1.9846133023981039 9.308717490688556 -0.4067243517457124 -0.6382123393205074 -0.5394025308394452
Ni 7.9193083809062665 2.962742506192056 4.569915556909601 1.9480492748733806 -0.9644650187727132 -0.31339896341798934
Ni 5.405574945006937 6.917823770387382 9.739067003707447 -0.5444519203378946 -0.9427620798779829 -1.1455017916754917
P 1.5741507439114129 1.7308778153550404 7.507692729479543 -0.7652963121559142 0.7699402386858288 -0.8590001668689787
Ni 5.693334471147713 5.663686130796187 7.20890680943328 -0.622267900176109 1.184793904406895 -0.031134259510959283
P 0.9747992695279858 4.028789313305629 4.318013827055978 -0.9236603260515254 -0.38551917842300704 2.338234234203173
Ni 5.64240390628643 4.22408124330056 3.555582720680213 2.0096565061622162 0.2493173024467319 1.1458213797984396
P 0.8603568592385521 6.43220376991429 10.201987493598901 1.546189193198505 0.1617812671072762 0.370067362644311
P 8.313827617755907 0.385825631604856 3.853509095710715 0.13684465176659658 0.016274568790307455 -0.15256000561932434
P 4.505079993810434 1.1397181627333437 3.801589641279539 -0.5460483182907371 -1.0759038288716956 0.7122259146934959
Ni 6.613038464638799 1.998345841230478 3.1680361643693096 0.24145718297236482 -0.41295233493329525 -1.0282728572572934
Ni 8.179960590915002 2.0295720016749677 13.135092667486594 -0.22878910058639307 1.1246514305890438 -1.5855458406192564
Ni 3.9066642034356263 7.822932928018543 3.4176014362131766 -0.8600594613714284 0.39018907309485057 0.8448436728629386
Ni 6.042812448366787 4.338931868672185 9.181961662313153 0.7475850109190803 0.14997476139065138 0.4797696496681609
Ni 2.5909365399830033 7.6818097634245275 9.648815694389858 0.7900426658626587 -0.33903183349474514 -1.0638584676713871
Ni 6.173560528512296 8.402506611004108 3.064426589822795 0.7347858022718828 0.4481535654247765 -1.5959025012632322
Ni 3.0597967886546598 0.6070938008861149 13.07648765908011 1.2567122878137515 -0.5075601895178677 0.08066296236870624
Ni 1.3960680609769591 1.8957324949519636 12.041666095073763 -1.0982860532216376 -0.1855140919478418 -0.8294828741361521
Ni 3.0087836634396745 5.265405811166807 9.420745469300849 0.949818472504132 0.41801226595470586 -0.2476766815195154
Ni 2.851350242303267 4.870418732312858 0.14345320124292932 -0.9073415342868437 -1.6326677338077236 0.10243532104879133
Ni 5.01505529862551 5.922613746749821 0.03243521095758726 -0.347895197422646 0.5387890656251625 -0.96972909538513
Ni 7.193391884298213 4.830477867866528 5.426490234611355 -0.8385370139186203 1.3737522461495952 0.8342044479815375
Ni 8.641491314852479 3.218468615096593 10.346909351800457 -1.3300434924077351 -1.3514381560334274 -1.8504918507421808
Ni 7.947681622461732 1.2364055102906064 8.820932574273955 -0.1571226852893423 -0.03739875236343237 -0.8307902800936658
Ni 1.010190141148092 1.740674977327636 3.6451753818427144 0.294541464391854 0.2734082819576646 0.9557662054471346
Ni 4.589163127369245 3.548765070138984 7.571561419103137 0.08738536869420434 -0.5521420898933007 -0.10627629206143632
Ni 1.5701878469337336 0.853868532774866 9.423350707128767 -2.5865662899185002 -0.17027464929026803 -0.009026371868326388
Ni 4.295991311374695 4.358205124575203 5.426866342889329 -0.7692684094297848 1.7157102521522003 0.20565817099588451
Ni 0.23692252968035457 8.151770816812206 5.498803931081365 1.0457247341851539 -0.14476750615809905 -0.9245365580088916
Ni 4.33753751603189 7.958597935895617 1.1795443600217548 -0.5747163756493908 1.8528593225330932 -2.1988691300075676
Ni 1.565894708541248 4.320539256541985 2.426871687769826 0.7212170624485127 -0.8242892457503546 -1.8095622024073543
Ni 3.418649952705187 0.6202355745208904 10.506250834444637 2.3632814069797883 0.06120253965124944 1.102283604416805
Ni 7.864524999538906 6.987257027850466 4.274834762070016 -1.4200123055583995 -0.28335408031646686 -0.09280473993756275
Ni 9.117561834414078 6.753904774799077 12.134803347421855 -1.51875912201201 -1.5239486366327495 -0.47840825054425995
Ni 4.297862679391932 7.825859233888635 11.89019261413735 0.015766004585005107 0.8201407707996199 0.018992224831786645
P 0.8994638641124959 7.626732834132895 0.29521564341729783 0.8488458520437961 1.3886281348201635 1.4504335981627343
Ni 7.7782586032933185 0.5081204488685798 1.5212644160046642 -1.467418562756505 -2.5860389566601203 0.1770479634583596
P 6.665152394569806 8.332165189650304 8.511257860911709 1.0744838085957171 0.3900540901788831 0.8301930128292991
Ni 2.8781640105110347 6.685673229150982 5.5264478895124665 -1.0888241364777893 0.3032438772618584 0.21757651970002528
P 1.0519014665126911 3.369627449351676 0.340642184698471 -0.45912857637904153 -0.13062438188849762 -0.4064654416573709
P 8.568251107746482 1.1811909804094711 10.816650244244931 0.2666966742654439 0.20569596621235542 2.2011237303696993
P 7.118482123372918 3.0757492836643445 7.35361401071521 -0.18414292263192802 0.503469821498578 0.09457340180221133
Ni 5.63551470343866 2.557747277794941 5.48905630532099 -0.015132998986696518 0.8584998301937925 -0.23805381371777065
Ni 5.461596731679822 6.43501999531278 2.2584678303009955 1.8509114547781025 -1.444332627471319 1.445720251847465
Ni 4.364920033342937 4.5319304555087365 1.875070390432231 -1.766238342808739 -0.4183416242696667 -0.9571371176527322
Ni 2.087098221459749 3.8246267319740888 11.027051636304527 -0.5001281587198547 1.443750529715604 2.0948698069057663
Ni 5.979332709742853 9.104453084920783 10.686765378464235 0.39940313549395084 0.6985288768223776 -0.9362528180045553
Ni 0.07549410476204985 3.5709921520299943 6.324069887984926 1.239243184494711 -0.9102669354637549 0.7998090012208032
Ni 4.55664352138343 8.415165865238361 7.957348522542932 0.24367758766245126 -0.3629978573920394 0.6413346869995729
Ni 3.447215835085957 2.978309719551133 3.494829308402961 -0.0038425136745417698 0.06056644872914729 0.46585123981485577
Ni 3.674999850948803 1.310618094895754 7.519373184853799 0.1268255769676977 0.30986626767438247 -0.4109458460262278
Ni 7.27203520788535 5.1406112498604495 -0.009221074171210677 -1.348333806076491 0.28791007511826544 0.5789275855172611
Ni 5.335728885775343 6.717724993132489 4.936221168887598 0.7615479008570756 -1.1376056767568665 -0.31077695241410996
Ni 2.4124777487705757 4.54430533519135 7.000949203843254 0.4203020904301471 0.49933137385017234 0.17641212964657357
Ni 0.9226853395969793 8.629327422740435 2.5980825972645127 -3.581338701425503 -1.42595155386097 0.9594043164203543
Ni 7.081898713310455 7.9167490099415145 6.395348828021875 -0.6126550596766933 -0.4552881195870288 -0.05787630349149386
Ni 8.216828375529104 5.075581211261452 7.72955991999377 -1.3188327112935803 -0.26099191057118276 0.4854741562521059
Ni 5.016128583223632 3.4342630329274324 13.525914117827663 1.2193577584246935 -1.241734583457997 -0.45680918421724553
Ni 2.8820260003897453 2.4034694968444623 1.2625973238338222 -1.2302165555160685 1.0667026219884015 -0.677949252898813
Ni 2.3724176304800095 6.665601889828848 1.6832377392573998 0.1955622202124632 0.9096249310043817 -0.87560255131235
Ni 6.552338257922821 7.024390840270941 11.701191783094487 0.9480287275935608 -0.8127120824357165 1.4180706084509964
Ni 2.489809280071119 2.652205495802259 5.676230717872521 -0.5297696357353715 -0.6068338250092259 -0.38196077164778736
Ni 0.9216762686072925 0.8351998021283968 0.6884157492822376 0.2933261039275142 -1.4825309929179113 -0.6045242030394427
Ni 0.815885266048528 6.410086768494883 3.4247979470441696 0.5497663905722725 -0.34023793798770435 1.1378267916287372
Ni 8.87427481880059 2.3025899179936826 1.8949811957332785 -0.13905631470593469 3.866514922552373 0.7976109651282198
Ni 2.778843905007953 0.1883128280953512 2.1333090861010877 2.244014873306271 1.9264005862553535 -0.15749472391678038
Ni 4.591924312531933 4.420244643695675 11.479607132457371 -0.832391820252831 0.3525136700312638 -1.207577477960314
P 6.758234606682097 4.707398727242638 11.233706622980593 0.5302008097355191 0.35611090046421895 0.09586795224391877
Ni 1.602487291976345 8.378958563453873 11.59849587646227 -0.8843250187870124 2.811086845036526 0.6870265326097329
P 6.793845639245407 3.7239214472033457 1.628700204276618 -0.4103074411112805 -0.7235012304969991 0.08944147989228467
Ni 0.24584913859002935 5.551275622545078 0.8809180566593158 1.3537508633270041 -0.6098178473382143 -1.0088024072375077
P 6.227454092734204 8.042681069454428 0.26414176095852443 1.0060464417589254 -0.7120351388389285 0.20110963239325363
P 4.04486106215955 2.2201763382541713 11.918534666225863 0.09014339105531571 0.19680791969410621 -0.5427565349133426
P 3.4729563186956045 6.596572260761637 7.556120798286402 -0.05655912734196711 -0.781027606848242 0.8744283284985909
Ni 2.3254499625964056 0.09451234090585603 4.855288171491136 -1.5013380983220854 0.5814220698043405 -0.9342000492405846
