# total energy = -340889.05522539106 ev
CRYSTAL
PRIMVEC
9.07966552189579 0.00000000000000 0.00000000000000

0.00000000000000 9.07966552189579 0.00000000000000

0.00000000000000 0.00000000000000 13.28900827795399

PRIMCOORD
 96 1
Ni 6.522731750118135 1.8321312039380302 10.979550887401816 0.42460997377688164 0.288171042089136 1.7201605746140696
Ni 5.11929694824337 1.0814607869734514 5.894565086754694 -0.9687754732226089 -2.0045765205361477 -0.2716110808479258
Ni 3.1993199815188924 2.0070963562785815 4.840467687410134 -0.6977642307422112 -0.9974034213719466 -1.5797950541784083
Ni 3.6310126731655723 4.498365870240605 4.533492371790158 -0.49391817325440096 0.8483545142296745 0.3718349960676951
Ni 4.011850158882858 2.781619054260214 2.2520611890534603 -0.565267314421349 0.4117153772024006 1.5153035593632418
Ni 5.262719342969439 5.042709970558235 2.704845035467751 0.6418306527993849 -1.560137427848481 -2.070679325702492
Ni 5.3483950657242625 3.223508210155905 0.46500870791461885 1.0444864909026785 0.11954884080062636 -0.6828590314956047
Ni 5.790402257270209 8.292558290051968 12.579029284853178 0.6067199251391809 0.2274148459466858 0.2769029253744844
Ni 2.1336668920143 6.701746433228997 0.2932441376290775 -0.37286960797979657 0.9983537011003579 -0.5634084068357395
Ni 0.6907981953221901 0.12323648259926503 0.2804953794349224 0.9855169543470059 0.31834576590030333 -0.5952198949193813
Ni 8.287528155417995 9.083660457061823 7.019254160717941 -0.284358096100949 -0.9678871570803849 -1.4716408283679687
Ni 9.080936557440538 2.3734608553414387 1.1464285168407242 -0.5216115254046114 1.630548887692508 -0.41079389382939574
Ni 7.199275778722138 0.6363138471307035 4.356442528272782 0.6344377027694235 1.2111235434403593 1.8436691713933926
Ni 0.9403537069254747 7.547644380953705 2.3214697832699684 0.5987957851960978 -0.3694220157508283 -0.43247266435441
Ni 7.919120731639174 3.9199548653261003 3.728962287613907 -0.18187598097462226 0.9276373084214026 -0.9516526974993933
Ni 7.599071605803569 3.8294578402416026 12.570736826439443 1.3432173107855319 -0.8904653273567954 -1.770633129442325
Ni 8.625536859423272 7.449075533324798 9.37927529532796 -0.5740406897386049 -0.318485119691645 -0.707425150870743
Ni 7.151425942041563 1.1322161165833986 0.3956772908540472 -0.8530364930863761 -0.3669928374840454 -1.420198967647909
Ni 2.089712231792161 6.852459799274706 9.116180186673805 0.39943244606998946 -0.513163137526942 -0.4580708245384886
Ni 0.45006176272608667 5.0093603595283 1.1186383849378323 -0.7737339014003062 -0.9227085036612174 2.422693173279202
Ni 6.7116432685196665 2.370174016465088 6.701633845377983 0.8333770669842356 -0.9261450401465922 1.0900304980810647
Ni 3.656099788677609 4.809571401972436 0.1498562456315447 -0.09796777219574096 -1.076754864018081 -0.38369909449513273
Ni 5.977788391883821 6.08698044803574 4.568242975191974 1.0741925026075436 -0.14796390160820969 1.6575773525652098
Ni 5.338171362479038 2.945997316739371 9.25628577962769 -0.3274209887286942 -0.37353732347078245 -1.0485100102397749
P 0.45984691813228346 5.803921879057187 12.549288840821443 -0.6045866808462619 1.3990146202608098 -2.7848662207771007
P 4.5983965439996 6.4678633320800465 12.475069839873747 -0.7684487417419668 -0.28163401230156654 -2.3533613196525986
P 2.6518252373059754 8.679161363300974 1.2539135958966374 -0.032980311580762554 0.23961138801287768 0.2376162119597198
P 6.649865225108918 8.03873624367521 5.799855096922609 -0.06556544460563547 -0.23871792966433084 -1.3096734133918155
P 5.064483008197708 1.487530662849242 12.537554281252948 -0.8743738211115716 -1.613921306438156 0.32702401040059165
P 4.274343285720707 6.321862312379161 7.811266110201306 0.6394320706602212 0.790435016205071 0.8756125786146791
P 4.97716386600471 1.2356062665419798 3.6825306946694796 -0.5201583378978525 1.4689031177218315 -0.178976290829324
P 0.30308921882694256 5.733236683884837 3.334504395823655 0.789459282555363 -0.6166736939177832 0.735293852256553
Ni 0.5244432896845211 -0.1765958602471609 4.310595665780392 1.2497114310158866 2.2801291025303247 0.5294451625164172
Ni 1.8706199055867898 6.89564268793748 4.561691088636242 0.7198543777730312 -1.6487062753278252 -0.12027723432621865
Ni 6.379463709703938 5.916500650404904 9.273508088966535 -0.5951047094977557 -1.6257758917838967 -1.4551454018161067
Ni 8.690456467063903 2.60098819070739 10.196004817941406 1.5730667343156393 0.5305170554243572 0.04477833265695514
Ni 2.6347645460113265 5.435559853605388 6.837314009413819 -0.8955661389184705 -0.15724635535140014 -0.19521640683727023
Ni 1.0030033982150337 0.29777579863235565 8.783994272092295 -1.2833314330631769 -0.8166155312551806 0.5753092720383833
Ni 1.444710960802639 1.2854536296114987 11.286912996768015 0.7528300613681035 0.3543011009489898 0.07167798526127654
Ni 4.406906400623252 7.005079895055314 1.1693210772245453 0.45781397133267604 1.6670901771516515 2.099538930246662
Ni 5.953808995551107 8.01946919368732 7.815105900700778 -1.172893296314567 0.2332067700381145 0.2561929465206427
Ni 5.614783369020549 3.2567034668739674 4.774594714902054 -0.22841371952484532 -0.4168809805637401 -1.4305052346699236
Ni 0.9136504109714755 7.386534798020091 6.684929076967182 0.05385201282344919 0.6243872605119569 0.7032738477065307
Ni 5.278599677761532 4.575297875211102 6.71928108305775 0.8796602663214916 1.7493050573885098 0.9305778791069651
Ni 1.0664611797255743 7.912365460578387 11.309145465476943 -1.415554526897362 -1.723742121317741 1.4445108049203963
Ni 4.572365143285518 0.37274841180860896 10.434768239245157 1.143052815914367 1.2374284998834755 -0.7342525554762322
Ni 8.302791072962595 7.1747788414613805 4.6235517570021685 -0.5434653880549092 -0.7231880701319545 1.0074194108470522
Ni 7.543758284160672 6.263670736803105 7.116184128741375 0.31455698828183243 -0.44076730026303446 -0.7304992590813871
Ni 2.803047064614325 5.362159838477156 2.2416831314963637 -0.9908787328795515 0.2987300485519049 1.3305757107621214
Ni 2.6303972269518656 5.606112288559458 11.323391460496266 0.16027408643413044 0.21731092474346445 0.15436620559012768
Ni 1.4300836198363374 3.5970456448881465 3.5696005402706175 -0.8138968467724369 0.756629894730168 0.38737011558881673
Ni 1.7464010031907813 1.4718228416998307 2.4040874747166288 0.613602511191627 -1.186145790449099 0.9268284393668618
Ni 1.3075535352055256 3.4697214969238726 8.049338568967793 -0.6193692384720753 2.1061152979125985 1.6701901562332138
Ni 3.6895855946886087 3.026443152221326 6.882124882083581 0.9312522794661704 -0.47263380995432797 1.4771830983424366
Ni 4.32369126719299 7.506077672732893 5.7410642634298705 -0.5653218218083683 0.24827600566641117 0.3658337841789377
Ni 8.305941716857882 7.487836624935687 0.3407326036265633 -0.3719332122084562 -1.0028778142229566 -1.0999675546891188
P 0.4488350999299679 5.761565239946203 8.166228365449463 -0.4526486250816527 -0.10425154832192368 -0.9549791907694649
P 8.807556911782953 1.965375293745897 7.651292393409768 -0.28410432821893006 -0.38408373152806113 2.039723500750926
P 1.963777272634743 3.655482371430118 10.432748013692704 0.7904417010732903 -1.2841109915416786 -1.5116443653440998
P 4.064094553619108 6.642456218139022 3.544895678672101 -0.24898305903576476 -0.7863837289538328 0.9391399097443632
P 7.03086614480348 3.9377600891839015 10.252310547012993 -0.04355782998629273 1.250705933718672 0.23561357970739424
P 6.37120121418604 7.9172957188929125 9.929600171247392 1.1131588565684118 0.8784248512524936 1.436876942524222
P 2.2736480935521453 9.011286444124277 5.628705219984937 0.6609740584970552 -1.098740881370869 0.4016464230021728
P 7.260772352505354 4.064911723505493 1.3090153613356152 -0.4854695282664155 0.10063632016683959 2.3980792313852635
Ni 2.7942216298413607 1.5029570143711204 0.16728375540852727 0.7259239810058788 1.1792958574068013 -0.14207916069265852
Ni 1.836852629948258 1.517656992660656 6.997872456657394 -0.14581034560031664 -0.9190516236349203 -1.431954051301308
Ni 7.494201470384089 0.8476966294412975 9.063103186619983 -1.1459756459881167 -0.6364825011135942 -0.4874811593798056
Ni 2.7947300911040003 1.752429901019226 9.225894323586472 1.183450245894807 1.3432509922369449 0.45324589234601936
Ni 6.568683936729215 2.1808539131203633 2.4437420054032986 1.0454773940610382 1.1336310083798349 0.6981972045145718
Ni 4.395493261210067 7.043632154361903 10.233758974658958 -0.6902566095112564 -0.39283011026212344 -0.08423319621846782
Ni 7.43606437280046 6.256888226746105 11.359988867841313 0.7129314254009528 0.0960391877144604 0.8021546186348443
Ni 7.680225655187059 3.8461281059238672 8.173417644516576 0.8901907335391701 1.1301175959099374 0.30472149024864936
Ni 3.3985641591504994 8.513402991680366 12.2837077197796 -0.43009593659211737 -0.6455916625037139 0.5722087787361888
Ni 0.3578695641106089 5.1887745479169505 10.368030882590592 -0.3257127477883358 -0.4899846425279497 -0.3019737523001832
Ni 8.922796025094124 2.4489401138472506 5.572200646240997 0.27657253861825914 0.522500355767468 -0.7893304702869826
Ni 3.8254355484675044 2.8423166174878522 11.406247947143058 -0.5835278032934337 0.05141383569560178 -0.3019428990622477
Ni 1.3448437210209199 3.635153000589926 12.489939607906342 -0.42517510225173233 -0.2314504494686401 0.46189148383615936
Ni 3.379832809421462 8.757991018340967 7.9665874064396895 0.2858804462827464 -0.6873026690892551 -0.6125000221560677
Ni 5.682100008327909 8.329022226315573 3.460045297502527 -0.8088173753670005 -2.07630592786065 -0.20534038264514962
Ni 3.1437433495792706 8.607195935306619 3.590756160662599 0.41678533552614033 1.428395130305456 -0.803967246363551
Ni 3.643442735104037 4.591586794946388 9.115860582451576 -0.18904550213986798 0.3444203515001681 0.2396391559270196
Ni 5.3695597657816485 4.693560517101901 11.386819279110972 -0.5197364198690856 0.11070655991864806 -0.04306032152458391
Ni 8.388130848097461 0.1153598728610487 2.298347507351419 -0.5077777048453125 0.002907660565098218 -0.412919939033463
Ni 4.998355805058308 0.6758821209960324 1.4612059889426015 -1.500553911857893 -0.9025122312190005 -0.6698513063820271
Ni 6.4311451651851215 5.740482256877455 0.20131161744416218 -0.4428349814253405 0.663997161594095 0.9371100237985279
Ni 7.809692604186743 8.742646383807728 11.272148552854109 0.7157282714197997 0.7964760801928283 0.8601707901383121
Ni 0.3350986712432052 5.100256889890586 5.839694852783525 -0.2920248686175874 -0.48867337991569393 -0.49141083345151493
Ni 7.489253052738754 6.5088217027187705 2.4476762244229744 -0.48366975605351537 -0.9132463298070531 -0.1273048305969614
P 8.851320899031602 1.921602226831844 3.3987702675551765 0.11010286489637812 -0.5532990863158793 0.23662145214661828
P 2.1373895548300563 3.4489653818096797 1.3812994855856602 -0.13834000536520047 -0.8693825385445673 -0.7760990591983731
P 5.158475704462854 1.055547421909625 8.0913184019645 -0.20562268977225878 1.0660891567741189 0.648790886167302
P 8.669237289014092 1.623371536962734 12.265143435894 -0.025344392302059576 0.4180986550209251 -0.4794773152387226
P 6.586026097651398 8.263149253807493 1.4625879140171334 0.04089776665562633 -0.6371093360643156 -0.8288015317984113
P 1.878591851811751 3.4878535887362276 5.894538755725022 0.5106712243430237 0.7517509693713118 -1.447067767014295
P 7.299805834078371 4.247013492853812 5.81342284093623 -0.29636437653320574 1.2204142247136658 0.41753995430397767
P 2.5549452074422656 8.69360711095919 10.192562716786641 1.4017091363738376 0.8300850264965253 -1.017332556195706
