# total energy = -340865.30037164275 ev
CRYSTAL
PRIMVEC
9.29025521183427 0.00000000000000 0.00000000000000

0.00000000000000 9.29025521183427 0.00000000000000

0.00000000000000 0.00000000000000 13.59722757590644

PRIMCOORD
 96 1
Ni 8.889185572273837 8.355971376298738 2.591250980769207 1.969962015786072 0.6071266736592963 1.300655269053605
Ni 7.1669301965015295 3.54261584623051 0.5267881264680679 -0.014460912620336386 0.9938804958203528 -0.6847871017562529
Ni 4.763504020779922 7.559508509583152 8.858131036288368 0.3384427937604946 0.3924871251004079 0.15171925488558388
Ni 0.9914839034245206 2.809252392687898 5.868536210073707 -0.22262128121278435 0.5471649483936835 -0.393213204633155
Ni 0.1858543419242203 5.056611571664394 3.794605656720068 0.34136562383424435 0.12687442792776213 0.9151654012066367
Ni 3.312914286939905 6.637562166170368 7.04076667312526 0.26641822379307667 1.2016030055444338 0.044868578377916274
Ni 1.8338313404671571 6.216249093821371 2.2784192891150723 -0.11385641840153941 -0.42255154858595617 0.2933970663747657
Ni 9.029905067463918 7.060045810671866 11.354310190687487 -0.12551020059038384 1.0429651691621458 -1.8410281342261199
Ni 4.294355424516372 3.5669098635225196 4.668648657355495 1.6093938508814478 1.1334605442402415 -2.113630375342721
Ni 5.1287968544020295 8.727525841911214 6.817459596474077 1.6662147165252337 0.32528620177387846 -1.2239764881436275
Ni 4.919431663697354 0.9395978282521029 4.6621761365725725 -1.243328410307678 0.20206094056292942 -0.9440951968671096
Ni 0.3589206475951132 2.7351068661075817 13.596343266370098 0.05273589694113499 -0.18450004886103064 -0.5646391939190469
Ni 5.842399935179784 8.289657534833973 10.970501878494455 0.962710755085768 -0.3588095303423046 -1.2245981808880264
Ni 6.072538136463781 6.45711753983664 0.30059921266048706 1.7668857465847507 -1.369602742757596 0.7406594874438406
Ni 5.033971219794174 1.173684387987002 11.009498653632097 -1.2472316020168261 0.5192926474634476 0.5016479377984909
Ni 7.709704065055395 6.033593386755138 2.432666324870698 0.1610852694815161 0.49815226594040657 -2.4449578982146734
Ni 1.0967703653634662 7.166447103232243 8.653397966815739 -0.6837144375173644 -0.11889140972228557 -1.6270835548517268
Ni 1.089412483262024 1.8763714189299148 3.4764710874099944 -0.847793756630198 0.2225868284304231 0.1088931608589931
Ni 1.4487316828042986 7.97212590308499 12.589930851899105 1.6011573219042683 -0.2710235837755719 1.6071436213946901
Ni 1.5676283685798769 0.2559168013535469 6.403423581006469 -1.516469297536569 0.6473775507595432 0.764324178050632
Ni 2.788785960529467 4.590296503230314 6.24258232212508 0.3909467771964816 -1.5960387697307803 -0.9655088866561952
Ni 3.7398386734167697 3.503931223666867 8.008386698072538 0.8070263449048487 2.1179480288814685 3.454160883324709
Ni 8.150610285576036 1.1124894771256382 6.140576249289695 1.0944972756031668 0.6773941517262915 -1.2458910288285316
Ni 6.3934700016081285 2.634781400434002 2.7975076520911264 -0.7634271201576595 -1.2994697333859362 0.007858833922786466
P 9.11752146405319 8.890365434681518 4.726695100736835 -0.11711323477594024 -0.5945606640688277 0.7404653691551635
P 3.2898837443521836 9.158166330459515 7.827652215777239 -0.8000236883347706 -1.2620370424607747 -0.16080321946472306
P 0.4970202908248341 3.1963308747037957 11.365745565786812 0.864335205928647 -0.6673691633901215 0.8582560896141024
P 2.649041942133136 1.6714562604557839 4.93584754459792 -0.1289323388980554 -1.0673996480554262 -1.848610574559068
P 6.81290644241105 7.377261573744777 7.111227684501747 0.7040968578284584 -0.5491315852017511 -0.14976753047585176
P 8.316645726127772 1.1697546100464589 2.0808248517216694 0.5478928276986436 -1.6207732963629828 -0.20113920007960842
P 3.650475708853925 5.280924782951418 -0.3298402908350949 -0.9134031670998913 0.17344147705402385 0.6754766229886044
P 5.331891122861156 0.5978771590946287 2.4979331545768377 0.48919197142332527 0.6988829177276867 0.01730352427545407
Ni 7.7320749995254365 3.6106669654136727 11.23118736783117 -0.220287233762969 2.519469753380319 0.5092031244379295
Ni 3.3332971068017283 8.494907142494533 5.4312355375878765 0.2626808682378315 -0.21215586290508623 -0.9123960659916157
Ni 7.123358899713948 0.6771406872528295 9.675841645622905 0.33528367930622255 0.2554247008960504 0.5431625121025098
Ni 5.54244546622869 8.493095542734707 13.191772162878438 -0.8857285840027584 0.759861257183272 0.5217339099150886
Ni 5.107754426422525 2.2065006367010636 0.5406110971482901 0.21614235835666004 -1.6963341616184335 -1.2218393871959667
Ni 3.871936811801122 0.04051387380830741 0.849294689865185 -1.0859542711291619 0.1974059582894213 1.043523869879093
Ni 8.146569024573349 5.012520020586813 9.070995866118817 -0.20383525885453282 0.8440126923212109 1.0031974023459045
Ni 4.176545698596688 6.788064300063504 11.588563045990083 0.0279391496124293 -0.9783821430744376 0.457833768827018
Ni 7.873992937633558 6.899259364296032 4.634628671917021 0.9295062433093413 0.5540380213644329 0.10246925961052031
Ni 2.1175278628557197 7.504807487091621 10.563100963275392 0.007617150225625592 1.769080440243224 1.16150999417829
Ni 3.6512282195233907 6.040198758187115 4.485643636694548 -1.1528656882397306 -0.6615548707011897 -1.0855045851862533
Ni 1.5018626521706475 7.222170053793418 4.530432885936042 -1.2097688291846778 0.038057211883037685 0.32818897724297025
Ni 9.323607194679822 7.134367852100576 0.5646775031884241 -0.6793412481503333 -1.1113421150746472 0.7162674317527213
Ni 1.3195599748012015 5.34799113508565 12.701523539053277 0.4679723999229166 -0.551736884035082 -0.3701938609198463
Ni 0.9227657439195358 4.343556615942177 8.020256857114223 1.7392101350463534 1.1563636740906602 -0.676293719573261
Ni 5.873866029469663 5.176520895254439 8.149756511125123 0.35188966329401977 1.315681310148792 1.1001938117673116
Ni 5.543355911236192 6.876145209411703 5.226665047580872 1.0627315531557955 -0.20236715894943857 0.8331297268601201
Ni 4.8032384421787455 4.137415143784473 1.610605089036028 -0.6707609626804899 1.986244297885863 -0.8659267187854829
Ni 1.5306438627139152 0.6337338279819095 11.440761589277363 0.5832048727363763 1.0815209179481566 -0.2987115366091436
Ni 8.057122447713898 4.939322100034713 6.088457917737812 0.5107483574378623 0.6352494000374415 0.020185473808939428
Ni 1.9998296199981798 3.877882575115419 1.3056682562326578 0.31868438018664474 0.10024448404505962 -1.2234679239383253
Ni 6.377184184280062 2.6420092189629445 5.491906478057167 0.7946192294897476 0.7242651052462171 0.45623274288848525
Ni 5.564045309518908 4.748137938714535 12.307122477905615 0.30101035994564934 -0.5829287362568542 -1.1119555802889303
Ni 2.4157450540884167 3.3448634744990717 10.280823062852601 -0.91800698442049 2.013287932267217 0.8649041910582396
P 0.8320157442585279 2.2272829375355667 7.917040264029066 1.2202980108507757 -1.609886217136834 -0.9206251387696273
P 5.2289736759927505 4.724717205409314 6.288105501525683 -0.5523549772350551 -0.391419603067842 -1.595966264621632
P 5.308684065425041 5.768914016717146 2.765798153115567 0.5556701576512172 2.0295702143670082 1.0010603013982435
P 0.058315860781519055 8.785385551163465 9.889834312432036 0.5558563055200942 -0.7789568403621423 1.8145367728038106
P 0.9742226093027029 5.38090650918339 9.895885055629849 -0.08876630820213101 0.43331392930878276 1.7407682235620923
P 8.472424724962348 3.13876845361726 4.548150331587128 -0.43750714145452396 -0.0010626369365594602 1.1489118457983052
P 7.5314147779231 8.685942659731852 12.624495246291044 1.95610248419516 -1.702815398467403 -1.354534535570564
P 6.585258029514913 1.6269094868744511 7.578727260471098 0.2020758529612649 0.054397343803957936 0.4128289219815535
Ni 7.325124661682538 7.463595915119402 9.2734583972258 0.6285133668651885 0.23689810284677268 -0.8061115464000633
Ni 8.276744080135733 3.2010967756104116 7.527425542349414 -2.1304006528225243 -1.5527614470993838 0.8277121553889745
Ni 4.10274391145798 6.916678592755886 1.1030031975627814 -1.5633405081668108 -0.668033793557314 0.5810199492699155
Ni 3.989579313127591 2.282931566055313 6.33439048185093 0.9104227443153289 -2.641128441435096 1.9099822927983297
Ni 9.302053802665498 1.6382807592130437 9.71411749695869 0.2828534865309645 0.8689901882021551 0.7555955399283826
Ni 0.20109128944262358 0.16731099258775725 0.29645854592739007 0.14597695308516795 1.0951405656141202 0.1987316190793803
Ni 6.401255235447786 3.2290139924220704 9.510267930753544 -1.3282650603510737 -1.2688388958739567 -1.3625049553705504
Ni 8.260291038214454 1.5098987229001266 11.913496224039848 0.6644856711947394 -1.2486120273041206 -0.5878297731028973
Ni 8.64500050515981 9.102211123518876 7.983326234728297 -0.24034338108289574 1.3736404031620795 0.004712060763688659
Ni 4.517888254368394 8.037074077038504 3.2446383435814212 0.24626514588396942 -0.425064544815797 0.07032558499844017
Ni 9.1732722853799 7.444420828430795 6.722564284952383 -0.8801346348547486 -1.194669254539078 -2.5703238599177087
Ni 6.802492066355853 9.031270734975172 4.6007582595869225 0.5637848163385517 -0.6340831476434821 -0.4019526413886819
Ni 2.3596876543408127 -0.03846630156694647 3.1614645470185523 0.3462772022032488 -1.0064225941514218 -0.2975347426922231
Ni 8.040660115537438 5.773233985375191 12.77194367330698 -1.7521682378689178 -1.980913115480937 0.04259135230796536
Ni 2.4569008845295643 3.938724456279996 3.460847665276162 -0.8614357728936649 0.6933822996244317 1.0809077098441902
Ni 8.652627804661433 3.1567450973878293 2.420741353323462 0.916187671823564 2.292426431840439 -0.5466031623529425
Ni 6.748088332030036 8.319692929826351 1.9684703636428538 -1.336067330004312 0.05117189488812478 -0.6125789550231192
Ni 3.156252713863364 6.033630547775853 9.375805422426241 -0.25552368836775996 -1.8159819898907694 -1.7895597911434988
Ni 2.6560932458136848 1.6102241885737059 9.041965676736764 -0.25259057388136497 -1.740573848163099 -1.0591510348933888
Ni 6.864216521762396 4.699884353316945 4.000290977348503 -1.2159731582231768 -0.23107763951025367 1.0362962417824024
Ni 3.833391543065158 2.2516884378897193 2.4556727127949554 -1.5858160635615077 -1.380361781046313 0.9119790330588552
Ni 5.025823666002552 0.747677878721782 8.782694164238228 -0.8058636920553154 1.2732341967281748 -0.6990736935822541
Ni 7.2141432733191175 1.0066641803863345 0.257193282415085 -1.3786147164482192 1.2283707605565812 1.8126940631681168
Ni 3.428624415189227 3.21104663890668 12.625542258049672 -0.27238729689231794 -0.22242407760031369 0.019385860725779514
P 3.629368249088172 8.936649485981246 11.773540387825447 -0.36001974860032193 -0.3165832746832419 0.05473647231093154
P 4.24321256975824 4.6071768968898095 10.32778808985692 1.6752773409481339 -1.6895827018272127 0.348065147341607
P 1.1532272460837496 5.7634234759066 6.308787467604257 -1.4949324519060578 1.1375077177264215 -0.6953797896704347
P 2.0378546344441433 8.049922499950492 1.1751606095348797 -0.6189365218100308 0.3549880997136854 0.4821402067828664
P 2.440763711284356 1.5505807503271665 0.26208645981764767 -0.6031288653538129 1.6272491338953137 -0.2222682687487398
P 9.131038785338037 4.904622996942683 0.8091617165191998 0.4806800772975722 -0.7302521760675875 1.245543415681126
P 6.812339736845156 6.117354327445294 10.811985041458748 0.33420355886816633 -1.1151128949709892 0.7525485255719426
P 6.170624650639322 2.4391936581591747 12.222398137753439 0.5504747294932069 0.8971049441605 0.8252125288955723
