# total energy = -381164.1933515931 ev
CRYSTAL
PRIMVEC
9.29806589400897 0.00000000000000 0.00000000000000
0.00000000000000 9.29806589400897 0.00000000000000
0.00000000000000 0.00000000000000 13.60865929879139
PRIMCOORD
 96 1
Ni 9.187000437794659 0.9231510278942898 6.389660595061906 -1.0106967960467432 0.7605806518477999 0.8775504190673403
Ni 7.568523310301589 6.223762644835228 6.064413322375565 -0.48934135251699595 2.6467972096851 -0.13426969195056876
Ni 6.865961455870647 4.381164938474988 0.5323598295296207 -0.8985180224579429 -0.680956158045937 -0.013049634095106556
Ni 5.728984667600796 7.025228025544385 10.432003084732644 -2.2818846517688507 -0.9868912089867132 1.8464171664521747
Ni 1.8227649319359263 1.69003504215295 11.708917623420131 -0.688440382238124 0.4148608648099178 -1.1954652680778122
Ni 3.8854571546571366 8.795105559015473 11.975429944038515 2.110872610091926 0.8487008418254995 0.1778339496947647
Ni 3.3230078542815127 8.428789659346126 7.427347987321423 0.005413200595771323 0.6950602015474868 1.1431181219346638
Ni 1.7858795047717182 0.6906705580356042 1.916071952388546 0.6510693977888335 -0.7338406647497943 1.4579741295141535
Ni 4.516637757679048 0.592491351085872 5.729626234143354 0.5495187933378407 -0.3573064634342169 -1.2570809840070802
Ni 4.553913703608291 0.5207735096936441 2.0883985853329783 -1.731490140694276 1.1771628702241983 0.6527313588722887
Ni 1.5736139598431322 6.9732425394654625 8.00960774676336 -0.9163421951235573 0.22758839541007256 0.23627075367541892
Ni 8.570640951712436 3.4109117686778876 7.092737562340061 1.1677909420909953 -2.5142326733510956 -1.2875963789871179
Ni 1.7183848448813768 8.693468401382008 12.27456173921638 -0.9812728343586714 0.42823342946208187 -1.4278811667835152
Ni 1.92008778702233 5.992854477909102 10.216428358173673 0.07001268174371168 0.042660772093320073 0.34432496357288445
Ni 5.642019857853672 7.371395016551055 12.811273063556401 2.0706014212767045 -0.08292064805463138 -0.6799621695637837
Ni 7.985281217121384 8.363600919782662 13.47581140756503 0.14532132177904006 0.5121678634932083 -0.5338607750856096
Ni 6.552216820427778 2.01346826219504 6.3295783532545755 0.6047689720603971 0.6346400485882165 -0.08168574720626577
Ni 2.6784101422608737 3.253197975998459 10.093515366298428 0.5562363145673324 -0.06055693564745054 -1.755729729967931
Ni 7.065600227396412 6.591296591128852 8.47833068391724 -1.5778698121312373 -0.2841313248021236 0.043028954066016215
Ni 8.568967299862283 8.097592554332493 7.487089919919223 0.6517790222613485 0.02310341878668279 0.6365742894964521
Ni 6.769122100207621 0.9940283241351076 2.2230429468712134 1.0195352202739796 0.003237018880058941 0.38916243160254915
Ni 5.236986812050784 4.625657579584855 10.127387290325776 -0.19210511490179819 0.07865133125531615 -0.6714006531470179
Ni 8.405051697271455 5.6505275880919505 3.5105172989265836 -0.7295734048330081 0.12969878475043467 0.9263900662778627
Ni 5.25133372763293 2.3990962446019863 4.000959588062536 -0.22422899201953644 -0.6954417532566216 -0.4501543979048893
P 7.353459047556914 4.32421428524061 5.598479804971939 -1.318730124277445 -2.910899640860806 -1.5351457909001496
Ni 9.552367934748919 2.9586445484373445 9.252581555736326 -0.021356868409221283 -0.09311378653754931 1.0317713573288554
P 7.024446988014313 7.3937103745530965 3.9066920774092453 1.247836839700993 -0.4228549387589879 0.4148127851808017
Ni 8.933367797969789 8.039656306119692 5.085433917793086 0.5573627148622916 -0.9402935637328323 -0.3684971899437137
P 4.477734650228822 6.445075207820475 8.908528015093767 -0.9026024769399617 0.6044360142010107 -1.498791934861464
P 3.5787418569849088 4.629190844601845 11.517307731742186 -1.4135390391292302 -0.7312171110840181 0.15931300807244175
P 4.554341414636664 3.5450177722043237 1.8827439652124969 -0.27727444978129023 -0.9041875620388943 -0.9500254463086154
Ni 1.7128803899075398 5.952389295398734 3.4565857276685668 -0.997275637544831 -1.1447250614104671 -0.7319689016483781
Ni 6.318184503381366 3.5659477183970716 11.812942524359816 1.6053371643135708 -2.0397492117825387 0.5399072383900055
Ni 8.654081794508404 6.623216851137606 1.3949423267734526 0.9208061444321819 -1.4849745693623975 -0.3665269535912204
Ni 5.627459086757341 8.300513543097724 7.189127821423296 -0.8281906376872898 -1.7776103320911063 -0.13340220174395093
Ni 2.870610461119291 1.0117690337467304 -0.04647173303925157 1.2898854321316109 -0.5570145874942536 0.7115450865763875
Ni 4.29743585563816 2.048140749690712 11.312524340390368 0.490411188542407 -0.20992183136824494 0.7308327311614059
Ni 3.9932961222020023 7.400507260677885 5.480138672067363 0.12081613754882418 0.14410570420438407 -0.4428779188481341
Ni 7.351246107888378 8.21914616898278 10.047790267945661 2.235936724283827 2.569790613122058 -0.3486942962851737
Ni 9.105037987466327 1.9255643477986644 2.0640525297527508 -0.8041150847953248 0.29429772381216407 -0.1909188079031809
Ni 6.547316739733162 7.5020607357188425 1.7579936755284171 -1.13106247632171 0.5348467931479628 0.18303863382415575
Ni 1.2097155572906735 4.071418471340816 11.62776875385229 -0.5219311135275593 -0.2757526138201251 -0.026956216873869704
Ni 5.218390680382416 5.306434065766304 12.708106374093212 -3.389594826517866 -2.321189362905744 -0.10409419680845299
Ni 3.4125110360013675 7.3307717669215045 2.819333487656933 0.7006919459119674 0.8524461678005448 -0.12761824807232214
Ni 1.3708789323945847 8.199108837110114 3.6435958661783423 1.0567609373946574 0.9713969700058561 -0.5952854580499941
Ni 5.41125116191506 5.940915482159351 6.848938556941423 -1.5737437057780057 -0.35985108423294154 0.28108508177663205
Ni 3.382301620106104 1.988010157941044 7.039432680719267 -2.7522147532906667 0.0722405426329659 0.2594978425241595
Ni 3.8894646210316695 4.489310742192381 8.087843532305351 1.954831073681904 1.71645407229676 -0.6607732553401587
Ni 7.844759548169361 4.868755510819595 10.387244985226634 0.35579799720949046 0.51548638634348 0.37048182447391037
Ni 0.7519754955001294 3.9007245787568663 4.162875176692433 -0.979432695826139 -0.6297035305185478 0.3718853896896563
Ni 9.236177907991658 5.211417131006778 13.139500366342595 -0.6155331525554367 -1.037588992451897 0.6552944916137747
Ni -0.10594309192127577 0.8273056354689379 4.021712871004435 0.6177188473528458 -0.4854091073421253 0.842625067945065
Ni 4.247598222766934 5.974323432701574 1.115613552209231 0.23951959963001979 -1.5255478627990693 0.23311343899335984
Ni 8.782051074584277 8.697280608374024 2.155488779359533 0.11199545393340067 0.9574821596969768 -0.0083807678645275
Ni 3.234034662314206 3.2510408247249285 13.469142834748753 0.17161445114761414 1.9123554210161968 -0.6428624364980089
Ni 7.926061835823466 2.650543838955824 4.025006245922903 -1.157133205266833 1.3559913226217488 0.8104225150705914
P 7.185470892130712 5.870798767703769 12.682086666662832 2.54766447064698 0.7899740174082525 -1.0384541686656696
Ni 4.12185118042543 8.166891038994665 0.6353554345814603 -1.8928803430107206 0.14981278189149036 0.7343245463647482
P 5.682643107483223 0.0045309474809978574 -0.36285701917903007 1.1488413975716858 3.150715945795638 0.6097283729482015
Ni 8.834640934942422 4.198523031294111 1.5220059752370774 0.6047196068797005 -1.0502478188664879 2.6956468841979513
P 2.9115312488555345 0.761848181802866 3.8353424394240516 1.121704689255894 0.4394179853239917 -0.4688997968331925
P 1.476179527966718 3.393728943016316 6.363028145093052 0.2752638471091646 0.07260306817870722 -0.6373407353488314
P 1.5113262168199335 5.106488458068012 1.2424996076154227 0.6054713974440605 0.9516490979549675 -0.30806546702021786
Ni 3.05463778010946 8.318458810157699 10.03495707748132 -0.11225796356616796 -1.7278720843257145 -1.355424137264369
Ni 0.49266917590323955 5.85813480203761 5.757279611740801 1.3691432866226743 -0.7214888280526607 0.4840196831937664
Ni 1.8640018539105323 4.593560656325252 8.225223384812002 -3.062372069842907 -0.6829801304545012 -0.9218739235750639
Ni 5.559183389336927 0.43910766766542275 9.790831709971902 -1.1416567068977885 -0.27592333507003447 0.6640442127819467
Ni 6.410756046826502 4.072617921833426 2.8052757419222303 0.597490693231429 0.24023925140486366 0.06568988599864171
Ni 7.593646684185554 1.849831601579236 0.026383261804497064 0.7617839281272817 0.32013448236960995 -0.2524471063249652
Ni 4.717364402907412 2.6104412810129882 8.705963142249985 2.2315298534653825 -1.7002036718761686 1.3180729503094204
Ni 1.440744599072643 0.22104477868922276 8.813335346889975 -0.5443377633575335 0.5373425629866229 -0.5733822302189996
Ni 2.8469003932421217 3.069802925485014 4.336385453417557 0.9470666207906077 -1.5722807480792342 2.1252381347849783
Ni 1.6269476654680115 7.6822014631903235 0.6444396449014579 -0.6336738280202054 -0.2401389783815735 2.321056951092938
Ni 7.085433001820726 9.09224384887849 5.6219825259810055 -1.0149211185407359 0.7710776947243817 -0.8690922609976581
Ni 0.5215843010343849 2.634941684486064 13.578529930255012 1.0960188544540157 1.1765630318566707 -1.1876781679332253
Ni 6.623588773770974 4.182390887071802 8.12099485623055 -0.6263510691065471 0.09814414987260517 -0.5220375571984364
Ni 7.211970379758137 0.5342129340503736 11.654183629080626 -2.0179789099849827 1.1506586532860827 0.4751653181269301
Ni 6.935557478639514 0.4314088691547184 8.016371159851145 1.9689664846420216 1.818404740399649 0.5315478106817167
Ni 5.251287237303759 8.430454013130445 3.8326748243362236 0.10758215535705343 0.790207216464981 -0.06445318537806319
Ni 2.483792326285568 6.058006025209229 12.803965713617314 0.7985401618107086 -0.7871391190626186 0.2617897238821298
Ni 8.847184025752737 5.3067409019388325 8.09519272354069 1.2459931016240346 1.4114680155328143 1.0385297590986113
Ni 9.242389015968893 0.443172782048128 10.79033287565701 1.1601352253179504 0.05314650211599234 -0.6579836084101636
Ni 7.046855326674697 2.3912672731696034 9.628847315654834 0.2728421250415495 -0.16745209223980836 0.22547597705276007
Ni 3.8674003108071506 4.951498998677998 3.3119803482021704 -1.4590059132127775 -0.5346223358419825 -1.1536689008673164
Ni 5.475463604565935 5.661034402484579 4.448425287106307 2.5770933174310584 0.951587905699729 1.4612168048211673
Ni 4.782013854652493 3.5100105543386206 6.123978591722516 0.6281449277821763 1.1559528118054865 -0.6517119164688389
Ni 5.35649485221755 2.0401909034024848 0.2895640854344914 -0.9000509141627016 0.5959511166584511 0.2059078251128454
Ni 2.215924347668562 3.1257586856751334 2.158877924356093 -0.2778773734726117 0.593169697258572 -0.9817472028919286
P 1.8409426506417559 7.59728222792672 5.782591736361199 -0.4310999523765995 -3.7709251636705057 0.7322121280074358
Ni 2.001650420519792 0.24241080416959415 5.733995395278837 0.23360580524874605 3.3751202870507746 -0.03621347380607957
P 8.476470140943821 2.862483951580214 11.280108493472651 0.40191536039284326 -0.6218531812361936 0.3288831750965175
Ni 3.005497502175798 5.322250075750251 5.596111587603972 -0.4394418965833916 -0.8914397754549228 0.5691774481090327
P 3.447546148064573 0.9944746312951482 9.397895447819288 -0.5275877975927042 0.7334596272612917 -0.2048477592794472
P 0.5275164670365943 0.5498085798740504 0.15871333475660357 -1.0978834184665802 -1.5066268575248503 -0.11483832269883448
P -0.18830721869364436 7.229999329410618 9.698360585637776 2.0573664106436698 -1.0669815866814012 -0.6862420890352245
Ni 0.4302735753163645 6.935176257940313 11.993392877423574 -1.454256057232618 1.1147837937663447 -2.267372831305921
