# total energy = -340875.1266600484 ev
CRYSTAL
PRIMVEC
9.18263329985620 0.00000000000000 0.00000000000000

0.00000000000000 9.18263329985620 0.00000000000000

0.00000000000000 0.00000000000000 13.43971202913706

PRIMCOORD
 96 1
Ni 7.409172912785725 8.974876157728337 6.0776929302862985 -0.9831777646908679 -0.1368539077379772 0.6930578264054774
Ni 4.637284879304009 5.1561679354950885 9.854278577345504 -1.0874380547635403 0.5829914711739894 -0.3749447453412704
Ni 0.24542148367285632 5.595832414770732 3.841620728680379 -0.9651121654384089 -0.06467815690467571 -0.4568294959322197
Ni 7.398732258797914 5.484309334135755 0.44876263228454794 0.06595033874887997 -0.12053871551772143 0.16119994068250948
Ni 3.7339525174773134 8.974710870330114 8.237347258113356 1.4065857477398487 1.107152245363016 0.07003196501742133
Ni 7.046321160518033 6.681467594205186 6.8222529721690615 -1.26510231164966 -0.8027220611025401 -0.41185524521437455
Ni 6.978654336211805 2.1074786057877044 6.056565527739987 0.08037242771148094 1.3547512795670602 1.004767832156818
Ni 7.108496770149934 4.670975960641987 2.896056518344146 1.6640750444744115 -0.36294360711533624 0.28832865071292285
Ni 3.8857322622130512 3.5894178703637247 6.452849411088438 1.1021527352658955 0.4163053105659282 0.2517899323569405
Ni 1.9761485852655603 0.882906512459513 9.528742291753511 1.9832782732790035 -0.8856758763879521 0.6374731471616377
Ni 3.2828923903574534 3.884033475064639 1.4099336460664136 0.825281948680927 -0.7921401718216358 0.41577746308691615
Ni 6.039693357434618 9.09593999429413 2.5451458623348096 0.3537179747520101 1.0920598698062676 -0.9598151787055277
Ni 8.403541900500866 3.693971332373593 7.519585813062632 -0.4735974594191779 0.10590116811020471 1.0278409119261978
Ni 3.959891208216186 0.6247349425403277 3.7919068706112395 1.516869618298781 -0.08991456287396127 -0.6080232173316368
Ni 2.7220263350174974 4.605724168876475 4.520554327361656 0.04882087815744495 -1.4358996662126173 -0.2594595330870564
Ni 9.053350941351765 4.661334195745591 12.261748301329693 -1.1734005749682888 -0.9896546306644635 -2.2908495742716224
Ni 3.203049394382062 8.491575805321576 5.776092096483776 -0.7830006714142127 -0.17625323547120614 0.4435705740397845
Ni 2.2245755447961217 5.740899654611932 2.4611872101436427 -0.4035914625436856 1.1442116121091583 -1.0734988189746284
Ni 7.613624241755487 3.237869939607902 0.15928654740507442 0.6279783202973249 -1.408410202543097 0.39463219646786873
Ni 2.049986139105482 6.356448290864303 6.36460430570333 0.44547807547514245 -1.350365491794539 0.40891236053596675
Ni 1.5021777882252165 8.394643928896478 7.970475143204327 -0.6472145428191176 -1.0939992529208256 -0.493604241558408
Ni 3.020103792447879 3.262626318808553 9.877583182231755 1.1117966861135626 0.637080025488277 -2.3067438769043758
Ni 5.710890809201055 2.8181501397179454 8.094778612775308 -0.3274790956601392 -0.029725037868258482 0.8008976062992917
Ni 3.0226841123868198 7.213922582317095 9.829052965586563 -1.454962082160707 -1.5639233772534744 0.3132932910780604
P 0.1939362956527502 4.56423703192227 1.6471036155146022 -0.4922682963558038 -0.22282748368631947 0.11759505950836521
P 2.627867613829267 5.437174877742232 11.578499783291448 1.2313738090489632 1.11365507947854 -1.635873128118899
P 9.208436434051979 7.939111859391337 2.5154033132877376 0.11255544020192874 0.7719649824253415 1.4605385478072201
P 0.6816167641124451 8.247180021781032 10.097565098791302 -0.46773534421144614 -0.22222944509100437 -1.3395835706876864
P 6.651550575126654 1.2824281922865064 0.5578881273819546 -0.9306915218666938 -0.08033848914975196 0.7089621563405596
P 0.8550932346550436 4.548185789028079 5.627771449687535 -1.1818355931095195 -0.728673518726558 0.4861932938063175
P 3.1636558978053593 2.0662393999308346 7.869246712688731 0.05595311832685203 -0.5598898521595196 -0.0105957732379753
P 7.179239776589774 7.2077151222504625 12.699949987131056 -1.0421110486919665 0.5449111193625004 1.478087612434577
Ni 8.154196677646839 0.815445379137741 10.238896843432638 2.181973125583178 -2.1047711251798784 1.8362422828017022
Ni 5.95542433224012 0.722765980163615 9.41012379041811 -1.4832228767786133 -0.37377797872667884 0.9496276966495646
Ni 5.36376890766434 7.307511980244776 0.7063942633695351 -1.136014678120663 -0.9704626311170448 -1.2030055423189152
Ni 7.538684771927406 2.50669358566466 3.5521694369106394 -0.6612075146641 -0.9923979977375554 0.36939167673352513
Ni 8.103379985326216 0.09572986973468084 12.71566055433224 0.011333165624632094 0.028004198522409835 -0.06202452133191254
Ni 2.5782813943620897 1.912880242278735 5.225965130711758 -1.4151837738215047 0.044659547690903724 1.5472382032883094
Ni 1.6438382711363562 7.575488765931934 4.121005099634958 -0.6645242377421589 0.5254319275919661 -0.18650473799588524
Ni 1.5893393428886338 5.177609384098026 -0.05981842768056243 1.7456180954552258 1.6008266780377267 4.010147029554449
Ni 1.1920894465238958 7.273875994706207 12.060327241327368 0.043041809581822646 -1.4663335572224423 -1.791784052488327
Ni 1.2686726077009818 2.4752430668359406 0.7818764268217849 0.008942039684636213 2.059001375143932 0.12106244923167539
Ni 6.931180122388599 6.873522368308152 2.173550406701072 1.6946624303429656 1.5876652009551044 2.7801850132513475
Ni 6.6714126108132294 4.5976985474293794 11.619491058050983 -0.6721578430280166 0.3408843133224516 -0.12417399827746357
Ni 1.7545991932128562 3.9802399234641985 7.567619249249828 -0.754122812037598 -0.4959781411072232 -0.320466411787732
Ni 0.03522182629819525 7.340404172491337 0.5785316051567995 -0.879015176538325 -0.8047635170126011 -0.535799129758903
Ni 0.8235738460770642 1.659568121867333 7.865309199557707 -1.3278444278738875 0.3884841745886019 -1.335431496192526
Ni 3.966695539443071 7.689087121677944 2.5650492198709407 -1.059859373814323 -0.26317554848606284 -0.09195961832844808
Ni 7.457905147362079 7.498143446196371 10.699180007373394 0.5893328400109851 0.3475005330873886 -1.2952181571984338
Ni 1.1772503112166812 0.41552792781833364 11.668317873749654 -0.8107253910229909 1.3421875839694368 1.1025201459076432
Ni 8.68035237935977 0.10434777102541168 4.103654514138063 0.30235684667121476 0.7725743338745663 -0.17866621578807293
Ni 4.21245953533558 1.2652842160373914 1.378147961124629 -1.4876613721659413 -1.4401304164645135 0.22247318567069427
Ni 5.5079270668153075 -0.09660772947191458 12.64994044827176 0.4582034934616108 0.02104370804417666 -0.15938602740222227
Ni 6.703460000802202 5.180621287798995 8.833223939187109 0.672090737235507 -0.8629686645984235 -0.5689249657785944
Ni 5.111999469636361 6.701898953152309 11.585596122255197 0.376997514105241 1.4331241603500093 -0.24481427237005582
Ni 5.4107013461267 7.960158454765184 4.694531251415544 1.0526320028279483 -0.8619633632623606 -0.8106598278923781
P 2.8156524634781173 2.5753429517269972 3.2245900154239338 1.0910345138655468 0.5772828508249864 -1.1644094272132721
P 7.664789874139028 1.1657352891404145 8.24016999956969 0.25227175708936556 1.7142647779549252 -2.6017211432820675
P 1.064129452398873 0.07892289612527792 5.783686134168842 0.09349508113636801 1.069074721765004 -0.09346139968495516
P 6.100941521109817 4.40107082197555 6.675101274583594 -0.6655277393060086 0.030492255051586196 1.0047896865336887
P 4.46027125843942 8.618222682894043 10.49387469351281 1.4339579691052142 0.3287733889915306 -0.692825141569381
P 2.815762655076933 1.3642913675735233 13.047729365207372 0.7993857976404556 0.42692190973950994 1.564098726489074
P 5.346018877621738 5.142292976677513 1.9219462560713174 -1.6423587358432423 0.4846565454468169 -1.5531214015419637
P 7.363241381345943 6.55970587751356 4.515662738637551 -0.08900953456118864 0.10970511523732719 -0.30218329720782794
Ni 8.607827942072404 1.231299290435905 1.6092573926379403 -2.023761063884398 0.16786346874561411 1.0569856518109537
Ni 9.220465683589387 2.4844716132367766 5.718355371757512 1.3869227220932823 -1.0067648079821887 -1.3274783027837203
Ni 0.07775578344115232 7.408061814164331 6.3249968537722605 -1.3433312106555766 0.7110074689053626 -2.086256354205142
Ni 5.011431270450337 2.870032017493789 4.258587575126584 -0.6531892723453138 0.2504388176456848 -0.05740990537803661
Ni 4.945435685392817 2.5973353583240146 13.047743139157225 -1.850178690377136 1.2862653188805202 0.4729755095644628
Ni 2.3017004813340525 3.373846372546786 12.11081978669481 0.14732318270041725 -0.962325089611575 0.6895786096076254
Ni 0.5694178416713969 3.0149064220370603 3.318439281872155 1.1383075879198978 0.5544015753514386 -0.5137719747555345
Ni 4.4280677636854575 5.0526888415736755 13.04680191925067 0.002599642406376168 -0.41132276974967225 0.542441317665769
Ni 1.3383228807858976 0.22577615813061921 1.1046983260296122 0.9842671411003049 -2.9831432688175656 -3.4278451282483156
Ni 6.483444108499687 1.8842304265865877 11.715894014801764 2.2086892014217834 -0.6114127026291599 -1.3252882371109371
Ni 4.468067314055648 6.192694392390566 6.409290672076493 -0.022768918265399497 0.597132795671378 3.093261303222595
Ni 0.8453982104858868 2.6523576966661127 10.2926694253915 -1.5929819851823277 0.4326053332775324 0.8176411443062176
Ni 4.723114952148401 1.177828817110465 6.094196876998957 0.1504614712190828 -0.20695966341612743 1.588066293048265
Ni 3.190533465283217 8.524798572364586 12.2308505770217 0.4424017505426639 -0.634890731146442 1.2654175288972338
Ni 7.71466075523648 2.926468481354025 9.924904964343265 -1.153902099924045 2.491035409299026 -1.261751650009872
Ni 8.202414684762052 8.24341514215482 8.490860478192596 -0.00728033571149714 0.13505387841476096 -0.20808194994602874
Ni 1.8170410992085617 0.6477906980659185 3.0923160202052657 -1.053407190431076 0.6975526289520374 1.982186839987038
Ni 3.7141639428566156 1.4927288586267489 11.145257637700126 1.3729361780062033 -0.6474523698615365 -0.38364355866684896
Ni 5.6578611022708785 2.9461560470091417 1.898064063554607 0.9104047465931998 0.36728979989917393 0.10125209937396756
Ni 1.2180395680450522 4.9418544584312984 9.715111179357576 0.31062911398233595 0.6473078738638723 1.3444938635051102
Ni 9.008640700132192 6.077902294324049 8.129009632947483 0.36389003018900556 -1.2363314101645546 0.7951355070045338
Ni 7.633523007975001 4.479545605598976 5.261996865261251 1.217751076059206 -0.0596832747932456 -0.16952902937349512
Ni 5.297057077214516 5.175552474253461 4.668471856558894 1.2540568524687756 -0.26563146622572315 -2.2303659150642683
Ni 5.742460702261824 7.300303613155566 8.910676695731517 -1.085918275684904 1.3016250891660421 -0.12349111327782603
P 9.234147807109034 2.186366607906691 12.367840772669691 -0.9114105621498948 0.8555492322059006 -0.45354568297462533
P 6.183677046554126 1.0359112204687548 4.397137900161144 0.43175198413830157 -1.1386189485127294 -0.3606625243906434
P 8.263791405302536 5.439378709718551 10.310435984173926 0.7785997141330397 -0.5300529713037452 -0.4831887026520388
P 5.249849159755116 8.243800812750676 6.812012499585766 0.880433139931774 0.24583397188382178 1.7124480364611605
P 3.0556405830660234 5.534731173227288 8.187177023172453 0.7191300980124969 0.6483406860037608 0.7992317885610946
P 2.3483207102664343 7.364499402099092 0.6513664154474962 0.6960734733033496 -0.5147392237648103 0.5421937204313371
P 3.584890832179036 6.581551361978822 4.490449982565138 -0.6653914708384605 0.8059583086516507 -1.3940675606681798
P 5.216470287947118 3.2848207433367325 10.631967723412282 -0.045525752345940945 -1.3350967385609265 -0.1294406459930416
