# total energy = -340870.88360488095 ev
CRYSTAL
PRIMVEC
9.21401732638033 0.00000000000000 0.00000000000000
0.00000000000000 9.21401732638033 0.00000000000000
0.00000000000000 0.00000000000000 13.48564572430420
PRIMCOORD
 96 1
Ni 1.6892334056766578 4.272816171744511 1.5518468815992557 -2.1466777927159932 -0.5599039932269066 -0.8792607168902277
Ni 8.09212763351319 5.513354584396256 12.09256455875778 0.7289020897975964 -0.004885610227075457 0.4694978354285075
Ni 5.341319670237928 3.9458567732704983 9.633943214644116 -0.6673984739661603 2.291582595782905 -0.4562990773500464
Ni 5.494723841724298 3.752850756084782 4.246225439658949 -0.9835814278871898 -1.4998419733925332 0.1854259031094097
Ni 2.844809366212612 3.9117372677738302 12.571210635921895 0.30144333371800985 -0.6497702193614358 0.37762717726944
Ni 8.366189359544219 6.366028945229951 4.372032708387266 -0.8811857018270823 0.41335676946056554 -0.633762788189586
Ni 5.0341427665792935 5.335551695503682 11.957533137463242 -1.0848353270333704 -0.9551573682185421 0.7605264015710966
Ni 8.881796545093247 2.8987390085761007 7.51269126557755 0.9189174120499013 -0.0012161317952882281 -0.8771665533653602
Ni 0.16540082181223068 7.571922653407629 11.65262288202286 0.4364020813158032 -0.6899719883913021 -0.008971607370991
Ni 3.1465960698400415 2.8542905898572437 2.5139533598869805 1.6529624795010176 0.23792114479464835 1.4263271920328338
Ni 6.175777919171295 8.626015429082578 10.073169883648402 -1.2985557062120991 -0.42895102435439675 -2.361193414102508
Ni 0.6031882613380999 1.5114305167840825 5.4031724459464305 -1.6984553217264944 1.1220589872715192 0.5795978721114083
Ni 0.614457925711034 5.9063969138511245 9.764902040359521 -0.6338090680464891 0.2989568198507303 1.0892108303932466
Ni 7.270154377814493 7.44711879114666 8.01090515095751 0.1359823037663013 1.6471656703135826 0.3754124290063083
Ni 6.085885967881666 5.4289634013436014 2.5808554169922355 0.968041680380378 -1.3481111485427233 -1.4096705573127595
Ni 0.31308585285523527 8.223372093760162 8.123887429218419 1.0533246580195987 1.1687867303453612 0.548019840194811
Ni 1.130845538512444 3.365898891964319 3.889395118994916 -0.93669016265229 -0.4867913324016326 -0.7228036902093423
Ni 8.147983005460476 2.8232393520706456 2.9375244923561907 -0.22937505499685013 -0.2821292067704302 -0.5443688737057851
Ni 2.290512522661825 6.5392893236688785 8.016353399296744 0.6029686856268648 1.4733087029886949 0.0395232549056029
Ni 3.172579598195592 0.4407276323975913 8.783322658232569 -1.0444561518853752 0.5660666703941928 -0.9492183770262879
Ni 0.4630495103387817 6.331172318361494 0.779389754050464 -0.7518080478614924 -0.06323036871455562 -0.46717561505323413
Ni 6.798516482092659 2.5120819930043528 13.282713354434053 -0.6509171884816854 1.151934691785029 0.07963040733913383
Ni 5.09704686164431 1.6602000376453314 9.895753062074302 -1.559753819256817 0.34156925520461817 -2.10546635147469
Ni 9.09124036886985 6.003752219030113 7.46260571116794 0.6447154305463477 -2.310649125496053 0.11624214502489659
P 8.27214188652113 8.677171652284711 9.947147006918838 1.0788305156001872 -0.3883083111323699 0.21171440449229342
P 8.347650757043732 4.226110318824552 9.216117021866285 1.7129563435561466 0.41294539295475974 1.515843233916796
P 5.100363907817359 7.421347185185498 11.736921003502326 0.6299210458459925 1.4755676742262007 -0.5023945861565283
P 0.41592441963861715 1.5619325447687542 12.998112635589877 0.13620753240322994 0.2544091151473425 -0.7087721518169406
P 1.05447055037799 4.156784053807828 5.948153918161238 -0.7318948538773331 0.1591399728296872 0.8984509166654332
P 6.17150261521492 5.032226251012643 5.687382490463559 0.14792353528857752 0.12133858571119747 0.6557693743676642
P 2.6099901392121825 8.037939998669575 2.7085110175603124 -1.6916197868618994 -0.5563859527713192 -0.771374142918878
P 3.7438394473146657 2.282800390309486 4.718789344104094 -0.031432507477668445 -0.1959175466693529 0.14623946271793525
Ni 5.84101424817347 0.9380698717554115 11.753265748520025 -1.8220855316853457 0.5483324863392234 3.6689184455187003
Ni 4.877135914388307 8.190109491858198 7.78472406503273 -0.7337956704444717 -1.0599933282890261 0.03854649281463039
Ni 1.7018197530999493 0.11139931011499254 11.62391200459169 -0.8909101282036979 0.2929288684890955 0.0699535463710021
Ni 4.637414830265483 7.2352516808603005 2.2741788344647027 -2.061412041467953 -1.41357889122823 -0.31109911164021903
Ni 1.7553808347775437 0.8235304245965992 3.582853061117734 1.602508436615524 1.229826262056185 0.055235266324221
Ni 8.897801292878208 3.65505317808272 0.22311281821471 -0.021333214260137453 0.17183119514411052 0.08136101687699537
Ni 7.1125301864746335 4.671193417127699 7.550100175195825 -0.37256853179960997 -0.700813044870864 -0.6273993078654033
Ni 3.614456218531459 0.6292620870616946 2.1481955780088713 0.36232062881935667 -0.223600357296602 -1.7859525334082145
Ni 1.4301813135786763 6.352511982074777 5.607452734513655 -0.2995186058914713 -0.24299958775882025 0.7126835710562048
Ni 0.6948806315783222 3.3348384401605737 10.788179457086844 -2.353536411777882 0.913458188707543 0.4895573251825439
Ni 2.6252761936596505 4.621225802137574 10.369045795275802 1.1925462946588044 -0.25727152429680206 -0.9498570390515513
Ni 6.4498027891337335 6.205576050625852 10.469674840747247 1.7733541279179137 0.055841018229019955 -1.611695759541747
Ni 7.987511682822082 4.012105556560005 5.0343261255205265 0.5985106498555112 -0.6317670979157958 0.8269968744895049
Ni 4.138733794216152 6.481554292223531 9.760518932402523 0.2537478274142598 0.5590421594472437 -0.7120827042474123
Ni 7.986691635295967 1.2160659831083616 11.311988960700452 2.7628017847778934 1.4301213689679435 -0.4567374504390456
Ni 5.797791293735211 9.043797394578101 1.8134549420539143 2.725214313442423 -0.11365073014863654 -0.08755094773779115
Ni 1.3865068723001974 1.6079381323855146 1.4999406374013267 -1.0689695636457073 0.8871437191827302 -0.9980891345850615
Ni 2.894675627014115 3.0687376249448626 6.852056371530815 -1.1604334732846595 -2.17900632964537 -2.2001245996812235
Ni 7.887419814550328 0.31447256243591276 3.23880718924566 -1.23653427020398 -0.4603308242172588 1.3885733703228278
Ni 2.5369045551993357 2.0914068261245573 10.838102844794662 2.294389983324713 0.7472561668247518 -0.9214424924646002
Ni 0.8029463102894006 1.152470836757294 9.554066899993666 -1.1505761208746055 -0.5332316261420429 0.5967548435066691
Ni 3.9830629745115314 8.657591865846575 4.177745021416352 -0.6860777955432183 -1.763815335189543 1.7829955076624195
Ni 7.0863715917932835 2.4664081100048967 9.000993677920048 0.23125890228312432 -1.5531568827655897 -1.2223790617495205
Ni 0.3960967761392166 8.30915459340207 2.495775025456957 -0.03891287501511363 0.0350698471199396 -2.5421327421954736
P 1.2019961789243456 5.287638806337418 12.236160408990786 -1.6376104225249797 -0.6897197631711798 0.673060557347944
P 6.541970602658759 7.29377911778032 3.4817375155409085 -0.4484438429716857 1.5480177617668114 0.3147418505991289
P 5.895966646440314 0.921733419353145 7.8975718186432875 -0.16368362633631164 0.04965417269201772 0.5590303323727017
P 3.537067688510796 3.078919113892694 8.890344388800852 -0.8906761578160208 -0.1417397750753688 0.496859258160596
P 3.315415292013942 7.302689072361817 6.1359143953849635 0.928144072854492 0.5462599200809107 -0.29676675417794696
P 7.587798404952527 1.6399568419725852 4.863611580019414 -0.43220244141215886 2.1789417949560215 -1.791675809045237
P 1.0260453074783895 1.2015907621698616 7.51227294919906 -0.023923086474500737 -0.2876663345385755 -0.41086871293138916
P 5.758668576927527 6.088042047894148 8.261846143760673 -2.3865226368959154 0.1404079436378227 1.4044648447421038
Ni 3.1222987066224572 1.5120939260186925 13.067658194214708 0.6057125669205891 -0.6112517515712633 0.9010014510014289
Ni 8.130596155103412 1.1221751483767797 1.1721639556063432 0.4142579411185962 -0.11133982262727277 -1.1121455848125492
Ni 6.234885839171599 6.949534223137864 0.41366145702722595 -0.20522648277510458 0.7559130711688015 -0.7198986007474053
Ni 6.3420448585953775 8.033637052661758 5.684550101592462 0.15561036240987394 -0.8355673897673351 -1.228656667228116
Ni 2.5256634542795586 6.7663134921626416 11.553759242236847 0.5674470956814872 0.6266284911376498 0.43824607650307756
Ni 0.7163557413436705 8.440961108695031 4.698682515885128 -0.7728545841191464 -0.8896621147292096 1.7209529886083779
Ni 1.6405096830014265 4.342796631978699 8.190803307349395 -1.0257822296249561 -0.4308832083801031 0.3713667981820249
Ni 1.5575927426923484 8.617059404415345 0.364643807204994 -0.3971372222779096 -0.07030553039378214 0.817660170469611
Ni 4.099454439116963 5.203606969953509 6.907725620331725 0.2591314603236763 1.3337803337423482 0.4300368012194078
Ni 4.777587673128247 6.156695689659116 4.6111604098058 -0.5517330273803401 1.3647778105651271 -0.03671535314316257
Ni 2.8846507763577893 4.577542146841949 4.717993253022562 1.333070709269833 -0.17974016557854208 0.025194496987756613
Ni 2.550301736131595 0.42332235400623125 6.3082745643485945 0.011642983555567045 -1.1172764782812112 -0.7593596349565052
Ni 3.8687815198328455 -0.06038406137521329 10.875606658789554 -0.28663840749469344 -1.87784324617194 1.141033728601809
Ni 4.7850602410347545 0.6831880438183243 6.061460529825734 0.6280037742186216 0.9744781800343412 0.8082656166285885
Ni 2.913168159428863 5.94118904259955 0.38375275736690057 0.26130018584022097 0.6367722644398711 0.46240570446841656
Ni 7.186878090836668 3.479314229031153 11.025351022664994 0.7476348903204091 1.0679670905231222 0.9191177009861655
Ni 7.3026061462074905 8.434843001309186 12.050422408530906 -0.358802331253453 -2.2322055393761686 1.891459551403794
Ni 5.106592583408974 3.0832220599005105 6.977891282310574 2.2554287715701675 -0.5520096780804945 0.4268265218122262
Ni 5.722153426972546 2.8092524740409557 2.1941145538644466 0.6688524328038675 -0.5358605791244577 -0.8573569748386008
Ni 1.1796614013591489 6.318300336406634 3.2668703212713694 1.930397109009256 -0.6962647633785493 -0.44909304651991044
Ni 7.668918611917871 0.6336571732409846 6.604581691978489 0.8251346244697854 -0.9720682850412676 2.010360474207776
Ni 3.7629216768268448 8.056662881513006 13.224887104218947 0.7636099255924268 1.268703655847673 0.9275295791989446
Ni 5.485463754491203 1.0228664715625508 3.9115520660291687 1.9917091776551763 1.9902246226898501 -0.4318021206499466
Ni 4.736834075285481 4.33748935810182 0.5782311744927648 0.32392685953250666 -0.4869132026914776 1.0858010333807495
P 8.941761368688255 4.864844415513731 2.695052102713166 -0.3368199134450909 -1.0435981747604544 -0.5685498418273627
P 5.029139555268278 3.117378421465768 11.802717378549898 -0.48767219234468917 -0.26269578063616694 0.278487753363101
P 8.291325470221931 8.238261945470294 0.531958380378731 0.19624304832957173 -0.8146645781763968 0.052063810574774855
P 6.874873042192819 4.969902639027911 0.34256517931649383 0.14054601187758375 -1.9358784438388015 0.3866959723399276
P 2.019086005534941 7.876519632265003 9.8008542138668 0.31159122078528917 0.6583047391950081 -0.604490778698346
P 3.2171754411888065 5.13000540098041 2.5968233087086072 1.9617843650712858 1.0950788591382494 0.1968133190107449
P 8.562816485468845 7.522222244914778 6.1460562640590615 -0.3436104540043631 1.5827374246361838 0.3848501773804404
P 5.1132451037893665 1.4061511568583656 0.6744725049986381 -0.5588814654996633 0.5039824994689384 -1.2191402430972489
