# total energy = -340868.4053944911 ev
CRYSTAL
PRIMVEC
9.24760997832819 0.00000000000000 0.00000000000000

0.00000000000000 9.24760997832819 0.00000000000000

0.00000000000000 0.00000000000000 13.53481196602389

PRIMCOORD
 96 1
Ni 6.69596309904108 3.833467195006171 2.3859305030064615 1.0309241788372114 -2.344582030798072 0.20012901364753918
Ni 5.999405382631769 8.627122967903492 9.128147372212888 -0.03683799476395592 0.899122231700845 -0.3756492276074627
Ni 1.567867516073227 4.02907263846288 10.585129572909018 -1.0239657452415076 1.19187780783687 -0.617231366193466
Ni 7.99805430814826 3.827918629098738 7.600175894536075 1.164771438538381 -0.4315403823481278 -2.246186427036293
Ni 0.3439713215385178 8.013636530738301 9.45056066567906 -0.42153467728566757 0.8341951920101569 -1.2491838406471905
Ni 0.8300580616641206 0.8760334787731116 3.8265481333196014 0.608947528918119 -0.31580165932221094 -0.1020257443151985
Ni 1.6339509360307558 2.8745270444441933 5.038401165552227 -0.30236713108385993 0.6659851385584014 -0.06260070555035671
Ni 7.863742022748995 9.129601096480636 3.759564920924084 -1.2800298794937697 -0.2710441526008622 -0.05428678636802264
Ni 4.6438259981769345 0.22475760873436318 13.21440260615679 -0.5333002745964494 -1.06816712234907 -0.9909226987436096
Ni 3.2390215865133216 5.782567426969282 10.855744229346346 -0.012906423649022933 -0.6745543682846512 0.13138105754886403
Ni 8.65349715118349 2.125738827626246 5.840596178751188 -0.03972174406965417 -0.34953504701891414 -0.8125593589079361
Ni 1.0523502576136143 1.000119757204977 9.279277360877584 -0.5405569561588626 -0.09846322377492074 0.07813659640242672
Ni 2.72294022385312 7.812806187718758 11.896490586125548 0.5159268163150083 0.07390173238547272 1.1245670984053535
Ni 1.1894090831370585 6.395702454960336 1.5176585431768645 -0.9050961898960929 1.6385995259111266 0.6662458484189557
Ni 4.343324916240201 3.156089021416888 10.958893919087497 1.2089244789065117 -0.4741237642362931 0.14008758418392647
Ni 0.9377538764054285 -0.1655978742683265 11.540782198170842 -1.0359776821007192 2.305387619986797 -1.1201964801414834
Ni 2.6767021746245105 4.6470071759638625 3.598257012863188 0.4061898193984811 -0.4477293334031644 0.5206854140459162
Ni 1.4074122376401064 5.082023990716467 8.221058570055874 -0.4703077329243126 0.06461619331848871 -0.02645562308836734
Ni 5.5478908319143985 8.203684160677732 1.8454446979633998 0.5840955028714456 -0.2337965811033135 -0.05486759857215712
Ni 5.618468590256947 2.9821229849991675 5.02956322482267 -1.0691713952438684 -0.5047561444101695 1.493595478262189
Ni 7.745344873894218 6.442449122730459 3.686625323026937 -0.5493277603729573 1.4917082885418051 -1.3758021867000887
Ni 5.394768908088936 1.5079984899320233 1.8937098232701914 -0.1422128580570454 -0.22363686696149226 1.0973527427740908
Ni 0.2419951534867888 5.167416420031862 12.775440761044003 0.9914376907068152 -0.592135856677419 1.2877017942167306
Ni 5.919801957079796 4.872935532104694 6.519678686835038 -1.684182613857564 -1.4014471409617024 -0.3975120891188251
P 3.8255419933683874 0.5558368373869601 11.000472097714848 1.8014282604463103 -1.8264643774793319 0.013931779589743749
P 3.720535383570215 4.879390363777008 5.667309841657128 0.45807339564164984 -0.8745697391724615 -0.16299611335098382
P 6.413624322841345 7.585148528536776 13.032507669057347 -2.7481284990364347 1.2098503331548907 -0.22183323809385022
P 5.9068275604662475 7.590188475902695 4.020095983585637 -0.2787870297710747 0.12562872844611914 -0.22714590855601524
P 4.943365328689713 4.826114883455805 12.598839155820249 -0.316493543182913 1.3735020778120024 -1.153941952023045
P 2.3029415274899687 7.262832334973986 9.642687158311809 0.48933749586225406 -0.07246037195325586 -0.8064275349785853
P 0.37348229407818556 7.443308688723095 12.67008644111563 -0.14010198236162968 -0.8832922066471239 1.378844315960522
P 8.079257570203543 0.6731834577632635 10.010712437820033 0.44299361849039187 -1.128055056953954 1.6716747111985404
Ni 3.5487795259056223 6.405736111642943 7.796538717239149 -1.1742217853180035 -0.5745996475658685 0.08588024490358759
Ni 7.586896326797618 0.6488335762784931 1.0587570017147305 -2.4803367919345995 1.225392651764864 -1.0404879112662466
Ni 7.53086505874239 6.320806062819834 6.07882200646486 0.7963920051194542 0.6791075348729724 -0.02399147781859094
Ni 8.775667324855322 2.9224019206154956 3.0537244537516384 0.34060483440881983 -0.36519255105051296 1.1012947581409742
Ni 0.46142428942804703 1.86676876150665 1.1974489551369292 1.3830382994372115 -1.156951171163014 0.016495169441545783
Ni 0.1683388658265985 7.52798905208037 5.246905175221749 -0.4880149203960885 1.223367393804719 -0.7790406583252003
Ni 2.155173969765179 1.0318020685364202 7.231609629851875 -1.490851854078781 1.0338459804696971 0.5804291097634521
Ni 7.872444023613819 1.1973897704339165 8.032491482452743 0.65766042074279 0.018061485487401153 -0.7010418730522184
Ni 7.991488505157798 5.859387321957695 8.643858367441293 -0.4414969793402074 -0.09359972503503235 0.807262629285371
Ni 7.483147391938465 7.607435268264966 10.302306221953367 0.17610796814259347 -1.2497440840260348 0.8438540552561596
Ni 5.60869386665002 5.258459138962995 10.551278697068753 1.708416032483632 0.5369684674766558 -0.07558040563947628
Ni 3.8425113574352867 6.385983217012482 2.4985802623421227 -0.044596812773768355 1.3856088883778652 0.6216906875164003
Ni 7.725721445801596 8.91969884820244 12.174874159594268 0.926704512194488 -1.4350684285605737 1.0549228557446542
Ni 3.067635633242558 1.6681393496303893 0.9722668811106472 -0.6574169372734161 0.4557907702550602 -0.027018180460056693
Ni 6.084733078678245 0.9299951317448679 11.062069502136218 -0.4903867630623749 0.3485713975540642 0.34765171395327227
Ni 7.9708385923723 7.993319531907249 7.663044845311231 1.035589959743997 -0.2417109508543837 1.2618979457797492
Ni 7.126087928185297 5.659121083138741 12.92523077104205 0.5646134828874341 -1.6457060550489204 -2.2844362145461106
Ni 8.138155597310947 3.442450507899512 0.24567940124932441 -0.3047078634018946 -0.9525705813279723 0.24463120982497222
Ni 3.720331936153609 8.691717522675859 8.524955374327956 -2.420160636665335 -1.2935924486695527 1.5147849678556105
Ni 4.9110911703281435 7.72508336072224 11.130027412609474 1.2830285571107776 0.29129981752610473 0.006448583838821153
Ni 3.5181606897064372 1.4792291757019824 4.374288688286632 -0.7578750799911786 1.0997816639305575 0.10633568454446203
Ni 8.808514835027326 2.8709204766043617 9.714001951159062 1.6662216585037692 0.25403553385800764 0.4386106589313479
Ni 3.4426262124865805 9.025417523958733 2.793002890327263 -0.7496431789996895 -0.7916771161422882 -0.5244726490024902
Ni 6.667554441595022 3.140395827508698 9.218221866393174 -3.1504763189810063 0.4385037010398383 2.2233311197046746
P 2.2461889458667734 2.495393535989287 2.825283522015724 -1.0277267549458364 -0.16909451293923783 0.44316253996808835
P 6.167545424846685 1.6652171049191413 13.329258845201641 1.044511430603343 1.5089747889317366 -0.8666831373355333
P 0.05957217786515587 5.075976053877365 6.30833196189894 0.2547137908719549 -0.19004077617360174 -0.2557687144990305
P 2.060496940164678 2.8933181876507 8.803826296835545 0.13505310708381255 0.01133367984526435 -0.7454926471664258
P 4.566072094594105 4.241425503350192 2.4903915038237363 -0.7690246688500949 -0.08485128941844096 0.19679377862671912
P 8.133836963512994 5.228108483449335 1.4725607242422325 1.6284963760388536 0.12002346644419976 0.7528128349769229
P 6.239297629639641 2.372159887185197 7.331252625939529 -0.998425434878558 0.7033422390506209 -1.8483280103216426
P 5.427486951723099 5.526436377072323 8.405551160760979 1.1113778534085892 1.2790682869114487 1.1670620343447708
Ni 4.790742775795918 3.383829909087481 0.49445397751401193 0.23787177961395164 -0.8845415056731928 0.6119197241725655
Ni 2.3808803832697127 1.9296525084575586 11.074751674278641 -1.8570844163580338 -0.03064857812379237 0.6475896667703492
Ni 7.138488972988409 0.005630869635060061 6.091260966468341 2.1876413796125482 -0.47190721620094855 -0.19377993150105982
Ni 1.2303297567043778 4.120568490276453 1.542427341387646 0.1443119066779192 -0.8160951399753364 -0.5238013339670785
Ni 8.441717638106613 1.7167170441499664 11.954513789341547 1.301786554444571 1.9320163897802338 0.24668603547147192
Ni 0.31482470482677155 5.206783495145101 3.8117279137808473 1.7931287394416795 -0.1802016785959929 -0.15316961417886524
Ni 1.6389353977375996 8.928197401650658 13.900928515405461 -0.3226942726769862 -0.4561345267477241 1.1235191167568135
Ni 1.9374759863870397 6.116960998990587 5.756274622655926 -0.17855205880771186 -1.4448599607296988 -0.407983163853478
Ni 5.866239800853375 5.162219263298566 4.000268183315425 -2.8816145187434437 1.9860715197534244 1.0599264796068326
Ni 6.587664340137831 3.2620388874193234 11.769182440423435 0.12708140173224564 1.0189850041974644 0.6732680453730598
Ni 5.163014557745299 0.44701651328841235 7.264796527305218 1.1164771223083674 1.7846045040207523 -2.2301779674231788
Ni 7.852173262831997 7.403645690094794 1.0411144116510622 1.4995753499947078 -0.17850063674448613 0.5974228161079711
Ni 5.605226012957874 7.36984567610868 7.105438015399799 1.1142901419593778 0.01768636153616954 0.6174923331643365
Ni 7.734312475348272 4.222782321901216 4.901970252737308 0.7500291015841987 -1.0027261191364407 0.33007076764671545
Ni 5.489547661397738 0.4109684053488038 4.877256015424615 -1.6668610918599809 -0.5196358897354793 -2.6155151117423663
Ni 2.8604706774786957 3.95752388108653 12.429883474416942 -1.2362812736529096 -0.6268380360452946 2.0222770231397043
Ni 0.33242937969007236 6.270591541357565 10.802769296345128 0.7359170876628488 -0.29459365778602814 -0.8085669499190913
Ni 3.141782968985556 5.8472544578401076 0.24661618412669603 0.6596039176224059 -0.2786906134025265 -0.8314909057051165
Ni 4.025327356475363 7.155948460377132 5.511090893294333 0.3613724059734744 0.7284053526668358 -2.0391599149379718
Ni 3.864280231012116 4.204305597429465 9.000839226510774 -0.7038078658331298 -0.467911207667678 -0.5826281742972999
Ni 4.631360220104901 1.5697725237014457 9.14927538642741 -0.7319894704736684 0.9319783589989175 0.4528818241383813
Ni 3.537811860628596 2.9127566635464075 6.689878171762595 0.8350829939317489 0.47589422587315455 0.35250030029482515
Ni 1.4073937424204148 7.780522781747343 7.320397781502621 0.7450347336934008 0.6984666561258746 0.8970175266530164
Ni 5.880009491913654 5.58212548356326 1.2434752341000714 -1.7263209377885107 1.781940584035344 0.11899296829715635
P 1.881925594043788 7.163827423965688 3.703300613100743 0.14044702440587425 -0.40475694360669645 -0.16663448143451948
P 3.4312146619369597 9.305129978962283 6.040126307826422 1.1453747791793243 -1.250846315951278 -1.5057588530976
P -0.13465444696355647 9.15123125590978 2.0208422643852377 3.539804843847775 -1.852485741243758 0.8199926752575297
P 1.0672111666356894 2.6646617866053806 12.864283473592836 -0.0949061025512817 0.8557762606150422 -0.5197238214635952
P 3.583966681368594 7.90333104049853 0.7379148771613476 -0.7513089967378866 -0.1159760358477035 0.740524247417557
P 6.892964931584493 1.9480275092210082 3.7749270503997976 0.8938841232303574 -0.4056372893291208 -0.9063691430712456
P 0.18066685451193035 0.2051212339879573 6.5146433632740415 -0.2924529572939415 -0.2517865899228309 -0.26516378256068524
P 8.1252829244057 4.695446156335754 10.759701327771634 -0.3240518151461451 -0.30394861663836686 0.04832285547510387
