# total energy = -340894.35479396634 ev
CRYSTAL
PRIMVEC
9.04891184767182 0.00000000000000 0.00000000000000
0.00000000000000 9.04891184767182 0.00000000000000
0.00000000000000 0.00000000000000 13.24399716709851
PRIMCOORD
 96 1
Ni 6.372949463581035 1.9223598593064366 11.458639653116387 0.8253554822313398 -0.4259459189794858 2.1449952628072477
Ni 4.5575929856195305 0.29097318639958414 5.963269033389878 0.64010492835753 -0.6425541612289709 0.31194346191838535
Ni 2.7941682121433153 1.5389031753425617 4.938567553092672 -0.37351804019707285 0.3893328957421424 -0.10737672421446669
Ni 3.187280084935524 4.36755679013328 4.755918889152299 -0.2780879468215211 -0.3610170795165847 0.9269726782542101
Ni 4.864269653455561 4.534056766179516 2.607306374896034 1.1531230556661756 0.02832558641757057 -0.49927686646315306
Ni 7.241120153897773 6.182207452978937 2.597253938842242 0.19600702105936565 -0.837284629568758 0.19411057536760118
Ni 5.10000285323711 4.614492542650983 11.224141629787574 1.4459714486263227 0.30800530320624375 0.7490076022982197
Ni 5.583676234739685 8.027651562481406 12.283714901263549 0.4560064858102921 -0.9593855473672767 0.5989330821049105
Ni 1.9724455857964323 6.309797108536107 0.4636209930830927 0.3708019268174904 1.1100925589382624 -0.2702064871909153
Ni 2.753819114687328 1.7635333604171142 0.3585386957009119 0.08213697581107145 -1.0636136986504328 0.6926770460272909
Ni 0.6288134013826613 8.988872212237462 5.001714478790555 -0.0205809094751452 0.8409340533958872 -1.5952694956649236
Ni 8.362714666450973 2.208459301841972 1.426232460573839 2.1694227997219926 0.9338190117520822 0.09221364332078312
Ni 6.734118677925243 0.7773521925129097 4.751178164290853 -0.22206720848152722 0.1531279623076524 -0.054183428020938944
Ni 0.9930818679983817 7.507610604689168 2.4411864531429464 -1.3552482738081368 -0.2835070609545634 0.6785663176575216
Ni 7.641344471318913 3.8689255575217696 3.6743088029118995 0.53250194706487 -0.3015523484920484 0.31911169753205043
Ni 7.553090435102666 4.028810779084864 12.40509609847478 0.29966233055818714 -0.49018904522927187 0.020315314518584367
Ni 8.012105532109263 9.013485252174732 6.7163882402586665 -0.5811320493677476 -0.5563769539102547 0.9308761270736742
Ni 6.767545357898873 0.6504493493569303 0.4028041621586824 0.5025547658834765 -0.3540751009811128 -0.10471666088380031
Ni 1.86317997651609 6.477482492020497 9.339786294904863 0.32274106675452163 0.32819617633182185 -0.16723971911868618
Ni -0.06636381382203754 4.9124189128328455 1.2078433099274979 -0.27214535608484103 -0.9329484362216706 1.5649258503760595
Ni 6.084243934463907 2.206902889022409 6.907406242668885 0.8784503051737904 -0.3026350400332659 -0.12143165964563603
Ni 3.2550111893217237 4.21519121422749 0.38132385546636965 0.12583261692680908 -0.1717214090391236 0.6373106534418443
Ni 5.991574029317738 5.549760913532006 4.8390648146903885 -0.4167475403096693 1.1264599445526922 -0.929824031660076
Ni 5.416162780578385 2.52689955494214 9.612174826369463 -2.196515285063411 2.0295756136836465 -1.8412417928988227
P 0.40343487130707495 5.6109315569055145 12.525072904583705 -0.8113568539594027 -0.19269826840110688 -1.463188069614925
P 3.984272035492496 6.042510353511449 12.580882972641463 0.6364377639185878 0.9655464247623501 0.11114467589733115
P 2.5849483237647815 8.512103150393761 1.4697921119157613 0.5610345072869241 0.7119371798084836 -0.4586323534689134
P 6.365076910365806 7.733724811289349 5.801639181642994 -0.12160649466060346 0.04746307857796987 -0.5416406761413446
P 4.719070815649155 1.0340734381880257 12.780377995571254 -0.012601233703778298 0.6955515393616086 -1.4479961923658353
P 4.015146922354983 6.11035909375029 8.29234489940091 -0.1601329328705758 -0.702320739764642 -0.3533989008496946
P 4.704357285157243 1.2494284887273939 3.800418056508136 -0.0779879866397044 -0.7367318702546601 0.28032814900594943
P 0.3026200407022532 5.71883982942461 3.4599681353787695 -0.626822609426327 -1.271313068446062 0.2242652445741105
Ni 1.4738867444788548 0.9673467630051482 2.82270666999411 -0.8022723751596312 0.5574218502350013 -0.7818485600876406
Ni 1.8070314791591935 6.55546601340998 4.811345283352213 0.03147055980445548 -0.5485834260077649 -0.11255595442256099
Ni 6.047215787617103 5.426306610640767 8.861664420755789 -0.23563826229774257 0.8333323297892293 1.2198316127373185
Ni 8.531187305256887 2.1813306644405253 10.381664419470058 1.0356712066038938 1.1813661096722687 -0.5955037447083874
Ni 2.192750391058479 5.173814826313694 7.032125583421606 0.8350043181750135 0.10325473162629313 0.4101400622954807
Ni 0.6628137823607118 -0.13809363230686952 9.009070288135984 0.36050491576685656 0.6363038094438849 0.8689202541961679
Ni 1.4419169392956293 1.0271600696174104 11.543666847405564 0.28109613752022555 0.42266647689726566 -0.8049110983340588
Ni 4.091094438602594 6.85778110578654 1.5062927072080279 0.6448763816042442 0.799126887552114 0.21603180092072471
Ni 5.839353235999815 8.008413576118672 7.956132583640154 -0.04070339125663312 -0.4807906347335074 0.15258700220251786
Ni 5.204553979500056 3.179950466424793 4.597004615819083 0.766005679518113 -0.6792198920811205 0.7495171949447865
Ni 0.8253991991875128 7.421763578996198 6.933629988896167 -0.36771686013426347 -0.4263177004966077 0.6120302816085008
Ni 4.829820446455126 4.574677330987753 6.877541214356766 0.28731075097136966 -0.05338510048935966 -0.23347982119384306
Ni 8.149857115552297 7.205042142783841 8.908667183015407 -0.5709710496743456 0.023096476808147318 0.4104951316420543
Ni 4.634101534395124 9.349426100583237 10.53810291055076 0.12279562987269821 0.2579482386488525 -0.7213317336495061
Ni 8.302258887105054 7.201241599852351 4.765454632345643 -0.9451439498465981 -0.6692897774516021 -0.1447780476810603
Ni 7.258466917706503 5.974779249125248 6.822962703187045 -0.03217349940875104 0.9480359266824123 0.9172312825967299
Ni 2.6074167716192815 5.309430866585703 2.585148304714272 -2.3849632628285957 -0.18122857719861046 -0.11300641169641827
Ni 2.4419302736881097 5.121557361005705 11.43114543968058 -0.6752117993629919 0.25943973559271444 -0.1298283683497635
Ni 1.095479353266817 3.3458894099430467 3.6562435555108825 -1.4316653164162956 0.6324546109011236 0.8693563132923222
Ni 3.181814542243571 2.753547647335079 2.8075949873855657 1.7420265214492257 -0.2579947756160718 -0.5686681125727818
Ni 1.2561699279749179 3.0956508046396443 8.207887786551456 -0.8529668161907051 0.8510256333039343 0.3887615966197047
Ni 3.698371669015277 2.5202938493707405 7.31518911606782 -1.2446432724643597 0.7711782248579879 -0.8458271198221303
Ni 3.973739102225223 6.841176352740624 6.060783725882523 0.7522070830721238 -0.1778267506059131 0.048126166083265504
Ni 0.7839986181871466 7.490743433202745 11.512648987737562 0.9624839837869426 -0.13758358681515012 -0.32319743756564984
P 0.2878024477253123 5.6087598180875196 8.112531259509193 -0.426346239741698 -1.2139432722773418 -0.4193618380040649
P 8.521767388133837 1.6482140291816125 8.014167779095184 0.24077429797272729 -0.340829034604484 0.8449632291599384
P 1.7219264642290384 3.185868454703827 10.356805249133416 0.9861556163722693 -0.3337883257076187 0.30252576814891124
P 4.008287847254818 6.213163780047099 3.9158921241344204 0.5728631244907361 0.26840440098517004 -0.5092242074838521
P 7.005821301879823 3.899764248737289 10.167561738315733 -0.03725888435145842 0.4848995146955584 1.2291284646582121
P 6.53217411458699 7.780000945936113 10.218763195623472 -1.1006162440167109 -0.05801025796619687 -0.0004717974300959616
P 2.4602000264944874 8.4296042220452 5.9132457443909 0.7594159421157373 0.7178517455207056 0.3105686930580458
P 6.809097960616499 3.9410272862791826 1.5987092428254304 0.16416930772347854 1.3095330311592093 -0.7349637226106439
Ni 5.367027189821261 3.084240126933432 0.2038991282744477 -0.1711035729494666 -0.1763365392136318 0.18751286754542545
Ni 1.3594813533292591 1.0212511302501173 6.9943138008179755 1.1685555881711618 0.14019145675164243 0.2699203234090642
Ni 6.901975990732725 0.8588231644876205 9.197982608783922 0.4871422879831482 -1.8435028210188573 -0.26383606488819716
Ni 2.8457017645119738 1.5663575735667075 9.359122009514408 -0.2021015639928777 -0.8273665991240976 0.031506812359029614
Ni 6.35496927595039 1.9881454476681832 2.4299160335687295 -0.629472131234032 0.25351437124721504 1.7381577825224386
Ni 4.1222136460821055 6.928091150019108 10.425158013756267 0.4893917461389571 -0.3397023771992085 -0.08225396100490996
Ni 8.237839684416295 7.26824879129922 0.5051129680920495 -0.2262226254107975 0.11873611509134391 0.49686414325660233
Ni 7.6630437616753735 3.828504068771849 8.005771293890112 1.5051842115410528 -0.54555466648377 0.7712592146075685
Ni 3.1235938440978384 8.34953945095514 12.41975714527859 -0.005999926337176763 -0.25056145926647816 0.7666348284616797
Ni 0.20168214489774508 4.794737815632775 10.44908967063939 -1.130630273880298 -0.1840616757720314 -1.1052015493945484
Ni 8.625621748192676 2.294550648151966 5.8896850928891835 -0.38465811597429234 0.9045107497062681 -0.5865452499635189
Ni 3.6330113795053878 2.7782059318310566 11.501352326319294 -0.10181979895197948 -0.7950090087289986 0.1935757859100537
Ni 1.0612201734129556 3.2706477088112833 12.468229450805051 -0.9586023893443492 0.4580512841544627 0.6203421439083059
Ni 3.372357476787353 8.177465345276053 8.132330278399909 -0.7621130293319263 1.031988358435668 0.10275825160584882
Ni 5.598796966259971 7.887402479397677 3.612286656943502 -0.6923674852066721 -0.11639769676615437 0.3702044024428076
Ni 3.05212553916234 8.325116438164445 3.6482841327429334 1.1316427743052124 0.16640873857695856 0.3546016629085441
Ni 3.62702099993242 4.25340476851245 9.455749908656372 -0.8147905622312999 0.00439478663358598 -1.4912730007765995
Ni 7.553434293748849 6.402883263622392 11.674318654696108 -0.6030414478463292 -0.19811506854130395 -1.4100595652210617
Ni 0.8125714619025594 8.989596125176794 0.40626627579103514 -0.5795850165956018 0.4083523742674387 -0.2455814895533835
Ni 4.665953703725708 0.5772997566198345 1.6937219112215107 -1.3839371571023973 -1.5442135575293727 0.15840540865650782
Ni 5.973367618893552 5.755886074094898 0.25279854243511374 0.24086814323811417 -0.4881195642947529 0.4116292452464975
Ni 8.01368004275231 8.924624938871794 11.417715949764807 -0.3844002343272154 -0.09526065767722304 -0.2847635590694838
Ni 9.097413908578472 4.844950226887153 5.882188974402405 0.47690235542269477 -0.617037247904789 -0.8758853726600917
Ni 7.738520734512419 8.709306083979394 2.605199788242579 0.9188500491470756 0.642030684625333 0.14944922790448456
P 8.569989038805053 1.5272029324606171 3.7786445650753944 -0.22926064090617293 -0.0014483024107523443 -0.9693123195626855
P 1.4997123385895048 3.238424534099291 1.5092462720005002 0.575116696411603 -0.19652998344237121 -0.4031065524874671
P 4.832797538418126 0.9725770339918182 8.22552863999179 -0.3420755054170754 -1.0156135166220703 -0.03022177499901892
P 8.593109008304952 1.5692170296770669 12.60147739087427 -0.47264692258045055 0.16856460857769678 -0.1756179158800524
P 6.158291179245774 7.697900169704183 1.4002611789841488 0.7182854906240146 0.4806376540954109 -0.46085610059310955
P 1.7179177963274903 3.1843572864429732 6.016615082780387 0.6563897815604824 0.0531704133753923 -0.22331162241158958
P 6.983443343142739 3.9249111744673164 5.911788869600495 -0.6910341111072292 0.5118133083672669 -0.7580671413973267
P 2.4966037984311185 8.585308846383656 10.284797629058115 -0.6706018113948063 -0.6885789646985173 -0.2902603205179969
