# total energy = -340892.4760981191 ev
CRYSTAL
PRIMVEC
9.06090523118544 0.00000000000000 0.00000000000000

0.00000000000000 9.06090523118544 0.00000000000000

0.00000000000000 0.00000000000000 13.26155069618351

PRIMCOORD
 96 1
Ni 6.4181652139211876 1.9626463914393915 11.491796324188256 -0.014634204973407054 -0.3945182965978238 -1.0572584458563663
Ni 4.458309581226075 0.45083529596178085 5.860782735901035 0.31388155948136265 -0.5128875152680522 -0.24620961005568562
Ni 2.650450630139025 1.5551503102495643 4.5970365674412905 -0.030861979686179104 0.4077340239571494 0.6032602487253546
Ni 3.6396839959358496 4.378709530679022 5.043075926379218 -0.25953383796841756 0.10096670692306482 -0.5492459992924283
Ni 5.421066982572304 4.496709696674956 2.6499495620917566 -1.492180085971901 0.435695799277398 1.3934636085355936
Ni 7.100206717031985 6.305828113558937 2.4395018883295703 0.6047939117610617 -0.18531508856315826 0.8022572056509796
Ni 5.179013966031156 4.295775067086856 11.726884223045225 -0.2591013784166893 0.8990816082708968 -1.4861413359769888
Ni 5.8483339585024465 8.118688684213657 12.236896289652744 -0.36174701570407375 -0.29118746031795656 1.3442087281645236
Ni 2.0404976873187635 6.687210666498725 0.5753855901922581 -0.3006300937880952 -0.38619177900999935 -1.3246094658763574
Ni 2.8054374104016713 1.6558894521940308 0.3683221644527607 0.04478193220138094 -0.24648780341773677 0.9493070800853521
Ni 0.3107283339129502 -0.041453640438562256 5.0663896349799655 0.40489012675045105 1.0520532475063429 -0.5610769304890852
Ni 8.70558162377356 2.364035422649855 1.4773370701712505 -0.12291827149349153 1.1012006557652712 -1.005415750153462
Ni 6.830028651327712 0.8006532801951685 4.71757106856961 0.31260654942368094 0.28933446626961784 0.24701822199991005
Ni 0.7098593875939512 7.5900120593680205 2.5659114802688983 0.05015708047036523 0.3850226984025627 -0.02159572389290474
Ni 7.814541285612298 3.803432671346931 3.824750262573118 -0.5554603556332564 1.0253631398096663 0.31111479536950293
Ni 7.516093196264678 3.7709855704921784 12.574787404616343 1.4283532213239272 0.09671821605935602 0.4539544883772698
Ni 7.8108897408916995 8.607823519578664 7.080699494627574 -0.14771244771903594 1.6665121931609943 0.4933255339757245
Ni 6.620631136456636 1.1108035283682323 0.5018635947285243 1.126511109505602 -0.8071520718494357 -0.4579445833732694
Ni 2.0382143392552625 6.391816102140787 9.238168029132693 -0.9486177673278114 -0.5321875011482448 -0.7512508898064416
Ni 0.17966687333948925 5.037364837948961 1.4805727193517118 -0.30626723746921447 -0.4309073767498192 -0.12964402025309932
Ni 6.303127963864798 1.664714773677563 7.025929948180594 0.29589437887532266 -0.30189816186724133 0.3363992809679045
Ni 3.211465624979248 4.152159722616646 0.11779448345211822 0.3483623668670517 1.695133970662745 -0.30628369252944665
Ni 5.931259361189599 5.825563904202532 4.909956734277101 1.257556380981602 -0.8253611386582947 0.3929841193414845
Ni 5.217794639490619 2.6930459446093375 9.044576356967852 0.39297512048042 0.016851524339700007 0.7969208810397308
P 0.10953456244145303 5.695404003677955 12.580012828537857 -0.02545057886262068 -1.246587283564608 -0.679588588274449
P 4.020731295390122 6.135999570883534 12.518996694174298 -1.2976573627675458 0.2509134432892582 0.2293786545412759
P 2.4179478074825207 8.56655109724038 1.5807238085607769 0.8516015604120624 0.45707375073254186 -0.7950532317033727
P 6.286474020449262 7.978326204643436 5.772646406740392 -1.0340123308442322 -0.6520587582852964 0.11352448898341738
P 4.743420018393245 1.124585164894364 12.616176712629308 -0.5369026472357269 -0.6338604901097149 0.38398191584287417
P 3.983681254788312 6.104413256005102 8.274000750966303 -0.0839424044509264 -0.040048274171137474 -0.9202502719287119
P 4.808731021733388 1.4424054691616888 3.762182901271181 -0.2414484412216164 -1.4351959552773734 0.17038700649841623
P -0.06062923371946484 5.865286911783441 3.505292652769783 0.8211219037659666 -1.638740422364365 1.2012044845544345
Ni 1.3710417812722644 1.1686574068819418 2.590510931291117 0.8553782538456752 -0.7486057388741107 -0.42903407098650626
Ni 1.8903222476184944 6.485768626229847 4.593164842728854 -0.19622273661459755 -0.2256292148011727 -0.0678760950166831
Ni 5.923765992743109 5.627864017704392 9.453125315320293 -0.6561545256212248 -0.461120924218722 -1.2770939367938974
Ni 8.57616471746012 2.1845388943246267 10.22274590193338 0.7989955041805723 -0.027115111049237178 -0.10845273088746483
Ni 2.208414379036236 5.31674878314735 6.8169274887681235 1.3042825813935472 -0.05131947620958258 1.8030621965053077
Ni 0.36315926077584426 -0.1474499194720899 9.11587027588867 0.7944320531796061 0.11680341684500528 0.23515129535899504
Ni 1.5813816302647854 0.9482961969440544 11.739760675160468 -1.2145958182596759 0.24948930924822196 -2.4965486258077716
Ni 4.318001467085937 7.057421123556381 1.7626722177827643 -0.32688671349177895 0.6133875669673436 -0.597572454311958
Ni 5.520573841434881 7.792468920998455 7.860319696013993 -0.09259725191244698 0.380784491951499 1.0920614124681645
Ni 5.576389016320465 2.94525623567106 5.101493393184791 0.1785458881601248 0.94716740803453 0.03335312153914901
Ni 0.6698409945095897 7.418036082204324 7.151437073980539 1.1513531082499462 -0.6415069509113791 -0.7266893984169935
Ni 5.350364740748894 4.582616137111679 7.290126004394695 -0.6236629807514227 -0.25714528313158297 -0.760171332224523
Ni 8.25183868339282 6.815513081495455 9.368780974907965 -0.22188774548086948 0.7720410870789155 0.7656266989121395
Ni 4.745721488266773 0.3373556154772787 10.445168467761926 -0.8444037571120426 0.10705430787804143 -0.4810012080824168
Ni 8.12248520341448 7.126238697136901 4.9654294069531595 -0.17991345793161273 -0.3736684497320081 -0.22811752844066516
Ni 7.370919376132078 6.207399502393014 7.189417669527275 -0.08101237528832499 -0.7680221957275096 -0.4875485222826313
Ni 2.7572968220628558 5.288696221224335 2.323145370503157 -0.5243050130763744 -0.6805175278466216 1.0541193860067524
Ni 2.017428623153391 5.340633328763972 11.489356222468016 1.726029631800337 -1.26785776290761 0.21147837722208743
Ni 1.0609594898868049 3.3920947664312124 3.5961082915430334 0.8356396377661673 0.6407068236075869 0.4613957751466634
Ni 3.6672925735131825 2.9408073313092387 2.7519708220956893 -0.8042156149289312 -0.15433792345535355 -0.852804579581228
Ni 1.3888827032446205 3.190163437291585 8.138003815431775 -1.4359644580122817 1.260789543206919 0.535859036462561
Ni 3.6383248601837654 2.689195059978433 7.032838888253688 0.8210509413187149 0.16023731965892402 0.13033976076854326
Ni 4.0452954088827875 6.862729457522853 6.013105610089597 0.17701633888947577 -0.19451783810834886 -0.6057871289122664
Ni 0.8689906258099526 7.249285787225573 11.256536268136026 -0.8009865664686722 1.2258598212092695 0.3852219588975624
P 0.21962727663176188 5.477244593658443 8.104902517235018 1.2083680921824091 -0.9392918619411952 -0.4840592781824502
P 8.605386136129926 1.4823368775579169 8.012801136040297 -0.5315611804181555 0.43420507366448446 -0.6783668000522058
P 1.802902636044451 3.0669985554377317 10.289279221359898 -0.31145855186216675 0.5653814714017101 0.5680150523698153
P 4.202357136393615 6.164677335252506 3.7603390071008542 -1.3037297942138708 -0.05882915432306643 -0.16393328045327252
P 6.813782448637801 3.7666816406105794 10.223275964876692 0.24458313019585617 0.20022131625102937 0.7917334233015203
P 6.326024870834906 7.6301790512946095 10.15967384822217 0.3882430051120733 0.7950102942805792 0.044651063050471486
P 2.303245810911644 8.438004037808275 5.626040057525096 -0.041968888232618046 0.1753340660910464 0.6308109046501137
P 6.9984165101059075 4.295041133780731 1.3531555547748388 1.2989200315300533 -1.6080159966973144 0.4583981259709202
Ni 5.16080154695323 3.1065312840133483 0.40117791212363957 1.0930965386008982 -1.034994235141527 1.4182750111523188
Ni 1.5732086939422536 1.1435224563734014 6.902424376298218 -0.4913884648540117 -0.8318716860833029 -0.03993668829393767
Ni 6.87270551394315 0.6233540213358096 9.342417365679541 0.06418013422233464 -0.47031801733695777 -0.9108716589272893
Ni 2.6169343424926335 1.2695958887367138 9.161211950668694 0.17533175209820126 -0.19622582193839108 0.33188390959605424
Ni 6.51067705411304 2.269330843444641 2.585418702673309 -0.5129816176437552 -0.45017213851670207 0.23228245845163223
Ni 4.068237620377965 7.008166043900856 10.490350670613706 0.18402105234208307 -0.312274620005559 -0.21642260860124016
Ni 8.218304273936402 7.271258481884264 0.4143533741043419 -0.5257615430172429 -0.3082624135223723 -0.30997373978652426
Ni 7.482404751423022 3.517950737074192 8.072889433730433 1.1850294174564688 0.1846843969576948 1.0011659737381724
Ni 3.1350368911870574 8.43894637192972 12.463722455318043 0.9744846077922443 -0.6451628024964116 0.19122451206905777
Ni -0.03537558535524257 4.570565133443201 10.253525796265576 0.2926434760381928 0.3371366733545613 -0.23531147508594313
Ni 8.605050882644413 2.4952916926811146 5.967326293597401 0.2269816150640091 -0.7285827587849646 -0.2496975686042861
Ni 3.600115023740177 2.4955363371164894 11.35583925663579 0.13333226773796392 0.4576432500827667 -0.3631189563509359
Ni 1.2082445008876417 3.233773573123454 12.532404115323356 -1.7090809197611405 0.22559270513628243 -0.2521288037535981
Ni 3.0534796851570025 8.208563801046466 7.675732751251958 -0.3193364119483468 0.5156684204472991 1.4376454452591305
Ni 5.630237974818033 8.00710363896756 3.6570845579245304 0.09035370729390892 0.18041353749648284 -0.0982469939990566
Ni 3.226153352006769 8.41155525607272 3.6706514510018327 0.033358263745471586 -0.18867372062274604 -0.5579427557354778
Ni 3.6020359356031224 4.31051715954446 9.494872529081306 -0.6746009052518703 0.32700369868561746 0.0205611119808033
Ni 7.110354930647546 5.874302512272266 11.465458991584374 1.075398864210819 0.9115406599698559 0.6154161673615982
Ni 0.542482725815307 -0.0013645722950923445 0.38380543894050173 0.240073929471593 0.8114522418866863 0.24172817724556434
Ni 4.534638645063113 0.4962186509048687 1.7190684245844052 0.04279652634023598 0.17576061210550376 0.08353514171017871
Ni 5.757833639223679 5.7750674805601045 0.4477156263654974 0.46547868696678546 0.4661034650349779 -1.251084400104013
Ni 8.136538667091028 8.654088500579604 11.241524160709005 -0.8036705410587384 1.237014295164192 0.9967992121290447
Ni 0.27706072915282653 4.868759517450432 5.784436456344471 -1.0857107876597882 0.10387051083342111 -1.166634974109681
Ni 7.7346512861048 8.93579203746155 2.4725234505622034 1.6245448475902733 0.7675403709950845 1.012648263346159
P 8.637941967844846 1.547675063613102 3.6783559385351468 -0.8205459766578383 1.2347000452087187 0.47943154960245177
P 1.7561211834577197 3.4297609485739673 1.4647378817494319 0.16270866401755205 -1.0765054670114365 1.01047053896855
P 4.567158233157977 0.8766570575422076 8.128799748118661 0.07121184425813543 -0.5896102620420878 -0.21997150229476312
P 8.56008161106046 1.735444198216015 12.472979075880238 -0.2120910711054218 -1.48046896818256 0.29251440665949624
P 6.360465370792715 8.075450045487358 1.274278564447894 -2.145502027240337 -0.9237315456090929 -0.9163427093441896
P 1.8476725677180983 3.1470788339505216 5.920327379290337 -0.2881625574487038 0.8851048343758305 -0.9382245970189453
P 7.2374794279924695 4.286161446867115 6.059825448522234 -1.225882704027405 -0.2336921943149653 -1.0965644425448404
P 2.2939402614623754 8.361901496596584 10.09831249337758 0.8539695464236068 1.1432747021171858 0.769548659674365
