# total energy = -340872.31735310465 ev
CRYSTAL
PRIMVEC
9.23395809440874 0.00000000000000 0.00000000000000
0.00000000000000 9.23395809440874 0.00000000000000
0.00000000000000 0.00000000000000 13.51483105395360
PRIMCOORD
 96 1
Ni 8.414435113918712 8.09514330962693 3.387965093750549 0.3328701847687235 1.4806126928492758 0.12149670855561656
Ni 8.337313095599406 7.512378977951917 11.889983377156423 0.05233609039955503 -0.43343014317167294 0.1832954870299682
Ni 2.5865147784246196 5.774908181857701 10.364807742289896 0.5748313039607003 -0.02671864694176689 0.2690487194373883
Ni 4.086506639277468 4.7490708371300965 5.684527123056512 -0.03493512131428823 -0.4665667778246416 -0.40342716905167947
Ni 9.297210745305678 5.8057403680607855 2.522299986782364 -0.2844537411385488 0.4574241920934251 0.08958057657331024
Ni 8.519249772676186 0.630948048604128 1.3174272746230837 2.030584257453819 -0.16681394443517722 -0.043703097314905376
Ni 6.967990976273915 4.630811535332281 1.8760346484287078 0.4730143332221983 -3.4239635338057224 0.21593409900059585
Ni 7.421202875355554 2.3954918865458508 13.39752215199064 -0.3590224176840591 1.4089755881282637 0.2041723304789774
Ni 0.7017097165620427 2.155399741153098 13.246899673731434 1.3511864450339375 1.5790113819348484 0.8093855891656448
Ni 2.0457372543762693 3.6856143469723124 11.731860154706515 -0.8125817275054392 1.019162153205277 1.9923198146559813
Ni 6.995268088596141 7.997235651552265 5.546067614448913 -0.6096630669279048 -0.17987154895008378 0.010129889345150295
Ni 1.0918232095395972 6.873056652717787 13.526183507624264 0.16786809673130443 -0.5379974229618024 0.3271862470100688
Ni 5.67824710813087 0.6663648950198006 8.04632521977414 -0.1985966361634128 -0.06822165128155994 1.4472464586840044
Ni 5.1381990667749555 3.0350542946914154 11.884185374845277 0.3659913928027245 0.011658410174534761 -2.0448608219774913
Ni 3.5135580050968787 8.765380926687333 7.858792764069305 0.00177174718844211 0.11522038862860157 -1.1751034165920085
Ni 7.386714041732158 3.6741919407629036 8.497693097416798 -2.9245426855655374 -0.09937082319085466 -1.2050032894752343
Ni 1.0050701728885103 4.317207849249875 0.6348669404353915 -1.1022864326302824 0.2025445650675673 0.2856493041085468
Ni 6.719828351473707 6.603129588600217 2.723508857876654 0.05434000820346126 0.8274385900126137 2.5184870777520754
Ni 1.2560491549190098 8.166484870155541 7.4683763972650175 -0.23417993258466122 -0.6645507201047199 -0.651592103061523
Ni 5.423786923884568 8.264512569685923 3.904543183722103 0.6578468257219832 0.09051954344781185 -1.805819704645787
Ni 6.692375793946971 5.998637753440371 7.780569134544839 -1.1520334221464223 0.5046250181489439 0.7665512676089379
Ni 8.694150173656308 1.7894579803779438 4.040082914768331 1.1463250589077354 -1.4303864497038719 0.7283822127383842
Ni 6.887701710315299 1.6115750109211542 2.6426092272855053 -0.9125647303589962 0.6817678553139549 -0.08608850425965174
Ni 1.4561028578509734 3.730251300582888 3.0610284955212017 -1.1216769213417521 -0.09817448888990835 -0.477966535021151
P 4.588178350636372 7.486828615800395 1.9071724786459647 -0.6457199605514621 0.1082753247693361 1.1990825531154254
P 1.129193038100209 9.264522533518042 4.078951414733783 -1.8852935318023982 -0.04612584782378508 -1.284173726458814
P 7.029221352647876 6.8028231671650286 10.0272077692096 0.5158674238319825 -0.7229101338802195 0.19889951211581228
P 1.883367334581409 0.5117616574098502 0.4422881266113636 0.8519275762929134 -0.6434201087736918 0.20903968587360772
P 8.990116999706403 7.286359384752486 6.226715595907447 0.4790250581926524 0.3369350988667165 1.669498786593144
P 9.06363777435419 2.9327051027552105 7.370340387172317 -0.8390535485437227 -0.5892873314850303 -0.4426483193358312
P 2.4500091753577737 3.118861698698362 4.9672812719372095 1.7076590997129495 -0.31857896495703203 0.5493732688989119
P 6.566692389810947 0.8382402513158453 4.717554414629422 0.8914444034406133 -0.2769211802069296 -0.5328552166392306
Ni 7.9237702806532715 4.047290019090436 4.174501643297323 -1.4325682878465393 -0.4642759249079359 -2.682042406040639
Ni 1.9194444090035268 5.710796810546525 6.2150928128065726 -1.5483409494341849 -0.35743347593038444 0.3126911387176873
Ni 4.79194410473744 0.1995790774839736 5.830027524739838 0.19043132674380106 0.13593422413718523 0.19677552379427402
Ni 5.0029769838884715 1.7024002231084976 0.15694404599643783 0.6270915468169974 -0.07657799366605521 0.8334212899586099
Ni 5.933085884660588 6.430851631729613 0.6714020191808615 0.2731699406946134 1.1175806397851915 -2.6490479533924893
Ni 1.9277457373642854 8.604479206235478 9.645521186423398 2.461373877678851 -0.16964344346417234 1.0407820454678978
Ni 6.390730083645635 8.96961761265314 1.4260583282765569 0.040674080680594464 -1.4578728280495987 -1.1052514287958772
Ni 4.203057658820844 0.38444199589281813 1.8081087290131612 -1.3918733812303383 -0.10805343856651713 0.7520607873022467
Ni 8.893105035570553 5.234629291548484 7.4011134760433555 0.683973604716022 0.3450369020382445 -1.0093068576777522
Ni 5.720363191171382 2.957775299083864 4.4248093165716185 -0.03489064122959797 -0.7391962726347528 -0.5750503619500419
Ni 7.035020278354835 4.593644853850575 10.823987548512312 0.9890691904746386 0.4315810057780761 0.8821850896258743
Ni 0.017997907795277646 0.905326803937184 8.430970362745864 0.8417220965148213 -0.0071288977352974 -0.877680002666669
Ni 0.505575828857156 3.6834720686856652 5.285137195739448 0.12210271757073166 0.1366057962829131 2.750615012903715
Ni 1.2757821234473092 8.094515400473947 2.1301808780985176 0.12186720452115787 0.8678879562769118 -0.15361595768766448
Ni 3.735431551094996 6.176991654761897 7.967817184339205 -0.29607049944187075 -0.974135966203574 -0.27624086631045325
Ni 8.307173456256228 5.590838460452404 0.27639545178910685 -0.8471836338500248 0.1900621163298404 -1.6644134016504366
Ni 3.7690523926539754 2.2325309934305357 6.622712967006776 1.1323583123149983 0.7062954081416739 0.446296971832012
Ni 7.937510410353838 2.0067053133518793 9.98710838262514 -0.42390240618689573 0.3268743721966048 1.5522305142965784
Ni 3.7594490761965904 4.021047110079006 3.074812948220802 0.0906900075874051 0.9442885438248383 2.3487114795854134
Ni 4.1369332846368705 0.5809360079648569 9.984405603079871 -0.11493731017054398 0.2147328796036431 0.8338141545216544
Ni 1.98222609034368 3.3751963764454804 7.654840484013968 -0.7940073069373615 0.6518186172500323 -0.03843696381995961
Ni 2.9083551551608604 3.0159030655254386 1.0121821674418543 0.3192124847759728 -1.302120797855538 -0.9884099596240848
Ni 0.1174531772528824 3.9332598701171233 9.58083915649966 2.2371983646050695 0.3494944235889658 0.018239405826162135
Ni 2.439593270584764 6.002220529195626 1.972895175651192 1.4006092184414394 -0.07968182940235954 -0.6909996583248681
P 1.5638539152944575 5.565962177244524 8.49128750066056 0.8580244332192707 -0.7815266579718476 -0.8523482087700998
P 3.6312355675323706 7.5761671607284695 11.271477163739489 -0.2754610507216353 0.24116484854292664 -1.6919684284505698
P 6.33787490729749 0.5236402211509847 12.507489552907652 0.44471651471876966 -0.032719601720208165 0.8512320928877856
P 5.659326727918196 2.186638221513995 9.676483571436146 0.652689707001076 0.5490302837371963 0.39600336578378253
P 8.921167034334006 3.4570000115377613 11.694234545505644 0.09321303111957495 -1.2564492639603522 0.26862217342293093
P 8.176660692017116 7.635319896522708 0.9349031718343028 0.7223745730917236 0.12866802949307518 0.5145350781738041
P 2.856478778374718 5.018046803560059 13.388007481531321 -0.2551526781815864 0.21691317508441355 0.11488923054142795
P 8.645514916174534 3.067613231065203 2.2702757206913113 0.5005117673115187 0.5148672647022422 -1.218448873457179
Ni 1.4320114610843224 8.700724751846364 12.119397373365214 1.4856332859923187 -0.2515215091869023 -0.6086842479544032
Ni 8.415829441596658 6.105659328191419 4.746800206825412 -0.46046992089828437 -0.5309839677584468 -0.3356680592288348
Ni 3.792164989858623 1.6497204919648627 4.108684759919148 0.11477147401664105 0.43698932127784096 -0.48669208781960704
Ni 2.16292541703076 0.6496412734467528 5.735099664954402 0.536828599464682 0.46276797290384175 1.8079231241420346
Ni 5.817873789046366 7.569638752329074 11.926270985823953 -0.5978246795320801 0.008717839488972083 -0.3267036509466954
Ni 8.965286886289183 0.2604133170540668 6.05783388883783 -0.056820094312837625 0.6191697208667595 -1.158358850143818
Ni 3.2698461481163426 1.4943222105597385 12.168456469525253 -1.2276835046815695 -0.37923565940714044 0.3623414547549631
Ni 6.88379574602542 1.8060144673088008 6.593129211943152 1.5130597576343878 0.9355928158230532 -0.7847454220194614
Ni 0.45267540611416374 6.900426104621333 9.656468043789005 -2.342156966296347 -0.3902492369088247 -0.138888935890135
Ni 0.19860304810941054 5.489745086822164 11.496648156186579 0.5722113498393501 -0.2693806488555103 0.9701872659684712
Ni 3.215310391388155 8.659328917540156 3.947763648155214 -1.3218977233721492 0.02094729167562844 -3.3939556745897224
Ni 4.934701097459718 4.551168646442912 9.812159041666918 -0.11560245455836866 -0.016650464072487454 -1.342023547587747
Ni 3.7571221187473007 7.935395833941587 -0.18329129873476102 -0.6856779890016385 0.42309610823551647 1.1324102485988563
Ni 5.23329036761933 7.665459535865884 9.151270807215266 0.5750678454515387 0.07522430785163818 1.5099376670656381
Ni 3.063910413854231 3.0374089540151012 9.9494292164671 1.845997048195621 -0.28865055282871577 -1.8431130417796062
Ni 4.495506346822609 5.345335215594241 11.993480350088449 -0.37331389460606673 1.1655419981558184 0.6538919548392932
Ni 2.1030154966696903 1.301803417463569 2.4458465070318227 -1.6964308350972976 -0.2526779913888487 0.457939955387579
Ni 6.611338577379654 4.26334617146533 6.065226595718389 0.05606393287310344 1.146448214749161 2.01579012986378
Ni 1.3974210539214729 1.6268018078809885 10.499253249297471 -1.254207519114027 -0.3688908258377066 0.6180227517465099
Ni 4.732689795403749 4.48293892980482 1.0219101423340224 -0.40415864790106526 -0.212811237100898 -1.1098830140306175
Ni 3.2660325234077847 7.514955252270774 5.684094973815929 0.8304197841281246 -1.7636921793481175 2.154802992926289
Ni 7.659014233089677 8.330027502633179 7.718955548908397 -0.015417877216966995 -0.21247056593202762 2.14217990484564
Ni 7.003606352789428 9.165774585253356 10.587166994485763 -0.617733245530549 -0.4132472404658947 -1.494963305143993
Ni 8.663253349746299 0.6521759949540145 12.424508588153527 -2.1792683250575053 -1.5046342525748537 -1.806667911578695
P 6.342879712605088 4.535350876162623 13.043892950988827 0.8356206116027737 -0.05411863622127453 -0.07405497013388536
P 5.192245423722142 7.5866200013340075 6.974207276888446 0.7378081340379744 -0.06801030660170222 -0.4156715336366712
P 5.771602424846408 5.180823017512732 4.222654888164602 0.5884296114704253 0.16675583750373216 -0.5418111402809379
P 2.3329502881171322 5.93696414707607 4.06781526122647 0.03987369626648617 -0.09471866913082397 0.4798789215525155
P 2.405399923621595 1.2352450472473866 8.491192390891799 -0.12877678715679758 1.5057884207839551 0.04212958218019841
P 5.036736334819432 2.542625775422745 2.217445476030123 -0.9977518058503011 -0.04674394102375821 -0.11179053701144617
P 5.008609698349053 4.13214086036631 7.682289347957451 0.04338839428796398 0.21076283921230154 -0.6662129382984913
P 9.217540154541913 8.982231199461589 10.326209797297714 -1.2269522829425 1.0480050455788983 1.0110904319407361
