# total energy = -340863.84133628826 ev
CRYSTAL
PRIMVEC
9.32223143754257 0.00000000000000 0.00000000000000

0.00000000000000 9.32223143754257 0.00000000000000

0.00000000000000 0.00000000000000 13.64402801444141

PRIMCOORD
 96 1
Ni 8.063674089714828 3.0339481239406974 9.721983431746745 0.4854751846933703 -0.012672967481978175 -3.0010471456811803
Ni 8.560949870781121 2.023231812836942 3.438867627883435 -0.1405616956068676 -0.45428693201602405 0.7415670868597745
Ni 5.409355188584296 0.8985288514621113 13.208128755366783 -0.02647362081049634 0.949566504394326 -0.281640954280102
Ni 3.884499180100036 5.918610036794736 2.5715850310935022 0.3597554391953417 1.664503904481714 -1.5661923757933092
Ni 6.171167925564547 7.459714694331328 1.3700650198500381 -0.12268198711296938 -1.237047976615605 -1.3357369432480866
Ni 5.8794659878155375 3.577797772284933 7.798394151970996 -0.374462149277897 -0.4438197139361131 -0.9475888118426649
Ni 2.45072137083625 3.8671691522237968 2.453878810557434 -0.5971448798562362 -0.0716990683071991 1.6259304150838902
Ni 5.587885239072657 0.40605774837721237 4.75095955609455 1.0367626398958598 -0.6196428038484361 -2.8080472868792543
Ni 0.9195532795789928 3.81680113683094 8.338588553445799 -0.18055751927351485 0.08966079499194235 -0.5250156659901539
Ni 7.533928977237591 8.836440448402762 13.337391745971798 0.5656444952551097 0.19749234735564053 -0.3045034607005724
Ni 0.5056518058359558 8.899300253657996 3.4880824832718327 -0.6662157665119688 -0.5247557274605479 -0.5311765433852271
Ni 4.227044567035173 0.5184055503961943 11.131152414981646 -0.989947993535166 -0.026738958656741047 -1.143577063848953
Ni 3.2077704476525644 1.5506040111707435 6.342017389733793 -0.9114977225470625 0.482107296662402 1.015152774935568
Ni 8.445960148428558 0.5140091861431364 10.24613240881026 0.8233243107339239 0.6157722651494363 -0.35135358828489166
Ni 0.7966368640025647 0.7846568646352944 12.792162407403957 -0.7875137287932179 -0.11791927561700336 -0.5618567460779033
Ni 0.7693553542770053 1.0766431304371415 5.301769182283002 -0.2673757026103395 -1.0856171995047172 -0.09118880160069456
Ni 0.809343065183476 1.3012809366414135 8.034927125238248 1.0397554039755963 1.1455447290982852 0.39033691152662453
Ni 3.540359691622761 6.460446083191006 5.533894604619709 1.114356219310623 0.5329608889791596 1.5954844398892072
Ni 4.9592219309016174 8.018703646210266 12.67511060750098 -0.7424037238284569 -1.1723587639673358 -0.2552426667922314
Ni 9.457590038193892 3.9494751318468833 4.543433637555488 -0.4335561272265759 -0.4088298281244895 -0.2913047026221112
Ni 4.235471864076658 5.232493817488 9.536725526972056 1.8249777656314765 1.2918919210386783 0.7728016193940239
Ni 5.950184434006584 3.3237483265166285 10.144225505780728 -2.1719473659160595 -0.7919018305585847 -0.4995131508436752
Ni 6.070021716604248 0.8115365861943847 9.613990976163361 2.1746351971608675 0.362473352347137 -1.3232223557208438
Ni 2.7382376267582385 7.946978399045238 2.8574009120372086 -1.2279326445778982 0.4679248345144329 0.605948337080479
P 5.5581379991839635 5.664942802507296 6.739727080035066 0.11393997925428119 -1.1498086465809618 -0.21308428825662656
P 2.2286844671480996 9.063324912336013 6.970024412825494 -1.4939837148395432 -1.6678661360857276 0.7187205212789042
P 2.983160608142014 3.0564240234617372 12.763237388310683 0.4141802938031254 0.5360318145949994 -0.5362261899939926
P 3.88199149989632 2.33673844945767 3.473688026013252 1.4273615468346192 1.4167403196753472 0.5257520299355462
P 5.9440597280815215 5.07949735836759 11.13055206328975 0.4353600132045341 1.8697303872568185 1.8914654649410652
P 6.546229255066829 0.6776385822165525 1.3009005896067982 0.5746731811162813 -0.026815577530947363 1.4355623374778568
P 0.08066526692474445 6.434502313648469 7.9532541251163975 0.7674323846623106 1.5886836149172896 -1.6903141806765987
P 4.25846980854717 6.719725300685276 0.48908526869832 -0.678580972945541 -1.7612465460211022 0.4045952212178516
Ni 4.911417529099921 2.615137563226371 5.4793054829211165 1.4208893088467143 0.788645528404816 -1.2863157125024816
Ni 3.908531892238253 4.658356239843118 4.354027339878742 0.2319667269834263 -2.8461870311737694 0.5710507538723455
Ni 1.3049911846751647 6.26689791817407 1.6540248445537453 0.9688672616054669 0.48355765595568334 1.2004421524671132
Ni 3.0564799568491807 0.7112023435751391 13.03952874559589 -0.15798914705469563 0.6524871040719666 1.415938135489026
Ni 8.93385776486683 5.4288386518771095 0.4277524449202917 -0.7481046308679762 0.6669037937179288 -2.092165777711042
Ni 3.8508738920152616 4.323753393924956 0.7027247064849551 0.5092756295470777 2.0327766371194476 -0.9543392431926211
Ni 8.2574832772065 6.227287757632843 5.765815870092247 0.42243147806832404 0.9171976011453171 2.4198294785781616
Ni 3.5159540902349202 2.8439796957201446 10.608654405070835 -0.3931561261429745 -0.7512295496502029 0.7870702134978961
Ni 4.593305710246346 2.2671852821716976 1.1751791146500792 -0.9872185104191449 -0.6239144346405964 1.1648048628794778
Ni 1.0068382629076735 8.365891504303212 9.256544934813281 0.7606721831203416 0.43182063259270786 0.5749734859655194
Ni 1.765006007472858 2.5879819036225595 0.7026277552800531 -0.9163221405188993 -1.1494404646082657 -0.29874007585423384
Ni 7.307333502472797 2.127426391412912 11.627003759114379 0.12947252767224154 -1.0320541786765967 1.6330397724351615
Ni 8.088648347208343 7.560935481141553 10.014866496193935 1.9189585281550112 -1.0301916715465613 -0.7364868441233897
Ni 3.892385787729568 5.488510254048067 12.082537385354726 1.3007784248950307 0.5940065913375705 0.030096305164748167
Ni 2.449155235987832 6.6515331791604275 8.235207805657131 -1.0853477478934146 -0.4679968254029488 -0.5814223269146567
Ni 7.104425817290317 7.7690449713562755 3.3635803561613815 -0.3814249537489754 0.17113262641518914 2.4445035842860743
Ni 6.8085568421767695 5.726609362163736 8.789155294881164 -1.199745897731037 -0.5861467289735195 0.04380517011040842
Ni 7.020423191581445 7.931960284516663 8.042512624798709 -0.09635440496203405 1.110717337006455 -0.5444133537904753
Ni 0.667403704537519 2.7143540703198705 10.752039643782208 1.0274328778545014 0.3680354198159468 1.0702995953110406
Ni 6.161538060693028 7.565643207918046 5.863371155578675 -0.6627208659848328 1.1794879188129492 0.01007281085496975
Ni 1.4645877835139056 5.177390108624928 5.991311321570652 -0.06290409572338843 -0.5480391234685207 1.664213626934805
Ni 3.391250602929673 8.816462906854197 5.21916768792959 0.45026881199556645 -0.33344945431096124 -1.2555141537405925
Ni 9.315537878549923 3.5604584221774527 1.8434171588836301 -0.6229155610624368 0.7481426831947632 0.40460473429954835
Ni 5.4033982828215645 0.35669933062771 6.885840935830555 -0.2687144760264211 0.31521776179428296 2.9764771696512997
P 1.8681192072249206 5.510109863832492 3.8587903307847626 0.35647316889964414 0.4113554227598206 -0.1948471964233096
P 6.322747405536389 9.335189142005067 11.591474871410279 2.603791909768167 -0.16985504525434617 -1.1887526319443267
P 4.821896142496625 7.9413291269134465 3.418770761774991 0.675374035972469 -0.13046240238933662 0.7987553631453083
P 4.486724640472787 1.653791788772731 8.623858151638808 -0.45481786481882963 2.340140964307583 -1.1014695931559417
P 7.919487139116766 9.497862077153199 4.354859815128526 -0.19647239073155842 0.5128888008196328 1.1313314137123807
P 8.96646692974638 3.0699692254543014 13.297265133819844 1.2160019545785832 -0.49247141350554535 -0.28355436925273103
P 2.9482861410710015 3.8308590615417355 8.92118885261088 -2.3919016418196417 -0.24955024439314438 0.7336532313293364
P 1.8913502074764479 1.0497857822330288 10.463550146918701 -0.1597737497589442 -1.8549727693316698 0.3904032459881857
Ni 8.094251008183932 4.095545173155542 6.751829200631588 0.1627577720879326 -0.33307381613909737 0.17320673533539846
Ni 7.255706985862461 1.890986640458065 5.913089411454064 0.47491540689965306 -0.41861956052140165 -0.12883746519140393
Ni 1.942473323599792 5.427235228103729 10.667500989777 -0.7941381760882711 0.11550783796203333 -0.6318300899432473
Ni 5.737357894784127 7.81985113161744 10.183861768569429 -1.3918384142273448 -1.0466122789964296 -0.3987112516332488
Ni 9.125233850004708 6.301408818226699 3.7721644292047913 0.46136055103335377 0.08095246858466704 -1.667458616234664
Ni 7.14634789117921 6.905834325172228 11.896022843808808 -0.3507432083944024 -0.9721292201861903 1.5465481191998203
Ni 4.725038159906991 7.123871991658169 8.096243169000044 0.82857116095516 0.3925496029072272 -1.217211401505652
Ni 6.615129866165961 4.933930717545922 13.47673859410975 -1.5604673003840739 1.0079644847172446 0.6777826454139617
Ni 5.099913044784461 3.190216686226551 12.446709416544884 0.47032367376391254 0.42856767287304903 0.008535805385153042
Ni 3.5153481452042827 3.9414020795925406 7.032063861731558 0.1666311390004098 0.9249235090346652 -2.4120128107472203
Ni 1.8483840436886116 5.139644394331817 13.210761353469124 -0.7697039543053066 -0.3685344709395524 -0.4509756082546039
Ni 6.285654247430118 5.731279800015268 4.532887397353019 -0.6909785752789455 -1.7406679505388023 -0.8369156762651134
Ni 4.3505548087416255 8.922913465390387 1.400696007260338 -0.38867957842885964 0.5983008478375502 -0.08335413604762418
Ni 2.5113065516687834 7.908263172703108 11.95972724321444 -0.9033961764858506 -0.5922340728181801 0.09742064144301932
Ni 1.3869802084360716 7.371815375963893 5.212536784848164 -0.3509761503408149 1.426229233002389 0.41984983338407694
Ni 6.9789019736358995 2.698468988285921 0.2952173511498324 -0.22966558965407546 -0.4184377835278987 1.4429360042341086
Ni 5.518844794504916 4.166580575208767 2.465571685202495 0.17967717355109056 3.206448720581568 -0.5579080458428004
Ni 8.294352701762994 4.660882564509316 11.844230391482391 1.008600832749663 -0.2382638728460477 -1.4024074479924429
Ni 8.815828995129838 1.15544395111377 1.2387017305465198 0.15804159755918587 -0.5194775097807441 -0.043875104116395405
Ni 6.176574819684085 2.2649665911364396 2.970945688547481 1.1014071153491225 -3.7577865694060186 0.7422096055397799
Ni 3.5871759369129563 9.061003676757108 8.903396442065107 -1.144784453893493 0.5806255420449742 -1.1047978861982264
Ni 8.573255216018687 7.812309446543811 1.6395893694777062 0.7840437679667465 -0.880069071724136 -0.7868084751960772
Ni 2.324041570507999 1.063629295625291 3.0846144507332536 -0.7907975417508123 -0.1040538304888208 -0.7069422976970535
Ni 9.09234501818794 8.786473288953248 7.224307846597938 -0.6602603202594823 -1.2250681785459094 -1.092058584254687
P 0.08666598717430622 6.927033079013309 12.135448505430013 0.2603270232936742 -0.5411963895150743 0.2561325255963524
P 8.71537263128134 5.0598927060686485 9.41885430294303 0.6983674115438488 -0.5274641275306464 1.3536058531087076
P 3.4608969925280513 7.328084789214329 10.132027366202427 -0.2902178973158357 -1.5135366972708062 0.3625039484747563
P 7.950912380628764 1.37170107143276 8.067590359058995 -0.6024362101621624 -0.3350563937867649 -0.021364067498072885
P 1.3683264237236699 2.786312373265913 6.213339835250686 0.22332936302340248 2.710115510127771 1.4487839783744534
P 7.879783756263134 5.412366269275003 2.2415230440126273 -1.2740070703384576 0.8505993443997932 -0.13649061086128753
P 7.205320326007122 3.7070038972793804 4.311458303141754 0.3300689678745025 -0.5858921897605522 1.0775850732288603
P 1.1973567027714205 8.682567699545736 1.317308648813344 0.33310004139134247 0.6987803307115514 -0.33996925770735
