# total energy = -340857.61768489954 ev
CRYSTAL
PRIMVEC
9.41552252304866 0.00000000000000 0.00000000000000
0.00000000000000 9.41552252304866 0.00000000000000
0.00000000000000 0.00000000000000 13.78056894808365
PRIMCOORD
 96 1
Ni 6.789919337513869 8.431958221316627 4.279693951662995 -0.48578525973462144 -0.07662247375074546 -2.1201069842060005
Ni 5.187915255536423 8.179791696743353 12.316728437259775 0.10162002423634757 -0.05229212453549704 0.6050474225327644
Ni 7.180352810536047 6.579011632695655 2.2368899419587236 0.1592019364158742 0.5299871510628164 -1.993909527740605
Ni 3.6431293040134536 5.584826608063733 3.0835130142936826 -1.405893092548198 0.7093660766471976 -0.24350763774349035
Ni 5.817352352625813 2.6728597066243105 6.660107528302766 -0.633484851937851 -0.9019046795419886 0.12365746365236124
Ni 7.043771240621183 8.951073640845527 8.969951763531265 1.2215820197695222 -0.9432472470445176 0.20210696330951644
Ni -0.21702026204892613 7.822858652906137 4.633220459446495 0.6762957764557901 -0.17037980740956463 -0.22368263259776314
Ni 3.2490049461569557 4.15346945653831 1.1717711951933651 -0.2150169865029652 -0.5174093143978057 1.0132249617852358
Ni 2.7468092206261963 2.017567584649617 -0.04157329820778285 0.29444453380267355 1.4665790975743451 1.8720389807853373
Ni 6.4655545861305015 6.250617037666655 11.958226767367973 -2.333039577376111 -0.22796326225098804 -0.005729960505241744
Ni 8.946846071226627 1.0837360594768342 8.6098099096136 -0.28658081478388064 0.6959857986855498 -0.45093652748655244
Ni 7.122240205440601 7.007945177369695 5.868593509374102 -1.6008115085290755 -2.630716244962837 0.6651461875968738
Ni 1.720940962658859 1.4271766595192057 9.571928489142872 0.41852417259411795 0.8377068047078411 0.4670200633119763
Ni 2.063778969258893 4.304249634438258 5.220630430141841 -2.3081790666890054 0.20734687155221712 2.3820813132951106
Ni 7.440993305392198 2.1701178807864325 0.7884925777466926 -0.928834156942981 -1.2983690441225897 1.893102486323856
Ni 8.106341205435903 7.201500074153088 10.187037985588427 -0.4660525571923845 0.22663683013008062 1.2215753349013028
Ni 1.6762360616554273 3.961336303657932 3.0766914682159685 0.2767116352992847 0.9249142530632846 -2.1031605861596487
Ni 0.4288280908216308 4.0579019027925565 12.705105560159975 -0.21051729886039872 0.7818709286851437 0.24063520129170168
Ni 5.575053295670817 3.28879494439632 8.870387320468755 -0.4317465848216629 -0.05980540219340668 0.6225651197015537
Ni 1.8947985862958365 6.507886775454728 13.064144856388612 -1.0179635049114855 -1.1627765195955393 -0.22101485595761292
Ni 3.008946783565654 3.944925047876765 12.61299632784189 0.4829627026841618 1.654198408790648 -1.1381679770182396
Ni 7.016663951238519 9.04577496651792 11.508993356105181 1.6894585175445227 0.8496205254262917 -1.3622133922720605
Ni 7.618155777439497 9.081337395138384 6.526794086260328 1.5306427608234736 1.097006929398898 1.2860897125346045
Ni 7.608542528929703 4.301377900064617 10.516199945704155 -0.4969348485935377 0.35314256186451437 0.286405465548281
P 5.577990938702214 5.3022950233101565 6.347743801944456 1.5376868121544485 0.21474599222976565 0.05219725082884559
P 4.766354065008484 2.4762071029264003 1.2032585856600198 -0.9895381596912571 1.9969105193504575 0.5762734357238656
P 0.36127548283106165 8.296977290232972 7.13753572180119 -0.4464838910318375 0.49001446732462056 -0.11017254179204897
P 5.945064500311269 4.125307628631556 12.981833416822036 0.15716793670498094 -0.33185125658590586 -0.4458912517531611
P 5.744843413572015 0.9342787624932674 8.110484976904228 -0.9751983460298174 0.9497732210884934 -0.6181073410405161
P 9.270231608266196 8.968652421421224 2.2634859684676525 0.267912548950416 -0.1861375844644536 -0.007230456310168193
P 2.9117974220337652 8.567946613311694 1.7275045234190722 0.8831117152052017 -0.5054153752607231 1.3217007768699947
P 4.4366789589145155 1.9405956879135058 4.932437291687051 0.01293470578379708 0.4708638625380988 -0.12564878305077715
Ni 7.336848210615669 2.3919852538371633 12.26707662071565 0.10334729134009943 0.8146054428036874 0.4412887199841432
Ni 0.32979562478243607 2.088551209052496 2.520907296168564 -0.972031004045429 -0.6216888877441873 -0.5193350706656088
Ni 6.16915393668062 0.945732745658953 3.1882032678250765 -0.48885927067425483 2.6455221996274183 1.0652571477911268
Ni 0.21524166984177615 7.870821324707208 0.21165529730761287 -0.6807815801412855 -2.571527907528139 1.5147376595574429
Ni 4.028261837847568 1.3749110939189424 9.840552405557744 1.3482952395290717 1.4736046369625588 -0.59209394769589
Ni 4.9440814684079735 4.441932820489897 10.931009265021151 -0.2866612903128289 -0.3382270782052627 0.29893753657702066
Ni 5.5518628636633505 0.3204836729938106 5.827651051176265 -1.0675526286935226 0.1144032920439449 0.26048051815240303
Ni 5.864109837542207 4.1862260594428875 1.6999848341493102 0.5676065040774869 0.7965526990670346 -0.3065078927251108
Ni 3.246189704918534 -0.18064244917679909 7.06361633747142 0.6668294888365677 1.6404270660381686 1.6416874208078307
Ni 4.153770753259478 4.230554339544859 4.965249446174595 2.864991822585098 -1.3386651726384753 -0.7042320978547421
Ni 1.934014237660473 4.969013772084698 8.426239232927943 -0.7340689787105165 -0.25222084924677207 0.023098790800992478
Ni 8.362744715150615 6.781417120663384 7.730499909240834 -0.32125625467887897 2.3458608975104953 1.1033321002859773
Ni 8.152401941684595 2.4469342433603365 6.0057786142835585 0.052948784282889454 0.28083799876283244 1.9006679573759397
Ni 4.5177654389990884 0.5279961403853514 0.9725924067989046 -0.056730619922824875 -1.597831599965145 -0.7591765724114216
Ni 1.3038992229484532 8.981062080124365 11.518034140844755 0.8224794462351255 0.09340972051141332 1.2978370828785197
Ni 1.6732890031014942 0.12882223779251353 0.31545201775029036 -0.646305400741287 0.19046140865078812 0.25784076653671073
Ni 5.231499709358008 8.11828008801222 7.701353217676759 0.8759280529725689 -0.02527137297227906 1.5766652503001748
Ni 8.106275296778147 4.825860167439337 6.723249905537226 0.019085041655909067 -1.3669521925086265 0.6040709175521081
Ni 9.493106442228333 5.755530031650974 9.313045872344292 0.3175068149387758 -1.8711144120885388 0.8479523936952493
Ni 1.0222715283583839 6.281735339649877 6.476275100090591 -0.09440216633166969 -0.4329064094577189 1.1143734457018035
Ni 3.1776729474202243 2.1078718612974505 2.953272798807168 0.7962889038826867 -0.442132041821045 -0.15309865173161374
Ni 1.5769305454626732 4.058994103406794 10.6831795301282 0.21707361192167776 0.23472834888896352 -0.8959556610474053
Ni 8.605439224052144 0.2255789720346295 13.257375859196747 0.27284546747565913 1.903121818233071 -0.5884913179462962
Ni 8.46343431315624 0.8451843804913773 4.593779777093235 -0.9528536597860301 -0.5341849911942478 -3.3134444073075326
P 8.382583221135079 3.368196045946855 8.730472655575959 0.3047675129952364 -0.22726597907364732 -0.7192347419111613
P 1.6266539199780743 2.1670107583493787 4.600987359594947 -0.9524803356070113 0.4688031233543281 0.11781745993181644
P 3.0034575339268588 1.0982453797056229 11.956917068183142 -0.155406473929184 -1.3968608071426007 -2.1162860677980135
P 2.7527598308692816 7.32274375785595 7.9496518455920295 -0.15191620138773837 -0.213678984417832 -0.7392860041350816
P 5.849148572231665 7.420476881785105 10.069820379322184 -1.008268646221225 0.24813536632348882 0.40600675685339754
P 5.686410680710327 6.938213817464174 0.28583266695488263 1.1487542371745183 -0.47949814117432904 0.11225693512490346
P 7.940392620729608 6.014654627378743 4.141997583879804 0.03195341297814496 -0.47627603469260554 -0.06930331438151291
P 1.7298951245910967 6.461157537105942 4.478382191333302 0.21451639271746278 -2.059464945043911 -2.4265336300712144
Ni 2.4023988217625627 8.105738611993566 5.472484359366904 -1.461752108499347 0.48695819699680004 -1.2230609183078938
Ni 3.0635944763676592 8.283249458374716 12.456559304001996 0.857051270672724 0.33505870777961005 1.0551812516123633
Ni 3.738423807605647 8.58966822380346 9.67026608961887 -0.16460922347437457 -1.0535555430834822 0.6599016513684829
Ni 8.47037355326566 4.129798832881479 0.9536097718130118 0.903760758914121 1.4652500943502764 0.8762401848963489
Ni 1.2565391445897207 8.583133851163112 9.1920526415409 -0.3645610881141012 -1.1956025649866249 -1.5507192198583746
Ni 0.7908577570078683 2.85625525459079 7.261050429539862 0.29380587177741013 1.8418637427535376 1.1159999255616329
Ni 5.725729902822865 5.909068957654125 3.854632069855975 0.11180493518914938 0.15981411607857635 1.301042991410327
Ni 0.4913160892398018 0.8778327048867859 6.313512728210657 1.9062680771715363 -1.4718835405063941 -0.2804366495593557
Ni 5.119567977443771 1.6084066373022843 11.962388428329117 0.006312829591905256 -0.11736751687859143 0.9022582062266655
Ni 1.40460765199915 0.18148043068255001 3.727326672744096 0.5587084302569088 -0.3798792065284103 -0.4201627366388054
Ni 9.276436437617766 2.5063179439982144 10.800368889826833 -0.7062905230456675 -0.9424674314556994 -0.5430462982396196
Ni 5.079890965474844 7.931005344760691 2.1162818060270765 0.2560083413136623 -1.0614917672114237 0.7229638699362904
Ni 7.202451041929278 9.160898560572038 1.7412850822035337 1.0363908583787378 -1.2939678297311006 -1.4637737669150663
Ni 6.715423723204864 3.8884036660899914 5.031023461958013 -0.04345807118363483 1.2516713829557347 -2.5261271107958367
Ni 3.896896467417939 6.177524336215593 9.309903912473853 0.273715014564806 -0.33250817344361444 1.5032283733662626
Ni 3.6073785649422594 5.194298979816188 7.044695844934269 0.44259586883134094 0.19591137602176584 -0.5845081649288321
Ni 4.488633812271074 7.241101761941722 5.830724277732188 0.3263681219841476 -0.5125576427324592 -1.8186819053204353
Ni 3.7314469054060804 6.39061644226228 0.7605990922322303 -0.9327504612782517 0.760926979443625 0.007269279967903611
Ni 6.867550320827536 1.5710646749224169 10.069847684337539 -0.06738270032003234 1.3133544617878283 -0.42968738829978903
Ni 3.4125243260488256 2.2765603630618743 7.1724550702324095 -0.16033399313778837 0.5372633730092554 -0.047976013658646406
Ni 6.173993515264395 5.669509817757261 8.816615271262648 0.9814764657290453 -0.09442736314265028 -0.8671071122468292
Ni 9.609293990329082 5.93356814729417 2.5346737316692205 -0.09282325188032402 1.0098316198329704 1.4960999898515976
Ni 9.122238425037057 4.1905854463773 4.384067843637162 -0.7485990540058914 -0.43036076021772973 0.39162374865884814
Ni 4.1981555264966675 9.328014670072863 3.7696061351421184 -1.6953705121535834 -0.39880098313357765 0.7150366446694136
P 9.139515908891585 0.13968775079966608 10.576131629753661 -4.19624887568496 0.9201356007277185 -1.1810624623889208
P 6.438108337936525 0.3706759405315305 13.534723257241712 -0.17865438871353104 0.42501466541446803 -0.7700523387836609
P 1.1674023927364163 5.252505740137001 0.8424651775828284 0.4750645308830077 -1.1663866055443008 -0.3973555089363028
P 0.14602063125773437 2.270289625052547 0.06592560569625719 0.2269577038046091 -0.7304082420294776 0.36698281018171636
P 8.326758588016007 5.707943980751364 12.167333282724949 3.652267981446213 -0.7429133164750238 -0.18555831492221592
P 3.027156404151298 3.341983231205163 9.198529579493778 0.9025356282577681 -0.8386169752269365 -0.27188156090049304
P 7.656881821632234 2.736470976881089 3.227271095485889 0.06395387714414145 -0.11141541306021456 -0.3717529778768501
P 2.5181909179167756 5.967793571714446 11.138641309548905 1.0039453362555226 -0.22492833207940618 -0.5235956457141757
