# total energy = -340870.25050944986 ev
CRYSTAL
PRIMVEC
9.28007942925076 0.00000000000000 0.00000000000000
0.00000000000000 9.28007942925076 0.00000000000000
0.00000000000000 0.00000000000000 13.58233428951311
PRIMCOORD
 96 1
Ni 8.914945616925342 3.785567203008214 2.9433461521193895 -0.4046954942411418 0.2803289203368978 0.33903671859075163
Ni 3.9334545519926793 2.310275823900763 3.633328424685219 2.0894578918615756 -1.338906856335636 -3.5896958151409466
Ni 1.5001434323567229 7.881515949323056 10.023654362478624 -2.5271756066650086 0.920498640494092 -1.6214268707865818
Ni 6.731370720213641 3.1370009978233315 11.666098535882522 -1.046808454167636 0.7419344975015222 -1.216225897663931
Ni 9.039716287551354 0.36955040301985864 13.091537327217347 0.3059772170326215 0.41232807108573505 -0.4957768237296945
Ni 2.5187435327101895 0.4433131159593051 3.5616277454395693 -0.6421684957547779 -0.6970790317497285 0.08198296673171042
Ni 0.41125044083748497 8.439090973735306 7.383696285656657 -0.2606401836587189 -0.86083439186424 1.0262920793818389
Ni 5.467906438741694 4.351475738928248 6.747934734345316 -2.236686200855341 0.6627630320766779 0.4587477960008551
Ni 7.120985583401629 2.4899010452199963 0.2767087743689938 0.6647160420379906 -0.5337224497355324 0.258225146459323
Ni 2.4315200642673567 3.214174140026821 7.417639104911524 2.7680720320378973 -1.0057204258780745 -0.8231746725299371
Ni 2.043325053262766 6.905984698532648 0.7503129982487426 0.08753886355293311 0.45646517061426545 1.928469810079556
Ni 7.172907628931754 5.7121859748434805 7.784918672445911 0.18054389242676006 0.3328475590609042 2.6972198851120255
Ni 3.8981902493984917 6.117586253482183 2.0283590688433857 -0.9230070087382427 0.48584079556290516 2.277001869755253
Ni 1.2003875802265018 9.278167933645468 1.4234148059675125 -0.44601646447711574 0.9144102682081672 -0.5105372698683208
Ni 8.541904975956621 1.6747017301979497 4.855901891283279 -0.6253478246530133 -0.00797993288168303 -0.4226667340075818
Ni 3.7696982668408303 3.8485696636166185 11.226084488231699 1.286732745435242 0.4428414091832438 0.3850890328641239
Ni 7.30383099235249 0.25081178415337835 1.198388651074189 0.05084793588980275 -0.12620928353993746 1.202837135061851
Ni 8.321391723787391 7.647630102406924 10.906641875174293 0.16097214094241954 0.9689487655756797 -0.6580738541311247
Ni 3.882386273788518 1.6044700875577367 5.796043558404494 -0.15188637659106746 -2.3098932211666345 0.01211992319198558
Ni 6.398540664281924 0.02748017180050187 4.171501586614925 -0.3360128441627632 0.373932244916356 -0.8800317907282973
Ni 7.8732288382134215 0.852663924496519 7.399846408236832 1.0111449393277554 0.4853360880123448 -1.9893121381779098
Ni 2.4478901247347635 5.514993562784564 9.03251030571862 -0.21759965962847685 -0.32806376451901564 -1.4694350789659016
Ni 5.711183726243435 4.424157322590794 2.5601753762265074 -0.23037932789164842 1.1238096514140388 -0.27788457256146337
Ni 5.224044506223259 8.977985197852266 7.127193956674132 1.325368455529569 -1.3303039451579735 -1.1956416457546764
P 8.938368537911586 4.964684840722643 1.0301779276999163 -0.7386020906941796 1.9294260033452384 -0.11182267580096225
P 0.8214475926369592 7.5634876204012675 5.372587956837569 -0.7570145317630963 1.055346059325002 -1.4152066566396402
P 8.880136038233026 1.571562925189582 2.569410911474333 0.1683206108876908 -0.4853031778918803 -0.20274665377604437
P 3.3203660912334745 0.5068417570827334 7.649815561159801 -0.8742861464937716 0.014494336961433102 0.06531553337835849
P 2.0966112704985087 7.615938630470306 2.7161410345289303 0.041393732455438384 0.629088008421736 1.6138667990511368
P 5.509137832538003 7.1290035722019915 2.951291756298638 1.6187670645662315 -0.22683943305918997 0.2424725116107566
P 7.2768630809475665 4.5101187002039405 4.16469650422221 -0.17227959553543878 -0.501698074310136 0.783290948961122
P 8.927056120842556 0.09491294242429181 9.408428699380618 0.0816608075056013 0.0034015694823812384 0.5867432249069379
Ni 4.900847172947534 5.687074079364567 4.792526371473747 0.7962927605374286 0.6135927409996143 -0.8559135575238549
Ni 3.7228895451868618 1.9874032934120893 9.290547559871955 -1.1156592543927624 0.7939093479069166 2.064334871541703
Ni 3.942901673056069 7.614917821711001 12.881159778020056 -0.3215791852359365 -0.5532486926939182 0.922739614009469
Ni 8.402017055613259 6.059084631494352 12.479570828085416 -0.6482774368659933 -1.5761597714186661 1.203599467149172
Ni 2.954183429111361 0.08012977557362333 11.14668227090107 1.7019093417133657 -0.6625000082232784 1.237022265583992
Ni 1.561215636402077 2.546268248892916 3.9124592998376557 -0.7476035228618415 0.07278613072379078 -0.2709747328155075
Ni 2.4279565136894177 2.4632672166817553 1.4156325311897533 0.3282553117045314 -0.5333753508087589 1.1314429995895803
Ni 6.169118535667846 6.743082180706763 0.8167537283600804 -0.7495393064319738 -0.598432231209092 -0.012718733118249061
Ni 8.546322293860525 7.397234993828935 0.825725709346412 1.0236099045639855 0.10201700256445012 0.5501194030363171
Ni 7.560852077786334 3.529362764581814 6.435785335869165 0.5355633595990131 -1.097973149966909 0.16439865012546526
Ni 3.3949872115387008 3.646718651583417 5.191317377399928 -0.6273789961504292 3.0597803978563305 1.862413027659799
Ni 8.651920319970856 2.4836741117882335 9.864604933715135 0.06740429758658714 -0.22038005058709143 -0.2557226917524435
Ni 5.005359429741149 2.728965176569696 1.1068490175954202 -0.8438154887087402 -0.2901695605764035 0.7817338888866472
Ni 3.345422306234608 6.96462552171493 10.662988744447533 2.068809105262973 -1.2207338128366136 0.7165975613986304
Ni 4.169864580568184 8.16096698722273 4.190476565434486 -0.4174427666044811 -0.41763097135588717 0.38152368411036874
Ni 1.2617753069792776 7.585444288805964 12.519557763203336 -1.6731978327112862 1.6392952664265703 -2.8444713340342433
Ni 1.7255658466502495 4.704406447338652 1.2041218842696335 1.212782676310337 -0.6254149304455229 0.6787514370851343
Ni 0.3780221877141306 4.217090905805505 5.359779590932175 0.05954443522253616 0.04040154374549817 -0.12958617043197038
Ni 7.018988228187757 8.403028584292935 8.880144390304695 -0.25128753879922533 -2.825695081868005 -0.7392312396377463
Ni 6.458573499408713 2.5386214632777553 3.909702188179568 -0.4148922322684855 -0.47152360760928475 -0.14171252138185916
Ni 0.8852175158307688 5.575536802291006 10.859076827030474 -0.14110188438105375 0.7620613501583843 -0.2920050711232455
Ni 2.79002810053542 7.963199210226749 6.429483233792397 0.003672049534948514 1.2512180974684 -0.35156621851633
Ni 5.042321986907635 4.931703437717449 9.509264188624808 0.3957526832255571 -0.112807922532367 -0.7733245817770295
Ni 9.226598531141287 8.852973245155873 3.3681065328823006 -0.35447413619174434 -0.754584839275681 1.3592445394517236
P 6.4332017617001584 6.582972966849524 9.964815873600221 0.04961483481365004 0.15981000231351833 -0.5754126303854671
P 2.1825819281912855 3.56430226438895 9.865148746381456 -0.8706580628228812 -1.329235394684143 -0.1755479818740654
P 0.2574656012481236 2.3779368844834523 6.755935090994381 -0.3301946948190894 -0.6514172680465555 -1.1855207552705904
P 2.9133603588187746 4.212794228936792 3.180819677820498 0.03678554425946568 0.5009323997887051 -1.0515498255073632
P 5.1823491084454485 1.348312049529487 11.113514338295314 -0.8213828707368371 -0.014238769307201285 -0.1542494775066053
P 0.17410078991546515 6.084159406654745 8.72405530694319 -0.06456785657905653 0.45173022703244137 0.7061426846138935
P 6.5398577168883145 3.4518648195912727 8.61682305881001 0.7054675129237399 0.5863321055114482 0.6985818415475
P 1.961883074429454 0.5549450498450937 12.9812213086231 0.29163766048149775 -0.3999579795561563 1.3264244075979092
Ni 1.2174907669846826 6.066211732650229 6.801422329309031 -1.1483073794450869 -0.6437471530958074 1.2334422615422176
Ni 6.7916262772515505 1.203617047937759 9.310636148247124 -2.0590296572787055 2.315126444541116 1.8701970424805923
Ni 4.116188599987979 6.971075177057814 8.15354292351869 0.6229068193116885 -0.4768090243779401 0.1954748027049795
Ni 1.6682613549346954 3.83756348917538 12.205275802428199 -1.5139434457909218 -1.3548340690888536 1.0110878608375748
Ni 5.2366097340423465 2.0057128905221764 7.62892610191256 0.7561673532714526 1.0447286888204719 -0.019466850475360023
Ni 7.872736993993029 8.097342761279112 5.6061768412055395 0.4853281175925448 2.1940315994096085 0.2502344149443626
Ni 3.3986435629129406 2.245435907525609 12.964012328957137 -0.30605537856872456 -0.3394648072671057 -1.056376300361729
Ni 1.2942741458437101 1.5064260462662662 11.086322776971304 -1.4148359035637827 1.6316439205288995 -0.2698915270536578
Ni 7.22290869797846 0.6040246069845352 11.61296358394475 0.28983788826859763 1.5606051115135189 -0.23726242816472687
Ni 3.507331855540077 8.849586016090905 1.4108514341643519 0.9909131856619128 0.1014719286942575 0.6724131535719322
Ni 7.600710019797395 6.278447153789457 3.0307348059796375 -2.2943856124493385 0.5931648121625656 -0.9417791471394233
Ni 4.948286940016346 0.6398141620857832 13.506721593810012 2.024432121809494 -0.6636477486744764 -1.2720838851738157
Ni 2.5112823486876303 6.109438343567 4.761382424235301 -0.017000648323054594 -0.45872491318271963 -0.793538080610427
Ni 1.395074370785305 1.1680557827954101 8.557319188222133 -0.17312137471044378 0.25674650503126745 -0.2224968398197781
Ni 1.2624713129515313 0.8550090006190325 5.788465445378597 1.645807356513475 -1.516085688944905 -0.2538650697184144
Ni 4.490500611866016 9.035382490364121 9.5172914575048 0.7971142279974593 -0.06416882136842497 -1.373363495351609
Ni 0.45672283102472633 6.195705963807937 3.310449398140804 2.135277007078219 0.3096358968311313 0.3385075855601589
Ni 7.901263958775801 4.921727352115145 10.184536606969047 -0.38138175921586576 -0.10175732114516023 -0.46645519194744184
Ni 5.666147499798806 5.643485545342227 11.765398171947938 -0.0291424258919111 -0.5465375992223297 1.0585460543195384
Ni 0.5406388790874097 3.7866808125638203 8.143926905006033 -2.4774234749425466 3.2554778580950776 2.548913512562733
Ni 4.137319341305601 4.859857061221606 0.29588327490060157 0.481447551591216 -1.0229427032936318 -2.273827842902645
Ni 5.624897545843238 8.10849741699443 11.349982831372486 -0.23329213066306917 -0.12173196449487421 -0.3330918138612263
Ni 0.121890133908845 2.8566683523588035 0.8015316137429106 0.2760871143414084 -1.1650925693232255 -1.3004128140254958
Ni 7.614045494225776 5.989177791641191 5.679766016655904 0.14954153050797472 -1.7369498782572665 -1.6395760308917828
P 5.37279490261332 0.7674746495085929 2.154049395360736 -0.5072110337085651 0.6159784676229714 0.5717562645798024
P 8.780588624041489 2.629009438874435 12.021670354955637 0.5600094084565194 -0.6592323932156001 1.118977263022402
P 6.385279430490583 1.482446320502219 5.9042270146997575 -0.1503110616841476 -0.64340031127935 -1.4065237841536615
P 6.399867715669021 4.534478909232819 0.04845779180422822 -0.8142750560474621 -0.0571615368126564 -0.15584793234197675
P 3.1648876371116295 5.181022057058351 6.794033529907586 1.2525738401653461 0.3568961153696757 0.1453182364552465
P 2.548439787526348 5.752229518447144 12.572175814705716 0.8543814371500447 0.03203723094120289 -0.8698049707939665
P 5.584464238895113 6.843733924374278 6.505938097832521 0.9105338159718964 0.06338000691854247 -0.19857889555159994
P 6.937240006726654 8.313086052518496 13.005303115263079 1.1524013470088024 -0.9185086066472568 1.0147601674828395
