# total energy = -340887.289457059 ev
CRYSTAL
PRIMVEC
9.10033330818971 0.00000000000000 0.00000000000000

0.00000000000000 9.10033330818971 0.00000000000000

0.00000000000000 0.00000000000000 13.31925767232448

PRIMCOORD
 96 1
Ni 5.775108026796742 3.370490510435972 9.669141632284777 -1.265821963424504 -0.5552549244906696 -1.6185883728965222
Ni 4.458762989797141 0.7230005641006668 6.7006392425617065 1.2625245236201545 0.5537564855682721 -1.3573491222012237
Ni 2.9225265949562877 1.9931641387968706 5.234188755000811 -0.033483476469426204 -1.1286957758617464 -0.3558481337211355
Ni 3.7780944469384616 2.6709114746089475 2.9076602901857926 -0.8147584234417838 -0.6713394608917793 -0.19503822938819315
Ni 5.07417304128142 4.305931989359034 12.101358640019175 -0.5050078554096594 0.4730361875990692 -0.4185375423305566
Ni 4.942454814513458 4.548710685898739 2.887908016370685 0.7324034180826354 1.9168687355055178 0.31700673537390567
Ni 3.6901488242021356 4.6976376432745655 9.86277761800718 0.04727230272340246 -0.0881294459490805 -0.08575580351058135
Ni 5.958079331715677 8.396968703956519 12.748887408482508 -1.2032374558240633 -0.11312416822120519 -0.35403242066863544
Ni 2.293629849256855 5.415963366067321 11.826528568968154 0.5115292014679448 -1.9862993194935146 -0.10043988788531734
Ni 7.985833838064366 7.87026870322076 8.815098086160253 -0.2287962996752447 -1.1092453804466187 0.4271067720568064
Ni 8.078538935209954 0.2906883121706728 6.893701907274961 1.3383252728005532 0.6323916188736722 0.8960263663843406
Ni 8.633677478066058 2.645594346871731 1.9365000023595766 0.21636964387611768 -1.7376520465306138 0.8735418121285794
Ni 1.5359815855034549 1.3482599065087384 2.803863706596596 -0.07263597829917169 -0.139586733288108 1.5916324131329684
Ni 1.835637366283852 6.428757679557724 0.6404887504843589 -0.2008466085398541 0.8389879854131098 0.5068801327317077
Ni 7.74654056924693 4.013674779696666 4.244408274844215 -0.08203567434651679 -0.6275949688159772 -1.1754232618252725
Ni 7.458369409316414 3.824415144344081 0.04648723350827571 1.1357573106942183 -0.32620922780878014 -2.1006311348695754
Ni 4.557073892365491 0.13459484218051967 10.522306996228625 1.6073243699469286 5.204487182888882 0.25358301970162134
Ni 0.6694651223132847 0.35817638524730744 0.8153853295078107 -1.0610359106209275 -0.1652265453433993 -0.9093889037341758
Ni 2.0051674786550264 6.574272011879108 9.674656434372755 -0.4266331748544975 0.2221865076682109 -0.9753783232511073
Ni 0.10720738857694201 4.84663740331822 1.7604995528851815 0.6785084678363927 1.6052158082443582 0.6234452083136618
Ni 6.381809059142087 2.424856658016978 7.3440255392256235 0.36230005999406634 0.058680544560344106 0.13185414053054065
Ni 3.4761908837888726 4.34707459701538 0.8479881842279229 -0.7489932041205165 0.35147160191999466 -0.6202665534753641
Ni 5.8796890591317865 5.882364557174468 5.0904207766739535 0.6032602487253546 -0.6944850457703071 -1.2856737080431082
Ni 7.084090894012229 1.1060181296442646 0.6329209131636296 0.7023456794653066 -0.6211762097738269 0.3900214371687347
P 0.06317542504116845 5.330301927034101 12.888592997944562 0.2125728958378468 1.9424329571278673 0.010450505909362647
P 3.971394630355505 6.254176882105977 13.020293934078914 -0.561246366187414 0.2575926550816467 -1.0541332699638233
P 2.2247312244910513 8.40172817836578 1.8316377697200468 0.2623448250546514 -0.10727105187453785 0.7843224755494299
P 6.461364174411227 8.26454975151071 6.228497561096314 -1.4866265031435237 0.0007440772548761379 -0.5453394651491705
P 4.580570953407006 1.3101477099007361 12.725019053835073 -0.11742510958940423 -0.4022262067650428 0.5729754816988842
P 4.008915305287405 6.482294941411801 8.559634434784853 0.8894055186337134 0.086250997979445 0.06644913276216942
P 4.919512873814133 1.3101932115681283 4.130248231489691 -1.075850607036257 -0.9056505197376661 1.0817723718373304
P 0.1541487287257954 5.7121337191254495 4.022069837330592 -0.08903653114438215 0.33662373827388475 -0.02301317306572166
Ni 0.744683928679914 0.17580570233795492 5.135452866859015 0.5889183781813857 -0.9926365961109229 0.3209526073955311
Ni 1.88532518707652 6.8922376636182685 5.009413248181643 -0.375337867014631 -1.9609965790626682 0.4937392244743754
Ni 6.970700738869986 0.8839135707010392 9.526852458148177 0.13825413051961352 0.3207649168647573 0.036298063100085876
Ni 8.379496063677777 2.708577754876503 10.48316191177081 0.8122423418881495 -0.1427882709445412 0.16595519597930775
Ni 3.3660950493658515 4.343061349951357 4.8998616137006366 -0.654883372218285 2.3218866460830854 -0.10369721848035045
Ni 1.4934466268248965 1.498160599566765 7.364777029656671 0.19057813673431048 0.020193187118423286 -0.11105622994858294
Ni 1.6085112433271844 1.1503094526841755 11.8936307879053 -1.2195667891117061 -0.6927757763886843 0.7248022086966098
Ni 3.98340707054714 6.8044922482184695 1.8981011452470011 1.3547132272402735 1.9499953428561576 -0.5144803136764687
Ni 5.554161030271984 8.166675664949329 8.463349266448818 -0.2528715954568935 0.6992742396288344 -0.9883060870563689
Ni 6.860586703780008 1.347076863156532 5.117285871135865 -0.1913327555121479 -0.8220734690459583 0.3733694304343505
Ni 1.0162615405457145 7.744684101217314 7.317960364076473 -2.0585159508670805 -0.6596257719992769 0.8141092198935593
Ni 5.078823311688939 4.845126747960787 7.338750985941478 0.3821386919865484 0.05837226929130592 0.08717839488972083
Ni 0.745826930564815 0.10018011106483611 9.339037045718632 -0.4253314253239385 0.36770169062561187 0.25050206678345244
Ni 6.396533398710318 1.8492878665016181 11.824703952105713 0.41895714636647846 0.8372468343522871 -0.8552908363381915
Ni 8.064478919985655 7.626862083671037 4.709529959064283 -0.36464464896684295 -0.5747351447024682 1.148355716184519
Ni 7.287556149924769 6.412022166290742 6.875387486149458 0.5779027437971725 -0.24588822216052492 1.8043037822218926
Ni 2.4407185392700224 5.502016119440118 2.8385468975498958 -1.524531248609097 -1.1063027528785268 1.402999573050487
Ni 3.5077508402923474 3.1591079643971276 7.918032713516071 0.43456502810706443 -0.8813911329696691 0.048475321892568125
Ni 1.0798637712270251 3.696273348633173 4.170273318194877 0.13890307695752208 -0.5527725243884479 -0.23375004413609418
Ni 0.8015764834875188 7.133806015805332 11.849570613335743 -1.0295992893782009 1.8217829128432625 -0.26935828025800707
Ni 2.613806882031294 5.643216893692688 7.156770707338354 0.12059373712537295 -0.026619402359741254 -0.06463059149619191
Ni 6.497656304323527 1.9525038488148854 2.7906108909518417 -0.9097066920849107 0.8898755162915964 0.23471009405651833
Ni 4.34628286800275 7.240216215169556 6.259185705652548 0.041787111239115125 0.6651780692760738 0.5855929133525786
Ni 0.44449304829098046 7.4843963630649535 2.8950608784847947 1.5208008350323874 0.09317266479994277 -1.4797246338173675
P 0.1620851295524045 6.078358439301152 8.5160802387567 -0.751211551928074 0.3185316566588643 -0.8345348347377627
P 8.60640377863096 1.9707773184397346 8.381436254775396 -0.10133128935133516 -0.482265419506821 0.27608942833425354
P 1.7236850638312147 3.552870293678803 10.498358558646576 0.19026754747242713 0.0183209097963749 0.9567833338577393
P 4.144446571782863 6.61379476017628 4.107912373000034 -1.7330009209118475 -1.5087547025011305 -0.2546852516268646
P 6.8947948573257305 4.215884189589171 11.097125920265356 1.3375261739380255 0.8693347160257673 -0.009249543622726005
P 6.531673350866201 7.922659323056545 10.613370393214689 0.29626101818612205 0.3553434261705751 -0.3763513958808099
P 2.5351618001100054 8.591670338729251 6.3117565120912085 1.5358266190172583 2.071386636182162 -1.0735618110020801
P 6.895413680002268 4.036962533068174 2.0254857932124968 -0.4380481015596585 -0.2223294610039784 1.3761022344390108
Ni 2.7874958468021473 1.8116761882349337 0.7372753471950585 0.5889646580382889 0.11154962464523369 -0.18113036105784933
Ni 1.2528793113204686 4.138385749686175 8.530145714181087 -0.6659164901039951 -0.4627741435514288 -0.46037941806700716
Ni 8.33262024592997 8.99556133917251 11.635290521117343 -0.3922721808761244 0.3189746577335539 -0.22889580136758644
Ni 2.5769960331107185 1.6071552936388867 9.829239249005475 0.8285745033892697 0.8307650832826854 -1.2439228493585675
Ni 5.320646473213402 2.9429841446159792 0.7912130237221909 -0.23256682246127044 -1.1753255599051435 -0.008881618760345995
Ni 4.062825680814101 7.286191099902992 10.76692851029773 -0.25657886910515165 -5.111895844513706 1.5592791936132437
Ni 7.143479670292989 6.195789142507852 11.902288845176754 -0.2044340687807963 0.4072236599796341 0.783560657682741
Ni 7.763904005523928 4.3544458671329735 8.416372434999397 0.12244210318802137 -0.2845396159841358 -0.29191405407133597
Ni 3.3196742482919688 8.732334193306592 13.299905320339544 0.335824382301041 -1.9132447655996856 -1.197942268863395
Ni 8.86480774775327 5.261121191930464 10.553433776858522 1.0504604490979264 -0.9073052817322697 -0.316141559160133
Ni 8.727483715562546 2.8747316435271495 6.403126590315499 0.2912946753197822 0.298490421737273 -0.7921363151668939
Ni 3.270022828833215 2.841133212324489 11.856123763473619 0.16709676578291868 0.86050631910086 0.1115244278342531
Ni 0.8754830217665469 3.3697442830907343 0.06098315470619525 1.4948918284761095 0.2334047449815335 -2.090218681287
Ni 3.1961372213211874 8.867091931456375 8.369915232591602 -0.9180694622273091 -0.9898993996854178 1.340356701408285
Ni 5.781214350560823 8.02742236206116 3.7544590608280743 0.417130634680701 0.5113445962609645 1.0792033255585736
Ni 2.8711461121366164 8.582187791244644 4.045098231197963 1.2313930923226728 1.3959912600534536 -0.5213024788046248
Ni 5.280486701572734 3.2811616370109116 4.981255906365783 1.3440572901883239 -0.434340056580452 0.7465087471357659
Ni 6.064070915739889 6.091708628514127 9.424014139674268 0.3684264846067784 -1.3625594627575697 0.7593845746571696
Ni 8.033110070485229 0.16029964412392073 2.911110226607496 0.07473656958194225 0.4734668473785846 -0.4477337042785386
Ni 4.327781890040938 0.2231865885938204 2.352061270455676 0.24623300709445337 0.5933406756187974 -1.9286508157421107
Ni 5.7208245375974265 5.493616511639453 0.7227211838628765 1.068514735496476 1.492797664951242 0.3729423701992609
Ni 8.067846043372704 7.707582041625426 0.45684129078797153 0.3806669925370283 -0.7371345050097176 0.7683559249178444
Ni 0.37413746013526716 5.412741848015929 6.225341565445968 -0.5124121182935304 -0.9438272879177035 0.2957689090410519
Ni 7.370924304921404 6.0489461614986055 2.6525697524830094 -0.7832544392962317 1.3059111181359058 0.8558333391052229
P 8.858865229991803 1.7695962462303005 4.3343932823130755 -0.6471456372543952 1.451878815249693 -1.4805363310853858
P 1.8716382855248401 3.3732479114799605 1.9370860638355925 -0.21678821947077503 0.41827477558747317 1.8070173244983136
P 4.974242279353895 1.5311675090933228 8.769825747171359 -1.3315355035722294 -1.0530829743224381 -0.18247839044531156
P 8.73166986896266 1.865004142419006 12.610500457341494 -1.5419648707045122 -1.3883345148391446 0.01165506774042509
P 6.22305374160947 7.890162032204784 1.6699020929732171 0.5648394828553112 -0.1699612318149073 -0.6587210007968204
P 1.99261811878816 3.611995160288686 6.386250931912948 -0.7959870563715516 -0.2985210178648923 0.20590036891367763
P 6.943154029430535 4.285747449703697 6.173156613146796 -0.33281439183012357 0.06675843647247212 1.6243291320350415
P 2.3093370248407643 8.535220970162051 10.69536439785607 -0.3829015382945018 0.5541012705022005 0.42549289060246726
