# total energy = -340862.21935875894 ev
CRYSTAL
PRIMVEC
9.40565529126347 0.00000000000000 0.00000000000000

0.00000000000000 9.40565529126347 0.00000000000000

0.00000000000000 0.00000000000000 13.76612725697223

PRIMCOORD
 96 1
Ni 9.759684371256412 4.922205257992552 2.28161168342556 -1.5092085022090975 0.6400141684159365 -0.5302522317987449
Ni 7.440447244141002 5.907080850875084 0.9001419236294433 0.9669918989596249 1.7233173750754966 1.5678422526919065
Ni 5.911341612815814 3.9408379746108864 7.448012212858285 -0.16209802701674667 0.5273476565574402 -0.5040028111839125
Ni 7.272180067276409 0.9886660720483469 2.0301872251693927 -0.9295484094011862 -0.9194791980906423 0.5208404515665417
Ni 8.10542708787084 3.9167877135017317 0.2339233550704798 1.1569298310067753 1.7263818729334333 -0.6220161891766192
Ni 0.20544961418047503 7.833293257338515 11.055907853574784 -0.16082713072412302 0.14652794049263151 -0.006001211888757406
Ni 7.788202544879663 0.5918602778860501 11.790826270458885 -0.023749279900797806 -0.17517054392998863 -1.6002047281830116
Ni 4.051128690983957 0.6295995300074306 5.429828485235824 0.5442536882841594 -1.4856859936071252 0.4433250336878817
Ni 8.452081926916199 5.0606847238940285 10.267466554077608 -0.35048866918143506 -0.6316277441244541 0.011499258888851163
Ni 8.016976303564823 1.8574946873928484 -0.04790206288729404 -0.005225767175313581 -2.5472728916355165 -0.8640289875421376
Ni 9.07670210290283 5.804446338077629 12.469165907258507 -1.655152288063485 0.3742343495378071 -1.587927967698188
Ni 6.95036556440206 0.42849720979827005 9.188821278704769 1.1868050212996528 -1.0040566650224063 0.5331989731318946
Ni 2.93041662139497 4.831092673180516 12.372954516600842 0.013602678385099154 0.5536731818258465 -0.16855586682694843
Ni 3.755226769007426 4.756204844103048 8.032094954212791 -0.7592503630721505 -0.10699362984343509 0.4323649351319521
Ni 2.6649702119219367 5.397632926465142 1.871642674393392 0.21731169607441286 1.6502363388191064 0.19159757913776035
Ni 8.983746009613126 2.502158315246357 1.977861682501248 0.6451954555065598 0.34684387333999617 1.6246739169689697
Ni 8.183287104085771 7.166846131350942 8.885182264515338 0.8994621315387671 0.6523184397045861 0.11365921478906878
Ni 4.4174977839537535 6.346023981669767 10.864035303106105 -2.063023351819131 -0.22596474376372053 1.3404482326808271
Ni 6.805198677441292 2.711904432858456 9.314396185262577 1.2171748918407617 1.4981167631713102 1.2284777184480906
Ni 5.902142881738476 8.512042980717863 11.771085680699052 -0.14139936101681452 -0.4620238956489655 1.226628581054494
Ni 2.209802325392686 6.092391075502598 9.51703350844906 -0.822180684047784 0.18788490617286352 0.7685914379674182
Ni 3.6177819252107626 7.545301491636055 8.365124760703313 0.31295621945361585 0.3931862080499615 -1.64428089256662
Ni 5.681401552848865 1.5004560046773658 11.009253921172116 -0.08534416989445948 -2.6560979182607354 -1.1611073594232326
Ni 3.6143206439873876 1.812639116321454 3.3267220346847575 -2.092279163360455 1.162058153372276 0.7372867143168658
P 8.2794129032784 4.624262308772891 4.037136837864685 1.0659904264127253 1.2220880128716631 2.136844608675655
P 3.426395647131346 4.179007983138848 10.19129861528682 -0.3941943375995018 0.4010285869125158 0.6038665148507858
P 5.401639735707417 0.43549783918565504 13.979778138742939 1.4150971276449693 -0.7351349580811856 -0.18145123473237781
P 6.1237965592114225 8.663934911359917 5.034988473072672 0.9286377246614588 0.11736597421669463 -0.3321708447088537
P 2.445169448582155 9.288555087346548 6.902680772156778 -0.10487529794885164 -1.003179918844408 0.2614295123292336
P 9.180644001814546 2.7355690620921798 9.779911233405508 -0.12113315456861072 0.6751053556921147 0.627778288471377
P 5.17173729836246 5.238940706897817 1.026600961804092 -0.02229095018771645 -0.15600039875944102 -0.5609743434729499
P 5.18723781862366 6.060562337296349 7.0465506192243295 -0.10980641670188185 1.137692322933402 -1.1998662253589851
Ni 0.5342901417120531 3.241000771604347 4.257202840689518 -0.35448416349407336 -1.283485442142538 -0.42510619668700983
Ni 5.707144831947713 5.395554276600017 4.752053187766098 2.0181226346516987 -0.1253775316672615 0.37246825877631984
Ni 0.7004683224904745 5.540834031426765 4.802038603346266 0.11025455998289398 1.2772677433676003 0.023484970495817617
Ni 2.744203453839619 8.143764539681912 1.4933904762670425 -0.15438934551857927 -0.5713454022946289 0.935668406255995
Ni 3.328379311183558 1.9404243519213629 10.260955018776134 -0.3634053772431031 0.07641267173278453 -0.4362953805346098
Ni 1.4881440016300906 3.8116418906862317 8.944499971480917 -0.40442527129889055 1.7661830640907712 1.1641111792465628
Ni -0.046590914510830965 8.19950245416484 6.622759999437409 0.9043731956871393 -0.6709743642428766 0.17986794940565798
Ni 3.740939578305508 1.4584033189444647 1.007912864894519 -1.6229175963994953 -2.6637384655251286 -0.7053708394448756
Ni 4.574976673961796 2.834535369245296 12.300682400317452 -1.58056664223711 1.347624695824608 1.4878315791952184
Ni 6.3760280227093435 5.131932564293654 12.803145684954355 -0.7950221213551211 0.14959063857835528 -0.33625761318371766
Ni 1.17857566221453 7.775899947487885 4.223365054468832 -0.07658647830648746 1.036163829969596 -0.3981834041542368
Ni 7.804747092901173 6.814143455820177 4.600708666274047 1.6321694540150662 -0.6873890581554742 -0.8178751146938947
Ni 8.374663976509689 4.088168162336263 8.00779732436403 0.5844305176133612 0.24770419232334112 -0.09399876024566392
Ni 7.000949179671921 4.3768465408900985 2.6012610044041993 -1.665462154629925 -1.2174376585838451 -1.977268576749814
Ni 3.6040026399057528 5.058267470430965 5.3598419432385205 -1.3817224088392654 0.024743011272634806 0.06174915618333881
Ni 5.0514295588837 2.735860637412627 5.736207366871911 -0.6162862286713774 0.17950208142580698 -2.291080716445822
Ni 0.4644644364237707 9.52877552877314 1.3759476994530648 -0.29736325011136533 -0.3588177578724207 0.8192930780873439
Ni 3.988336534877303 6.891994066379609 13.28286797572747 -0.5132541545788516 -0.3933381602467936 -0.05760942298335239
Ni 4.384389876599736 2.0342363598614113 7.941541065337354 0.00447294816968907 0.4975987074297818 -0.05561270426829777
Ni 0.9106988313607356 3.6829537121584863 11.651416585228626 -0.2219797909740435 -1.3125417360785459 -0.8945844917314916
Ni 2.05886977161146 8.552120478796121 13.108093025823601 -0.5215670453199212 1.5406428094589788 -0.7121649795485735
Ni 4.876051706462392 6.760747549556325 2.579469041180187 -0.03416970390317341 -0.901087582957332 0.0158387668044695
Ni 3.6383238768190505 3.6026294142030006 0.8008473590994358 -0.9445348555076895 1.4420841977567747 -1.2185995401024303
Ni 7.168689639828609 7.236955887435274 6.696973443015649 -1.585195142148057 -0.021211086859976375 0.8889524902566949
P 8.762694294092071 7.344979840833254 2.1513151378076047 -0.39792192296273404 0.21376305949120605 1.0373611927118072
P 6.814952342193029 3.0824402312139996 11.736201985586955 1.1694886415083923 0.09053651272867634 1.7624349099022485
P 0.009049181154914803 0.11143726577831316 13.06819893802756 0.32727932094450735 0.14219357478333577 -0.7629478665283957
P 2.257338508281096 7.154929165834596 11.5469724243133 0.024492071604093304 -2.2885669488850326 0.27441049796993383
P 1.453427727185864 0.6230644805672115 3.2658486322997575 2.744649796459215 0.014376837546962336 -0.21364761695926432
P 1.9189982686962348 3.445103495917466 2.5911978935865676 1.2457879275917643 -0.9296813354346246 -0.7239984818483918
P 5.77190277005351 2.002896715741074 3.297510890403686 0.03652303462669839 0.3525825755959863 0.36960816361970533
P 6.880726091092645 2.07021299214241 7.3165728800972865 -0.09730417046981306 -1.3378264787872636 0.3448746654287673
Ni 6.848427070111482 8.001353509782145 2.9196170477518217 -0.444745311074176 1.2770396865171942 -0.543496755513477
Ni 9.330062245060548 1.1163572510932729 6.709403957322203 -1.4083109579610713 0.6933902700442317 0.7620904036241068
Ni 7.1358450908285445 1.1795632560418514 5.455833241557524 -0.78623846162522 -1.6355987914115895 -1.065565937280797
Ni 0.674849198044204 6.996885936496654 0.6104524371095404 0.6093712467190989 -0.7788151725779555 -0.11179027990113005
Ni 6.381652604697328 5.617424284149425 8.77802645311985 0.6523156114911088 0.7148301850855624 0.8221444314932098
Ni 1.7094214528831055 8.836754425485688 9.115916161806343 0.11806197184245473 0.23721383431497858 -1.116121795851478
Ni 3.4622782228573623 8.638549047170004 10.761215498895336 0.5012769276123173 1.4618456966544178 0.41825420676218295
Ni 1.8925213484685193 1.938355107711737 8.001919730243143 0.2329892547106697 -2.582087171101224 -0.7093565635655009
Ni 5.588558327425141 4.509607368248609 10.692605944862983 0.2877604369142786 -1.4073113130519634 -1.2135714907602198
Ni 0.9717076751849113 3.974265674251846 6.444240658079668 -0.13313840655960296 -0.5313513784001945 1.2829313694112807
Ni 9.097817799496514 0.7088243068351646 4.202178815458911 -1.1189746919192405 -0.19716633147478946 0.41046710661759633
Ni 5.963524189520385 7.5743649671258035 0.5134077053747267 -0.7341617955346388 1.874599542423662 0.2854413018627987
Ni 1.8360121702347303 1.5435715294815748 5.538664146703307 0.18255758042267914 0.14284894897914752 -1.0928684817504921
Ni 4.4006334436453 7.475314009073203 5.350026201160493 -0.6422433148567713 -0.38945810846609696 0.17065774366129965
Ni 1.0949781961456362 2.4911631039688436 0.21344348078848052 1.0865751925426126 0.2826701668755648 -0.573107122180742
Ni 0.9207026865487279 0.9010044222386374 11.01924837070461 -0.5435949716542381 0.43695872515022166 -0.1467040610591796
Ni 5.777038257955582 2.6174622460000214 0.8026297308163639 1.1058021590930247 0.11056669190667408 0.17333760448630794
Ni 5.477769111310661 7.680178591481682 9.569936558364802 2.7541865323050563 1.6376893553920313 -0.9116666440247589
Ni 5.588868714056585 9.294781631286423 7.464655520262528 -0.3421169001779721 -0.3595944881374452 -2.2220064873559795
Ni 8.087236550137128 7.776680616894245 13.157485885107377 -0.804733177995298 0.6748297334332249 -0.414113445120932
Ni 4.6492625410873725 3.9869068752415613 2.963571557026479 0.04982180861813355 0.44646974996445044 0.3121136689476625
Ni 4.3096901606322335 9.128687160841936 2.8806719905955593 1.4250755790139198 -0.5981614940462084 0.47923588865187783
Ni 7.5425174176085585 3.4269599864612443 5.6989844852373865 0.8316140615465419 0.9824699399905662 -0.5099050356009605
Ni 2.1526441569295147 6.693393650532996 6.651269481818308 -0.7308515002144832 0.15297009657354946 -0.08222747864234871
P 0.9253613077170361 4.744109171132234 -0.20590578847214258 1.5931159396570305 -1.0765432622279072 2.223397197055919
P 4.6220990080082816 0.34703482752749043 9.320989549766885 0.06970929157067994 -0.02915528140771753 0.30852209494166216
P 7.126956746382651 6.763992500703239 10.884877295124788 0.07037726417198203 0.08526215170361444 0.2932407433025595
P 9.521156947819517 5.9189037598364465 7.186359104247717 -0.3403778059996783 0.6769889458680727 -0.10107675013836785
P 3.0380737542285163 6.757878824629343 3.626217857627188 -0.9884845216157622 0.05396822668633931 0.665338249003022
P 2.467206899414673 1.801493414555968 12.255528669966763 0.4270887743346773 0.3283260170414668 1.2937935089367654
P 9.041524951339186 9.21869928396067 9.13425248720028 -0.29261699367563154 -0.18968236439291847 -0.015397565501992838
P 2.9604112567790506 3.301554381702405 6.506973558556682 1.0810691751227186 -1.1588982675870556 -0.09685525585785254
