# total energy = -340867.5367860293 ev
CRYSTAL
PRIMVEC
9.28582874948201 0.00000000000000 0.00000000000000
0.00000000000000 9.28582874948201 0.00000000000000
0.00000000000000 0.00000000000000 13.59074900081969
PRIMCOORD
 96 1
Ni 3.705008472570639 0.09627639962420585 2.0727520193667566 0.11781720282150031 -0.10669461054577753 1.6133482075435055
Ni 6.173943155384568 0.3424000727137269 5.484642168829246 0.05982237147427117 1.4148284473646149 -0.9047519191827966
Ni 7.544095024458984 5.657418938884298 6.722799698526318 -0.981955976468625 0.5813372234000181 0.9184826385053279
Ni 6.50474151383141 5.294055179497834 10.738390352074266 0.022684071861077064 1.0414770146523935 0.4547484450334749
Ni 8.981884869137676 4.249297316618518 5.7940348351614555 1.9991154974215763 -0.9725241416317638 -1.0984403194113146
Ni 5.134571073099773 5.306061755892168 7.937500296568534 0.48229344453127915 1.006173711365409 0.030587385868553772
Ni 5.786612672352492 4.970174763366366 0.36746438130118814 -0.3073848960134255 1.4279454443625472 -0.3194968487856111
Ni 5.578740113061254 7.288827595935974 12.254628734026443 1.0849068037012541 0.550513296040626 0.7629234410483635
Ni 1.7792947635142968 5.308568929617203 6.590806287731835 -0.3096832051292989 -0.5712746969576936 -0.43187771108288847
Ni 7.346102586810106 5.5826401610779754 3.968457644683013 2.3013085648214173 0.6726900613824027 -0.059569889143832905
Ni 2.1303640858194783 0.5860035719181573 8.005806851832821 -0.6339137119451534 0.9797234875936806 0.4926182234960549
Ni 5.021664683015696 6.795824383307976 1.8166070800399847 -0.43886545525463133 -0.22342295117847327 1.2950955155776405
Ni 4.230734945224649 4.482845192019837 2.213131461980051 0.3683254402525398 -1.057975783638365 -0.05029489159981016
Ni 2.8386499489704824 0.6375139203904322 12.628985985905757 1.7467491237358757 -0.1349510342883095 -1.4548587238136237
Ni 0.7232165469750182 7.422042093192834 7.890761935419576 -0.7736349139285966 0.8119677480705242 0.7156400825813675
Ni 8.999741517557093 7.677253806744177 1.1511808874270235 -1.2541524975063756 0.38009826451775186 -0.3130058417446287
Ni 5.681264946757964 6.122286090820236 5.30550182042691 -1.4259708371346795 0.525667697751856 0.3926233935679561
Ni 5.005934489348253 1.9565055167312164 2.967267961064779 2.0624661937640805 0.9736217455713168 -0.84944131953595
Ni 7.574041821730235 7.791469498662439 5.289329621317573 -2.05757492711005 -0.8126442053122587 1.7242640552594821
Ni 2.9525684943731845 8.849691813028052 10.193346570160294 -0.8809165073260957 0.7454013730042002 1.7793370849742258
Ni 2.0037332410479873 3.7051941891428632 0.031527245300884806 0.6225419797731021 0.013490064066634833 1.038469338174321
Ni 5.648467400103062 3.3692886249598386 9.654759224879713 -0.5799236308819432 -0.7999619818588998 -1.6161602230710037
Ni 6.799417998980527 3.4979902095116358 5.398463179236904 -1.212350473868925 0.5783989667073006 -1.2130742394088267
Ni 1.0230940247292901 3.088030162153965 10.371045757962165 -0.29506956898118214 -0.6678659005208821 0.01068679028988482
P 7.199748642068341 4.647417932496857 8.650634290837466 0.00685173281451078 0.09315132464370408 0.31030952585938815
P 1.169039393012162 0.7693522578471071 11.093109005023665 1.22255775341923 -0.30873266829057155 -0.19560644318683731
P 7.657790709975017 7.388167390419028 11.052934796119994 -0.13042126473875604 -1.1086558264917359 0.3138054548277886
P 5.138090402143433 8.08551454746599 3.825197738034512 0.3461959553433522 0.08904707266734341 0.1467775946095924
P 6.777577730086888 1.310100415445521 9.30116880010658 0.4215439332570482 0.6333832933629802 -0.326930679355837
P 3.815444832244126 5.382084834732396 6.056296349794453 0.642462372846113 -0.39531405302624173 0.27815376706245
P 0.13149847612950338 3.955865132503309 12.586378889905939 -1.1574275965788001 0.24370818379007056 -0.40806132538958106
P 0.09904450513321675 0.1349277326356346 2.2972712836093647 -0.5951664159736265 2.2630839741225794 0.20954002254879397
Ni 8.500916090389847 9.253625357617027 10.33727319930308 -0.8987229393798973 -2.096104707754132 2.127635945593194
Ni 7.9074402121882255 4.976600556765344 1.5179237598451183 1.3745695998445682 2.4643517293602524 0.17016794850907468
Ni 2.189904818874754 2.4099418136467166 6.020674982658871 -1.2123792702243315 -0.6341124582195208 0.14230798887401297
Ni 1.756785914960649 7.574626828932743 5.214769989066476 0.6064836407586587 0.01495944952330972 -0.05087750357615754
Ni 1.7810590709504326 5.008766667074682 11.64967742882705 0.061594375773029404 1.508569840183834 -0.4676574397856591
Ni 3.893390077606881 3.5194404736036025 4.6582015652630915 -0.11840804232796381 1.0641310046064834 -0.6550782618379105
Ni 7.185838470808702 3.621148154382523 12.727572699688439 0.24767513885761863 -0.005251221096610312 0.8380251072792084
Ni 3.8507216951382297 5.440854844012939 12.849128839123887 -0.4603200255839814 0.28794041413556865 -0.20101090203186026
Ni 4.930877136683595 2.4507158870786747 13.510984630635825 -1.030283202819103 -0.1926681864941198 -0.20455619618095738
Ni 7.117466914744136 7.648829885365169 2.7118166731352664 -0.7365063845074155 0.434268322802252 1.7303681112746907
Ni 7.827089937215158 3.279689664689976 10.648080097332784 1.398615327939862 2.207067863768277 -4.205541099620164
Ni 7.795183830106935 6.958567815548583 8.946599648997823 -0.8629668648262105 0.07796176138745928 -0.32290047515052134
Ni 3.6732323670629725 4.704042915368204 9.927865658747779 -1.3771260477178346 -0.1813697307621651 -0.06175558394124204
Ni 7.132500671265734 0.7131581374233221 3.0886068121107235 1.0431186640208745 0.7504039684251141 0.2518092156306502
Ni 1.0674617138337987 0.27324572129723323 0.28012559171530155 -1.106151057792011 0.9579503575826469 1.9265111436912887
Ni 7.8505366544585415 5.967695616100299 12.81146923260814 0.8315176451779938 0.11945679530745233 -1.4159769591467615
Ni 0.6974428010816582 1.613607723603927 4.200560645152422 -0.8783253495601517 -2.1295164504453585 -0.3930563673403166
Ni 8.323593907229593 3.2239746930225306 3.0360778082397952 -1.0422424320635082 -0.9541924332021114 2.95358740953732
Ni 0.6954305620216024 5.9058334258922125 0.3517546164566909 2.2460984953081766 -1.79516890980016 -0.4344238745435099
Ni 8.740973331647647 1.776295440872866 11.856596333519914 1.0266319792197611 -1.2574175414108926 2.3016044987952813
Ni 9.270989857120048 0.10116724555374638 6.300141280542775 0.8888879555673465 -0.1520928361749187 -0.2800676962557112
Ni 6.764549712545318 3.188688544299816 1.4083416964038653 -2.474611716525364 -3.43883016650491 0.545212709763319
Ni 1.6672983846341214 7.972654586524969 2.4036460218482953 2.365492298588178 -0.8945826919592788 0.11218494423638743
Ni 3.3780915904832947 3.492938718747121 7.593300630269948 0.8331266415363263 1.0385454428278953 0.3647158685244106
P 4.984920659201015 3.9154903497016345 11.75107774867894 0.1415492563311175 -0.2562371694950168 -0.1289390237662747
P 2.8262347961172534 1.885840360999674 0.854980597802803 -0.029498523679749197 -0.30085686508692056 -1.006451647617144
P 2.3486274873266932 0.20218684643257406 5.982076578870527 -0.6931475579058063 -0.9918130717683629 -0.1998598191465526
P 6.197297014341839 4.033633947122451 3.3718923713024305 -1.8721731923703564 -1.2795876497500285 -1.1543834104358377
P 5.006482353236317 0.2316879239304861 12.110893392953047 -1.134215420128395 -0.9781635993057283 0.32340981068677205
P 0.06618845775806338 6.632300941464026 6.056825642025294 -1.1854266528948876 -0.38235106510767053 -1.0965384744029116
P 8.117727086918386 1.7351777917822917 5.349142429151159 -0.8113658528204671 -0.22972138259267535 -0.28822297837299393
P 2.011273333880315 5.802129291961875 8.65329746648317 0.823832360718594 -0.1669864654572995 1.6815186938721556
Ni 9.096369850085665 8.038648970465058 3.87492613599629 1.7601952219384525 0.23620004833848354 -0.48179310785609275
Ni 3.860908249124761 8.075625139995019 0.3494396593839086 -2.948543676465825 -2.033776024918239 -2.810749773412082
Ni 4.701842173987339 0.7396116059710249 7.800505538484037 -0.07463552522770373 0.32234948774305777 -0.4645939703689869
Ni 2.751725307340657 1.9472568314344205 2.897071739678104 -2.3210098999050865 2.167821516673144 1.2484793583809983
Ni 0.8831398730663909 3.745002536399253 2.092187258650084 2.9548585629402595 0.6614869935777318 0.13053233639532355
Ni 7.737314546201682 8.897374542946775 12.752742866722068 -0.727577971669534 -0.6093205959868215 0.4632940206106408
Ni 6.876239659081322 2.2390732813712746 7.2573922803383395 -0.12655638246671108 0.10382140276304055 1.0726297861061138
Ni 6.306154783151415 1.8811138742365523 11.390678025785183 -1.6933845920718062 -2.694617414492172 0.8107860690575973
Ni 3.819512025175849 0.8928769929481379 4.664426784764067 0.4015998860349535 -0.8956425006823608 -0.5161795557557626
Ni 0.11034442997023569 4.431903136258569 8.386457109761972 -0.026139120289213048 0.3542319382739512 -1.5477251702270571
Ni 0.5926243677179719 7.983426147714009 12.311383718498348 0.07628540212630087 -0.9257357205233153 -1.4894840271969767
Ni 4.402012053958986 8.164509091461817 5.993723793697606 -1.0166944083910747 -0.8894044901924488 0.008292064805463139
Ni 3.332461028687657 6.084483482543875 4.011621890399504 0.5265940662208674 0.6568872900221913 0.1943733421106846
Ni 2.9315732358831688 2.872951799860406 11.664192107529281 1.5262837125238293 0.010399855177085316 0.4946578796339029
Ni 0.3594516397925484 5.815148023674834 2.9849221784204696 0.7020800845087456 0.38212506513979355 0.5110643460163844
Ni 5.371471132629748 9.031136904091698 9.940382027132872 0.9500724974964672 0.8209336990145603 0.6483293731498512
Ni 3.4009068713811135 2.1169182059904017 9.482469032243893 -0.5194931935100279 -0.18545932745050642 0.14229050537251625
Ni 9.01744959271873 5.394017124497841 10.379241430294444 -0.16453363304143276 0.8347310099089689 1.4371343099506668
Ni 7.231645463347952 9.191865311523665 7.599145130797863 -0.8768845033485672 -2.107346084995906 0.6838291087183578
Ni 8.937925756492064 2.394220905807886 0.6980222367869996 -0.2401376928299929 -0.6542058865352863 -0.5697865424479412
Ni 5.6714219684300495 9.090584778860862 0.8985589914753562 2.358196793368029 0.07991451423845591 0.11564127821610407
Ni 4.725669610203784 6.774726980703238 10.169522848275294 -1.0200355569491657 0.27925677031864166 -1.1971958776156737
Ni 9.007523041933313 0.9767670257878097 8.612117602340902 1.175496538265369 2.2389893950672217 -2.3532433060174953
Ni 3.0387781271999446 7.819178411238381 8.211353311056943 0.5609105801145501 -1.7239670928443538 -0.6445745340931092
P 2.5921019135134276 5.872729446893139 1.9728058602753884 -1.0898716039056973 0.18556114313569333 -0.6308612982720747
P 6.971437974003763 7.00075333492945 0.78992408255245 -1.5438083516711543 -0.009163154556506799 -1.0762694397412302
P 1.4811360926359656 3.5315399082840493 4.262113617267754 0.20743891704539114 1.7006860108292259 -0.5973757649201196
P 6.898163500432462 1.3136104586605701 0.13547838227228118 1.2554786725169669 2.3936106540909483 -0.07946945628123732
P 5.191019625227506 7.767196342672655 8.073502399574489 1.0529184237201155 -0.4139753768811709 0.055014922783298795
P 4.838037422228409 2.1981970638245922 6.0338710736983066 0.8451478343669186 -0.015149711157244878 1.562561721019257
P 2.5187995824562925 7.12288055282449 12.4593598974985 0.0863777533652964 -0.2287281654414706 -0.5087058730865368
P 1.1833488549020839 2.607293529121417 8.28549136668909 1.5108177556777465 -0.5167865932121423 -0.7585044860450615
