# total energy = -340897.5065832514 ev
CRYSTAL
PRIMVEC
9.01952043643490 0.00000000000000 0.00000000000000

0.00000000000000 9.01952043643490 0.00000000000000

0.00000000000000 0.00000000000000 13.20097986582775

PRIMCOORD
 96 1
Ni 6.354098635767859 1.9721361266459434 11.473182333645207 0.1823457215221892 0.18917122908445483 -0.21302001067759443
Ni 4.645404654572563 0.4206298334074095 5.815097521455227 -0.3975144031116702 -0.9298746823923535 0.5941359178265831
Ni 2.6297854211333584 1.4721029473238953 4.710914331600178 -0.06161340193642292 0.4354821406046952 0.26191159417197474
Ni 3.5933588011245745 4.2884030262829835 4.8862240395048815 -0.7225944024120136 -0.1405097593230096 0.021521161901227454
Ni 5.029627194768813 4.6673401276530875 2.7375136682248393 -0.464204191129736 -0.19912859740748284 0.06266601157065337
Ni 7.11245989259785 6.014405466705882 2.4681078160304257 0.975227656605856 -0.29745195317042966 0.13581826738461125
Ni 4.905428401874558 4.395365516111086 11.441896323992898 0.6076804892802374 1.267438158871688 0.24041537197141177
Ni 5.610204689308413 7.94009106441897 12.411798701295218 -0.1387992043898061 -0.794776066782586 0.21727132975478064
Ni 1.8483251731194772 6.401559350961002 0.4467584814201449 -0.19778956688108515 -0.09836629318574028 -0.949860381485661
Ni 2.8620831633985393 1.5412556085526719 0.431653490972795 -0.543015187891368 -0.6163299374251191 -0.1554622668677839
Ni 0.3257147166852516 -0.0677131458078671 4.690875663613746 0.5283041069334387 -0.026458451301844755 0.8169297200614898
Ni 8.51241569799283 2.2127769250786757 1.396993794967496 0.785698272851034 0.9500038490420606 -0.01377494229690531
Ni 6.703379554782386 0.7529549564334163 4.73296074477893 0.8346541339244463 -0.2584521748684646 -0.38366978391909407
Ni 0.6918549228223587 7.255247916585429 2.5188922244103167 -0.1895350401817768 -0.3031140365522134 0.03973022871008641
Ni 7.556797534801377 3.772324120558693 3.8293662720402573 0.8784035110962549 0.6038539164452954 -0.03182742892324196
Ni 7.518708101076436 3.9003020924088445 12.710998734503981 0.731872742390146 -0.4924053361543003 -0.49761233427653656
Ni 7.7611528035453965 8.925771288374154 6.982063787387136 0.385243299053801 -0.9729116068781695 -0.9229075070459009
Ni 6.88659306822182 0.764575706234793 0.41424671897521886 -0.38591564253047733 -0.42387900914812804 -0.12725469408531634
Ni 1.8822024909198274 6.5332172870450576 9.20336686489304 0.6859698092104444 0.18051998116736007 -0.48295781758815526
Ni 0.1076164050412348 4.790510695246693 1.3691523400723626 -0.16023757676924016 -0.22169542696440528 0.19745506635980187
Ni 6.635363353096432 2.0719100588896797 7.172673307375101 -1.4214994316268874 0.24037757675494087 0.08207038423919415
Ni 3.2448265022850835 4.27385454023081 0.4889193265548512 0.20814288509095122 0.19442733527707162 -0.4438063441996744
Ni 5.909337076115818 5.63357426609774 4.8711352841938576 0.12003169397431586 -0.4089100465431216 0.45590904100047935
Ni 5.31656519029132 2.904826669536947 9.340247103161973 0.34726579136876323 -0.5413923075759643 -0.5396259597041609
P 0.15156040931575185 5.569093716322792 12.415455214776651 0.6862737136041084 -0.43067237792087765 -0.12501269212867502
P 3.9102686622090004 6.034455860068549 12.580269808998583 -0.2743786162907339 0.6704277477107873 -0.041323027118503025
P 2.3192703998573587 8.300195407650861 1.4591040148388408 -0.3091823542334804 0.9629976901985672 -1.0651401625972883
P 6.358563298257523 7.659989865193765 5.78155392590158 -1.1450050545447312 1.6856036625748065 -0.23895729936864654
P 4.7423374379592405 0.8884470905464728 12.657534626678274 -0.07745859649879563 1.1432767589997148 -0.20568362491718123
P 4.143206790407042 6.127266722732449 8.217741660010962 -1.1532341273227429 0.30288366570896225 0.9535779395465641
P 4.60476269663636 1.3091562957314762 3.7571045822050424 0.5576810174336588 -0.5387597550491238 0.0662807255051052
P 0.1569865526567238 5.338554780492933 3.574508003945999 0.49906552178329533 0.5326366728705213 -0.17878294387159532
Ni 1.350718244726155 0.8758675657498411 2.668300576210849 -0.045585144828966646 0.738263219297522 -1.237359851429069
Ni 1.7053206806475518 6.521320539926138 4.74830024275099 0.986113193170108 -0.1613647483951479 -0.6011550294568937
Ni 6.1501221868714495 5.561282811845927 9.179974739303262 -1.1031768056550357 0.7210789942087517 0.8122654818166011
Ni 8.621064838094807 2.263069769608695 10.213518851003684 -0.3014646738742486 0.6372389196636444 -0.15389980747667042
Ni 2.3272256166571217 5.419550071719542 6.997218385195482 -0.22724746713088606 -0.827709070065181 -0.1128457177488379
Ni 0.629325295262591 9.0965468834838 9.131064587217011 0.03891338923574588 -0.1668468545556417 -0.05659126613148319
Ni 1.5963738963795995 1.1837669261733113 11.326889324115239 -0.23700660340017893 0.04719902628330581 -0.3388428574123907
Ni 3.957476830837071 6.824430535133424 1.558045445369858 0.8560184585328355 0.06291386591540132 0.3206556449804026
Ni 5.514173857939849 7.916026984575697 8.188713236259991 -0.10578212603383717 -0.37996893802873916 -0.3871515718201074
Ni 5.629416267294236 2.975837351923037 5.081519200226949 -1.0188312522284195 -0.7327289197428541 -0.4998152554651263
Ni 0.673672472089205 7.430650525547997 6.735548575460428 -0.16132052542077377 0.10118370802987736 0.7642537298240129
Ni 4.921438050196076 4.53542062548378 7.068094676730873 1.1355048283637799 -0.048608247926006605 -0.18319110024162
Ni 8.279071691386639 7.241926085277888 9.17350593942935 -0.4561532958008015 -0.5880177207439874 0.18410924118051517
Ni 4.7313426428584355 0.265915297884314 10.48596067369107 -0.4231755553232002 0.1616478268532055 -0.9347140127625256
Ni 7.951203113282131 7.001159013562621 4.457812164085188 0.8513336514626564 0.2338606015720295 0.7481467969598212
Ni 7.184733307809299 6.265725377033081 7.1127403996754825 0.9896006374980763 -1.1692960658816118 -0.3435245791587761
Ni 2.410268338964849 4.994460085582561 2.6685513188718852 -0.45788519089024365 1.1432214802817473 0.23743443496621688
Ni 2.2922930149955785 5.181678265982419 11.199671697816358 0.08190660496782022 -0.16290998139508073 1.266688168079541
Ni 1.1322744854592008 3.2382151939923096 3.7287093287707873 -0.6888453309860266 -0.10806115187600099 0.5711057754799971
Ni 3.557975223453975 2.7746569542827793 2.502681440788759 0.3792577708943275 -0.633693111293915 0.7472422828676809
Ni 1.133483101163473 3.4168828692604505 8.138377098033102 -0.16466115975823253 -0.0824953875917547 -0.552918563048009
Ni 3.8505684581300557 2.4459134827207016 6.956190391795526 -0.6537644281224934 0.5377482830654738 -0.34957541333854636
Ni 4.074234519581888 6.914436327020989 6.1355249954102975 0.6164723765402543 0.3894308547725874 -0.5109242208940943
Ni 0.8289362963913316 7.349393668236135 11.309477140405555 -0.652523870847173 0.0836025046130044 0.1522401603860604
P 0.2686482124991985 5.629975477545465 8.032386912480526 -0.08236374710989686 -0.028068476101441982 -0.49902875500808896
P 8.64457872720703 1.6105976797052524 8.030684027070327 -0.23351298842462367 1.1736682268073786 -0.4315002731388117
P 1.743103450686334 3.1462972638263436 10.280948783877863 0.6530465761198624 0.17932724641083955 0.4220537830139312
P 3.943893433444279 6.253900786075611 3.9701420410754236 -0.6660692136317755 -0.4406713981151185 -1.29267147951718
P 6.822365065011944 3.950838463983754 10.565984562594169 0.9368606267918833 0.3711176582856963 -0.8470090559453736
P 6.372011402847598 7.663832180790928 10.264619844541933 -0.5705180212973272 0.1544425673540179 -0.6151315462416439
P 2.432275968206823 8.41974914765183 5.6834440951312635 -0.7573310345622506 0.8206835306769672 0.433408288794802
P 6.731358106384273 4.083425410646467 1.5206072210019952 0.6463048865206547 -1.1241901746819092 0.6090007507535576
Ni 5.1070056584027865 2.8641486335200197 0.40389591761534616 0.7021351061163973 -0.1806696193713469 -0.09803179266445698
Ni 1.5153876246731712 1.121225573237308 6.931358750784838 -0.4989050849460311 0.27451102810354017 -0.3932466289742518
Ni 7.0228148815175295 0.521160503394343 9.147275370838567 -0.6672478073209089 0.7146982874933885 0.7502034223785338
Ni 2.7662237029134165 1.5172095677497608 9.123381759926719 0.5702172022274566 0.4253082853954868 0.33663685090000733
Ni 6.272751583254186 2.2178639344608366 2.56488456171797 -0.123121131532917 -0.681555996413465 0.1450770669787179
Ni 4.127575961933132 6.819614111356697 10.502818156909612 0.32094592252731174 0.02504537300440203 -0.8301361914494348
Ni 8.17428290592219 7.334213815771282 0.19061853950814703 -0.2638653754642359 -0.35611398578801245 0.8656516107472254
Ni 7.708469786167376 3.954040393648058 8.364338627371033 -0.03734167387325182 -0.42062707786973363 -0.5896948513360941
Ni 3.0857131467696473 8.340918541268694 12.31853325481419 -0.16446267059418126 -0.3797771337329072 0.593347874707649
Ni 0.1711111212603842 4.779542958706431 10.097455665312813 -0.5851157166058439 0.2924745545604963 0.9536072501226027
Ni 8.551091400529547 2.3396094178658227 5.769620198749918 0.8235510820327493 0.037618838794038434 -0.36058796239896607
Ni 3.699410319414383 2.535738884204644 11.345634592907697 -0.7389152510592243 -0.7746127044608337 0.18232746668974406
Ni 1.180068922899045 3.3261555157583946 12.57108162379006 -0.8991114330675677 0.3097551960178149 -0.157663902504793
Ni 3.108514493787561 8.545878117864849 7.852694619719809 0.13155897788762505 -0.933430775174728 0.23129078396232425
Ni 5.657638345941012 7.707134897180567 3.525361540431002 -0.5454309964217122 0.4365650892562288 0.28310391197887375
Ni 3.1350048245595605 8.38627770825963 3.4749334030982655 0.5738545418697278 -0.4942935543159487 0.9197525063566869
Ni 3.3934321167894947 4.214695507362733 9.1847271244867 -0.0955175108830355 0.40083909660952904 -0.3703093034517881
Ni 7.255238897065247 6.131821580423922 11.4452227230357 0.13649652439855847 -1.0750000861105034 -0.15881498539010067
Ni 0.6684474640482724 9.098440982721838 -0.05232133461875699 0.4141589536468867 -0.2340917437462291 1.6569114368464368
Ni 4.793297726982664 0.29581139947671037 1.7200748117598557 -0.5329791438116046 0.1543078415483665 -0.14892806529369187
Ni 5.910960589748424 5.6609394903273085 0.35470796430751617 -0.6868342140932687 0.6558616769711544 -0.6631358420350644
Ni 7.800044974566458 8.888998704595659 11.387640302295287 0.9878090928152924 -0.17237292658019346 0.061691306362209875
Ni 0.10422145764505489 4.848578366172852 5.778979754841884 0.12946172903896414 -0.18154867954219056 0.4541784314626178
Ni 7.828176858011424 8.721722683316294 2.576263588378492 0.005205198350023294 0.17504455987508563 -0.2121782315025894
P 8.420263260302155 1.566645557862572 3.530641567545039 -0.405029994762425 0.760511232062445 0.8439982941435077
P 1.6540807864985132 3.0737352239690976 1.535854719868207 -0.13728739573097 -0.22425187483767187 0.1416497864647238
P 4.848587385693033 1.0470310002272758 8.201914205997102 0.4929627513196671 -0.5815231141585792 0.3740597716331558
P 8.499743272138334 1.769368293453805 12.360789706862816 -0.19126667816090284 -0.5833210865992663 0.4200971735081926
P 6.305934398000589 7.709308601544222 1.348876458705167 -0.07152320485096714 -0.1056502284416632 -0.12183198040784822
P 1.9724969074531888 3.2639659241094554 6.033468222608715 -0.5109830991564877 -0.11475064808103463 -0.3848985141198726
P 7.0385178661528895 4.148970263802789 6.169134433461267 -0.13174101199144408 -0.1337801539086599 0.2076294357896424
P 2.369031092696691 8.443993617898727 10.169902255311742 1.4623246931733656 0.3988207806279196 0.2184758915858431
