# total energy = -340895.8690541441 ev
CRYSTAL
PRIMVEC
9.01318214604379 0.00000000000000 0.00000000000000

0.00000000000000 9.01318214604379 0.00000000000000

0.00000000000000 0.00000000000000 13.19170313715343

PRIMCOORD
 96 1
Ni 6.363910534562106 2.061513065029401 11.365826484541689 -0.24060974737040494 -0.3854646710359878 0.6211805806492011
Ni 4.591513315786884 0.2597301682436877 5.8855313813413055 0.6900288097711665 -0.42123822909117126 0.6227885485662694
Ni 2.762991011292149 1.4439298189235845 4.899610022490188 -0.7470522783440618 0.8245373572054187 -0.4249339327752037
Ni 3.3546433321345908 4.29986476532728 4.961874887941856 0.060320394156612236 -0.3681624323121143 -0.6179559030643164
Ni 5.051410938853861 4.7349310713624195 2.657890997312784 1.2908285127711705 -1.1306549564706463 -0.7456461420251546
Ni 7.431756311935613 6.192506848175733 2.4699219833137733 -0.8614373155555615 0.08892108861244041 0.06398164505828335
Ni 4.861989901198288 4.771182090274236 11.214029173450907 1.1084609368721103 -1.009035092073604 -0.17080352521054454
Ni 5.712491802380966 7.709109955385237 12.329216690464971 -1.7935725118473176 0.45425247923366285 0.13113911674138706
Ni 1.7710903073524948 6.5071480264931285 0.29046151436047685 0.5374844878811259 -0.017007847411906193 0.3591049500955364
Ni 2.5784190656740096 1.7094131013819445 0.31947134267215493 0.8165674516260646 -0.7953471087947076 0.33141314060722277
Ni 0.5541899302394906 -0.07821819799117771 4.775198364274012 1.1160955705992326 1.3476948869409113 -0.26055328037186737
Ni 8.569192869273847 2.3856901901416006 1.43511222275217 0.4212423428562294 -0.5500206726749237 -0.47573353192557427
Ni 6.852019417995563 0.7865813141561473 4.835669606462762 0.041735432065573286 -0.24867015578103627 -0.482987128164194
Ni 0.73832022992857 7.446240495772334 2.6677712476686097 0.64860705229127 0.11347923756777875 -0.7161535318826763
Ni 7.505123615252912 4.042042687760776 3.7175537065435664 0.8371064521196808 -0.8510480019014375 -0.4422888791138834
Ni 7.651182233220583 3.798948149951085 12.579331595910267 0.09643462338066618 -0.005226281395945837 -0.6907739154673072
Ni 8.017892565255918 8.952532522515622 6.860279098187206 0.1901716453245112 -0.829272815007875 0.331049586620217
Ni 6.696199523677446 0.5682784353765017 0.38861326616204017 -0.4217781607550413 1.436207170150707 -0.9629899768890834
Ni 1.887432463521991 6.412347375843085 9.065852558684837 0.2612675328300726 -0.09786621362087017 0.4414031340748204
Ni 0.09027423053629068 4.7570854732732215 1.4330671317051558 -0.23247811940220606 -0.03601215642855088 -0.533901398515558
Ni 6.4159616619155955 2.019349398577518 7.165852113867312 -0.6080905802344623 0.30319502630179396 -1.4214505806668232
Ni 3.495330093495736 4.264451972362456 0.7157358992256024 -0.16179952193972136 1.3040182719885671 -1.2342994673361904
Ni 6.097688171161238 5.706561128476446 4.734172161419014 -0.10101658632439377 0.048131051179271946 0.5769393514426386
Ni 5.310395716927482 2.924254867674596 9.294834255765506 -0.14920060222878823 0.0002938770913349778 -0.3420279400085916
P 0.22794247717004507 5.398346349085984 12.458495467083031 -0.6734629349926854 0.690028038440218 -0.012933677342532564
P 3.9033929055826415 6.138346636181427 12.50987691499715 -0.19858686597139993 0.3503395451980805 1.1792696321545562
P 2.379840634877113 8.377581628337426 1.4412195550283127 0.44363845116324235 0.10013238394722755 -0.17947996993861992
P 6.474502280471598 7.767064717096567 5.6172909664401 -0.7655567649061525 0.09708022738446506 1.2854515647299734
P 4.693848986777622 0.9118906853220048 12.432441962541388 0.6817866243670323 1.0887218065719702 1.714031064677564
P 4.017761174844707 5.760252654995015 8.261119596844328 -0.3685013037087718 2.388708331693325 -1.4355407402113018
P 4.662663376276657 1.1014649470754145 3.7949102443139666 0.48227493258851784 -0.8975811124659703 0.3762218122814811
P 0.25515147167302576 5.520601152795548 3.587892770999135 -0.43395336266499457 -0.526493536087261 0.5248552291528896
Ni 1.6643111375244795 1.0773366582571824 2.5674220820404177 -0.6744936902500449 0.4706926270675571 0.44368987322646813
Ni 1.8794467840700098 6.567049635565213 4.761676788298999 0.6914678562105382 -0.4213814395372549 0.1503066908087734
Ni 5.935550036102897 5.7381973980886976 9.139422658602216 0.4845799265726107 0.4393943311749078 0.03329861415212975
Ni 8.607435801457544 2.24032558720531 10.288420424781368 -0.44673071693532096 0.38865103918376936 -0.32655041319828276
Ni 2.3601378185317055 5.047345993670064 6.958293849618938 -0.41849306224586635 0.4196693419421546 0.8575325811845167
Ni 0.6265756980124098 0.049438205826255306 9.112973475360862 -0.9390926014461956 -0.6362120210610269 -0.19792454979705268
Ni 1.2939144139588266 0.9670874132722679 11.287348706902412 1.039824823760951 0.060905834346437045 0.561422229643646
Ni 3.9484588167112036 6.69390116220989 1.5839018349342309 0.6390163232790415 0.8050085431438717 -0.15920090797460967
Ni 5.819658539044687 7.947337374793042 7.817099595586165 -0.40575890250864954 -0.4494074924365357 -0.5164824317081622
Ni 5.252765429776277 2.85453790315871 4.968523011151541 0.3901502494371151 0.07925759738074738 -0.3615456983265451
Ni 0.9231661762863711 7.27054653464652 6.841718252029797 -0.4703745816065061 0.5109833562668038 0.7334647694676142
Ni 5.276740494496672 4.4716289790026815 6.879249142817663 -0.022052351814349117 0.9151666867582173 0.5520179056106106
Ni 8.192090338132264 7.140720657867359 9.116245260508794 -0.7679738589880774 0.9378595003700427 0.3563374146527282
Ni 4.339045068462452 0.5492597195620259 10.361370417761618 0.5897413883033134 -1.3903687716603537 -0.1535524514395807
Ni 8.304196298655675 7.1283725982181325 4.680311187074603 -0.509068398632278 -0.5856546198284495 0.022169079897871497
Ni 7.5966164280261195 6.307415908371341 6.8832591075898835 -1.3134938155791702 -0.41322949985408186 0.07005819026966645
Ni 2.1523028495890024 5.282508931121128 2.6394220856140764 1.5483196092779463 0.038356231180695234 -0.12368137491176119
Ni 2.3521431258974985 5.162660647065829 11.208462632108308 -0.7148060167158464 -0.10593484956161756 1.0734566528827836
Ni 1.1177427541750513 3.3463692308513866 3.766996418960935 -0.5018016897675358 -0.460059315723427 0.562557885909986
Ni 3.7079240226536156 2.727181638309393 2.7690839224767303 -0.35449341946545404 0.4941104917708652 0.18862538388331387
Ni 1.013379117183527 3.196452970891112 8.244075669255505 -0.5051099282051624 0.5164693190820396 0.10548053563301835
Ni 3.7548466493206742 2.720070237533306 7.027721490985379 -1.1480605535416035 -0.12804016610108915 -0.08178242068513011
Ni 4.168930267134355 6.758841140146148 6.143824848338215 -0.053024117605515134 -0.1551568198122231 -0.20232062198221928
Ni 0.5737440290781737 7.056825957710427 11.214939504855705 0.5526498827676546 1.5095856830428585 -0.19550051373659233
P 0.2050507969531806 5.564261007496898 8.167339238422235 0.20617033474561267 -1.3898247262314256 -1.2736162626579421
P 8.286575527404407 1.6997239304893035 8.103874718416325 1.3712431065744966 0.09624976106336973 0.3912733072979649
P 1.8436013583583513 3.04467999539234 10.50914424430684 -1.14453094312179 -0.08425787880881619 -1.1155818641876079
P 4.045125196081969 6.032838325047237 3.9241890209320274 -0.9585748785405231 1.6855370710029294 -0.17815276648676415
P 6.854660280387698 4.043025124623378 10.371659866590491 -0.32136732633544657 -0.004421526106463353 0.6782508432996318
P 6.017642099814686 7.864271887400877 10.113234807133088 0.8785708899120547 -0.9248065238408266 -0.060269229203702646
P 2.5155070537385367 8.431381313042703 5.838634892902702 -0.18154148045333895 0.025215580033679155 0.3154810427579986
P 6.894714862198763 3.8687822858359056 1.4188596525627653 -0.5566201802693124 0.8519260336310167 1.262779062833122
Ni 5.191791252019332 2.7586015915482265 0.6610231791608602 0.36144851062704847 -0.6157447543456105 -1.1203404619185158
Ni 1.4289499100644503 0.9812290961844107 7.043182703775367 0.20396612800544228 0.28161395769690856 -0.6651155914692546
Ni 6.608996985643679 0.6951930542967586 9.160094392036887 0.5356296940605743 0.4946432243458835 0.8477101957774562
Ni 2.6042688722973524 1.4398107946464338 9.120650903980723 -0.052425307679251645 0.9078842941641913 -0.07210504549636615
Ni 6.3368890142494205 1.9779698789792723 2.7370934348030094 0.8555381764623072 0.42406078614163095 -0.6987430497157128
Ni 3.957751407585913 6.858950555127136 10.329406969634574 1.061756590837036 0.5455286983418411 -0.005787553216054548
Ni 7.980974570859401 7.341309028300589 0.2929230144263189 0.6878778248664347 -0.9652265795290861 -0.6813374526447555
Ni 7.473487345640662 4.0999253440143 8.219499425280656 0.9071253045109796 -0.6221213472959157 -0.5496393780761051
Ni 3.086041488626134 8.430921640749192 12.391599628603792 0.10482361877530978 -0.6905926526944365 0.28492373879643185
Ni 8.934181683504072 4.694975634555836 10.243541987843102 0.8826527732909122 0.0907080053095341 0.17228062397670327
Ni 8.652781121235105 2.097025002998708 5.718616259703337 0.313074490199035 1.4980110908313813 0.1184617783840347
Ni 3.652366767414324 2.69487839321244 11.553689142990436 0.605648546451873 0.13859094503374195 0.05790124319215835
Ni 1.1064852895751365 3.4113182219698706 12.554940122171045 -0.08873262675071815 -0.5755823231941121 0.3810446875914212
Ni 3.319275605080895 8.206700706520143 8.114203825246992 -0.18513716822439727 0.1277624869596703 -0.2881021365244135
Ni 5.599926169564042 7.92915778624378 3.614289677783579 0.19212234129297878 -0.05789044455888095 -0.2912126571289372
Ni 3.255669578114042 8.295759960092408 3.521050110295029 -0.8131823372039155 -0.17693252092641787 0.5558503919828234
Ni 3.311533281549008 4.137960973006807 9.255958598189563 -0.6853530015620519 -1.3115729444073734 0.022067521323000706
Ni 7.2954679835006155 6.290561257609259 11.266783329018004 -0.4481921319721959 -1.4605256922914136 0.2715570876815388
Ni 0.6743491690815759 0.007357460650849065 0.23106193953836413 -0.0718078259709215 -0.5885093156684251 0.46835189474952243
Ni 4.5420579849144 0.517253909478521 1.6522740326620404 -0.5986253210565045 -1.1819070697774032 -0.5426400639401364
Ni 5.9752080378960315 5.580592893689889 0.22131057768836584 -0.27306503968563295 -0.3253918741138074 0.9061146038582782
Ni 7.69871775627899 8.767978603261934 11.284261691990105 0.9730069948054534 0.4338600316202399 -0.15357173471329036
Ni 0.13681379695875687 4.768991886993388 5.838094101969158 -0.25123071741936087 -0.5836278192064078 -0.37660567798346106
Ni 8.060849391743664 8.944294473961321 2.1976589851852326 -0.015941096710288673 0.30579389737722174 1.0866790651103284
P 8.563875091760677 1.6324315119921344 3.482068998487046 -0.17372121307797178 -0.47405820110568037 1.3152717334151993
P 1.8965898566633148 3.2690451405369996 1.6828918126827856 -1.0143544474039885 -0.5525089863144161 -0.465941742646133
P 4.587078830131833 1.1195814433490965 8.123107947967773 0.466673478605835 -1.0439115922358149 0.005580065190938777
P 8.462639029001474 1.5221732538249944 12.493624344807747 -0.6408407780822899 0.6127710164292672 -0.5711867652295776
P 6.25370635548832 7.803261656915029 1.516293955059162 -0.6392636634031572 -0.7960888720567386 -0.21610199203702785
P 1.7463040562317855 3.1203366469949696 6.055242392105691 -0.06172241671046145 -0.695952374344453 -0.154638742525224
P 7.050480677423526 3.832224818728416 5.88818305955211 0.30213933134377 0.23742492188452013 -0.08277306673317358
P 2.2929084923101164 8.232135906761105 10.283539786606145 -0.3911149273432296 1.056568104657561 -0.37836894053147097
