# total energy = -340878.0361535932 ev
CRYSTAL
PRIMVEC
9.17360684522389 0.00000000000000 0.00000000000000
0.00000000000000 9.17360684522389 0.00000000000000
0.00000000000000 0.00000000000000 13.42650090037314
PRIMCOORD
 96 1
Ni 7.442831788801507 6.38245454884942 9.441287408837653 0.24398329182832823 0.12308745008150415 -0.2108371440936627
Ni 9.259472021092117 0.11384629832384618 7.126759744386512 -0.28991116470869427 2.2864470743285525 -0.06363068947676782
Ni 4.087667569428585 4.650413320857089 3.811058547860082 -0.08133402029380186 -1.8638374188111513 -0.5309335741364857
Ni 0.0340542641244929 7.009975139721662 2.3045247633139847 0.7577331550966757 0.42749963661985085 -0.9949256492554155
Ni 0.18226489449142688 6.259344742117375 5.2074686838268835 -0.277052049357839 -1.869229536361 -1.8819482694792493
Ni 2.7165160431380886 0.9802366086844903 6.829833017903693 -0.8950616884782263 -0.2980973000639124 -0.6900131260418826
Ni 5.869824212784341 4.509589278894078 9.122542175325659 0.9054636005378407 0.21035557647155384 -0.24789676795012147
Ni 3.1407495015824543 7.551236303417942 12.772711250502535 0.789127353137241 -0.3706648870189939 1.654171155097138
Ni 6.890947588130882 8.474091999948264 7.383555609428944 1.1700365435920623 0.9675449432496175 0.12839934921272078
Ni 7.693986802863348 8.250072515567004 12.620239479656687 1.497932415074646 0.7644817866744189 0.021722479278756136
Ni 0.3929037556164017 2.594369465147241 11.626786455282268 1.3876236048150488 -1.0856537091696077 -0.5195759830318214
Ni 2.6409622154000023 5.498302300501102 5.428133380106661 -0.5627211509607276 0.7810330061648807 0.8050247410937877
Ni 0.977346922460899 1.8368680358557492 9.02721372021115 -0.3363913105481045 -0.1293928234742417 0.009684060056983322
Ni 9.247913276197751 0.5648199039845484 1.9576376554270376 -2.03520581538623 -1.8669150292952104 -1.3445581410841423
Ni 3.4801179211238287 0.16991813675069226 11.211249576329852 1.6597946719315029 -0.7778049861458862 1.1352045235145418
Ni 8.475743249218889 3.8629875853390745 5.251091020113933 0.9943535788020295 0.37682010798711235 -1.6059282609303505
Ni 5.522199546889849 5.229249579067114 2.11799047209729 0.9748587033022114 1.034405709627909 -0.232913921388044
Ni 8.58736769991304 2.5963509642719895 2.805937612667295 1.0442262952627566 0.29222875709827734 -0.21116238864356537
Ni 6.301258952770037 2.924050555634291 1.6802864890474598 -0.49182298128826907 -0.7279829204174366 -1.3731277251917193
Ni 6.6808995073005075 1.239574480242977 3.7834936933691394 0.13864288131759994 -0.55047318683131 -0.07378808962574389
Ni 2.4431425527793014 1.1146116048850108 13.361181630845943 0.08230384040623889 -0.36975085984515677 -0.17732615682041072
Ni 6.248318066432434 3.0922486410614174 5.66684256147153 0.7889517467913251 1.544513348157979 0.28783422757500754
Ni 7.005067259945087 5.921856912023101 11.844054164868089 -0.6125293327321064 0.04208587342645655 -0.2812072091767931
Ni 3.356916378321194 1.034094855727995 9.110713726383759 0.8925875159061208 -0.5521405472314039 -0.05865740463189253
P 2.1498990295306784 7.689711901973844 10.918994967922192 -0.9096547558010527 -0.9306588688565455 -1.3748763324517097
P 5.028054029048694 6.420194768290227 9.962383149496794 0.5321335079818578 -0.5137249235676831 1.9647763578200743
P 6.846033607969922 3.564854529527994 3.5377217519295314 -0.6458937671251651 1.1078189324127372 2.234833721027635
P 7.164128432741429 8.454405439199608 2.7383483105778494 0.7159907810525669 0.2425491304849629 -0.07499753655281276
P 4.1293340926906525 6.66768033952846 4.299326535658523 1.5239573783834979 2.448109042249145 0.6947295576809454
P 8.105835891778035 3.5759362468552895 9.241219295126786 -0.7487474066582975 0.08712902970902414 -0.29575116842923904
P 6.722299995957863 4.336987862078622 -0.0923259335240919 -1.1391293124902446 0.4211379560678812 0.5386060030800789
P 2.5510700398286685 3.5792754398247726 13.224405901678077 1.2504079428622787 -0.3964178276133818 -1.4366465716809709
Ni 3.824962984079438 7.716774042797952 6.262550000423797 0.2134216169913873 -0.15729674897336138 0.8874807908071748
Ni 1.6627621474826144 8.057445114541707 5.58551853489332 -0.5329655169648498 0.8358751508157409 -0.11059214582797082
Ni 0.9178377334690383 8.150869128830765 0.04797704755796709 -0.21085359915389495 0.17852609066578284 -0.022766861382870467
Ni 2.733046883058442 2.3287843671815622 11.15139362499116 -0.14006830091021683 1.777923235345835 0.1759904687281227
Ni 6.191762778913578 1.4769690837162885 8.201967954870916 -0.14185161806288474 1.5060576152849416 0.5170390755425806
Ni 1.9151280776762463 1.4178910542562018 2.781259692317826 1.8272089689548403 0.35046398659108674 0.6953602492864088
Ni 5.0301731322793275 7.991220845182645 2.529847817258332 0.48814681798826254 -1.0009721125598117 0.2199581325583244
Ni 2.364093580751729 6.537387598469204 3.0912643130239843 -1.3084346558887079 -0.952847489138443 0.7617121943490817
Ni 1.8890933808427484 3.387391100971258 4.388693980906081 -1.149393413420414 1.397469130150561 -3.0216761347854413
Ni 5.034328776277063 1.2597380685587023 5.698287851748438 -1.4580702887723855 -1.894036825212667 0.20318168443093393
Ni -0.10669547162134035 6.9853256575540765 11.22157447107478 0.9776876881105742 1.241322949841875 -0.4990804341816308
Ni 4.77121137861026 5.446315469297638 13.12386775511475 -0.4814521795769064 -0.37924954336421135 -0.30387045510226374
Ni 1.3813434037330672 8.424921466111918 8.883993532084324 -1.4357099187993143 0.5584220093647415 0.3571151733590172
Ni 5.530244800280609 6.883617876090725 8.014774998667384 -0.7819447193458726 -1.0422326618714954 -1.3387515617046943
Ni 8.796947926783403 4.536816544645248 11.10099107572679 0.14223676931644536 1.2450793315605138 -0.979167100869578
Ni 1.5501194264049114 5.026797244881608 1.038753213392565 -0.522766464944661 1.4091547940186055 0.365062710340868
Ni 7.31636444188586 6.448311873926122 3.4195959659126522 -1.4022986903287205 0.09792612032452812 1.7622094241550035
Ni 8.082846832488134 2.6792987192996454 13.337523815601436 -1.8315065678889297 0.5765619134985619 1.1639476570855052
Ni 7.9105573183126845 1.4418525158943614 10.001440698911276 0.23949337437777465 -0.1559939710015378 -0.26530853566866563
Ni 0.8243054706166852 6.001263654725975 9.31529342004625 1.0830738642575735 -0.9202356166406926 -0.46513981557012796
Ni 6.577632212637123 1.0689270417310925 11.947961777304196 -0.7982743097438316 0.3362956655105047 0.5696489884288125
Ni 6.4670535531477 3.5193259176940788 11.257825814089909 0.5832560376892858 -0.7955288857882106 -0.06742846595630322
Ni 8.42548105614252 2.508449461432463 7.26591235514337 0.4048577308506189 0.07232898858171415 0.2790639375815452
Ni 4.832426858515099 2.647558038875437 13.106453496834614 -0.41679073484277895 -0.1013145771807868 -1.0357879346874161
P 0.5105396710163288 4.900100557789487 3.3746030927309842 0.7827183642871035 0.5582474314600903 0.4207065249574174
P 1.1997151575715364 8.518657383040981 3.5122649923407514 0.2659821646969226 0.915005735700321 0.018598331827477648
P 1.9722704760468797 6.595841822649278 7.2942688919235055 -0.7161172793281022 1.6361505501500015 -0.2657245401601617
P 4.438934157325508 0.2530255125411753 -0.08484210488534363 1.0680460233901736 -0.8805766074881738 -0.8392530661490384
P 3.6177495478303014 6.426295216984475 1.3685498913285583 0.8639929920978797 -0.571011673104294 -1.2020946004688715
P 8.254751055167104 8.447405977013576 9.22383164030712 0.6237064323948484 0.33811549232806287 0.11672499819858606
P 7.27715644531561 0.996446372357778 6.029707340773172 0.7453540647060325 0.5931799816712171 -0.7072870826309818
P -0.12366847940193858 0.8415500171662306 12.947241876882504 -0.276066288405802 -0.5704167198327724 0.4250995118187905
Ni 3.449845017829064 7.633679510057352 8.974314115105313 0.9701286448163937 0.07049913446182697 0.2864232061600938
Ni 1.0646796616627665 4.561649498954014 7.0238859974659595 -1.2994126548957556 1.545739507255596 1.603719683314806
Ni 0.986648960018745 2.6222664042137205 0.8822661547369834 -0.4723648725636575 0.35214523094825156 0.8412608406076867
Ni 5.2041138957254 5.484523542698454 5.830794184191035 0.963122902922522 -0.06275060086465967 0.8480092150751138
Ni 8.407831036160966 8.42051813472359 4.995074911671518 -0.4264817368782978 0.6931424156994836 -0.9993068090422467
Ni 2.7457156344069484 8.439498327728701 1.6965457901988663 -0.33133035108542935 0.537864496928364 -0.22011599829242737
Ni 3.852960832823566 3.733648899413956 1.5852130602091914 -1.3968939743733815 -0.6704840548700195 0.373700331411208
Ni 5.552674269539912 7.7548720329140615 12.135932655386332 -2.3637722305732773 -0.14055243963548697 1.3537935436394815
Ni 0.9537432314980414 0.3939623898710125 11.103528495439313 -0.11302209542570212 -1.068780844673669 -0.41684421378853376
Ni 6.823200500000021 6.7117136534117545 0.6415653832796012 0.6026395844222201 -0.4950425166668313 1.53746158351752
Ni 2.80493126797292 3.1110086674971122 8.37502163051438 -0.028343069919067317 0.4833738220796514 -0.8409749339361516
Ni 9.00603277887258 7.039248119846994 7.326143507010776 -0.541729379200409 -0.6550651492117879 1.164362890246053
Ni 0.24427389140687047 1.5356343008587194 4.694818165826274 0.07545673557741843 -1.019290194142709 1.3236843829589267
Ni 7.576793972684371 4.93263934202783 7.200968721329746 -0.486324420067543 -0.3480777457470973 0.9375661374993403
Ni 3.4077656822493405 5.3439471881260365 8.038889659543429 1.6987340293091777 -0.5445560500159267 0.651024146373195
Ni 6.636545117170148 0.47666979639372226 0.9919522222595643 -0.03285895551154986 -0.14052210061818382 -0.0808110579107963
Ni 4.433283215377152 1.170130274806198 1.78799380952741 -0.2937464792943844 0.803199514959591 1.5139053934641347
Ni 3.6615443479300613 3.2292472888808175 5.87610813361977 0.45359144861089623 0.0005895539548828556 0.39135378282691313
Ni 3.5516078409347696 9.098851335095741 4.194358454246396 -0.4013430328291411 0.11152108540014342 -0.327092658854998
Ni 2.0260645078409714 5.595093028580819 11.662070900113376 -0.033256962280916916 -0.35398485526015167 1.173792925310701
Ni 4.166523895707918 4.376131643399459 10.798693202310915 -0.6569819066185266 0.43695743959864103 0.10188947584765033
Ni 8.07837928585039 4.73022370227056 2.0201778041911984 -0.19831535747756812 0.21646451758276916 -2.023224217544322
Ni 5.952304113851986 8.238752284456174 5.146754082867467 -0.48382710756698605 -0.6259456061380123 -1.4703269946525517
Ni 6.271499771470577 8.615943485901886 10.270910819466451 0.4182310668337313 0.27254079175104673 -2.556745864122958
P 4.703023957340568 9.269104308504089 7.60908048272859 -1.0603545682831865 -1.175734622418104 -0.036501437360143586
P 1.430146993287052 2.7658883963297325 6.243456972051859 -0.2752502202624098 -3.590819901443061 1.6585744263711564
P 1.8962212735276065 4.1659184376420235 10.073809450278471 0.01352863061405412 -0.5950563727583236 -0.4093877575104885
P 4.916181890963948 3.414682581971841 7.617364249902886 -0.12991861407072466 -0.17534332206242706 -0.9936915197379983
P 9.085595472895458 6.253326855886659 13.252050566550432 -0.5805751484230132 -0.34538631495786326 0.653045804788914
P 4.934932743792585 1.8620587608398171 10.611782793204798 0.441648160206091 0.4095152842272882 0.056006083051974506
P 3.71171480493584 2.415163051249291 3.5937908382742596 0.5639539949265643 -0.45470499339004916 0.3942138779835275
P 7.20670314310234 6.651021069109281 5.952854530275528 0.37579526626702375 -0.5283498725697094 -0.09801893714865055
