# total energy = -340859.75758173206 ev
CRYSTAL
PRIMVEC
9.44855588502021 0.00000000000000 0.00000000000000
0.00000000000000 9.44855588502021 0.00000000000000
0.00000000000000 0.00000000000000 13.82891661239420
PRIMCOORD
 96 1
Ni 7.768196368621533 5.356093431405582 3.317542930904274 4.433894398220718 -0.36453769107533346 2.4025452375764167
Ni 7.258730234785691 7.617869844338739 6.566232345293554 -0.13068763102626524 -0.3468477299947381 0.8985694445211686
Ni 0.571003633521661 2.1528818062481037 10.578872463416564 1.662706446261659 -1.2685218788541701 -1.0514528949181827
Ni 3.2793480885560173 6.363687432003766 4.80989036739602 -0.23903597512538188 1.0085062161533278 0.7651975817945208
Ni 9.246942608903028 9.199860454880326 13.663080471937379 0.5854810703650627 -0.4068228249967897 1.308447254294198
Ni 8.379650214783487 1.3206341059415663 3.0078721805928987 0.6493161625431527 0.7638724352251941 1.905057601803203
Ni 7.874057988864425 7.311868913136819 2.209059140174928 -0.710378577072112 0.43034507648844594 0.26758781862114556
Ni 1.169665079857941 5.323892752916848 13.546543873244788 -1.9950546970886416 3.0727151036401272 -1.2350427732601181
Ni 8.319472362290897 3.7894945184162676 6.841330829586655 -0.7444816894034082 0.36829535834555277 -0.6176707677237299
Ni 4.708536653170432 8.137738838214513 8.705275796578453 0.28809108078082 -1.185187797411204 -1.1529582479535367
Ni 0.5220327131756339 7.765531875859261 6.0548802797011545 1.3156756537218373 0.003861796948251414 1.93167263328757
Ni 0.5874063265546546 7.374390007491265 1.1007321954734317 0.8571906244640656 -0.6320735734126212 0.6988502647175383
Ni 5.532828669413732 5.5486927947607345 10.152941957100312 0.10451791460943291 0.4197197355641158 1.100878496539162
Ni 3.443497850112584 2.227279735362039 6.168899783103428 -1.1720522884705107 2.9043564404256497 0.2885459089300515
Ni 5.859880983148779 5.403553527664066 2.6453339254845707 -2.785414637081403 1.294158605585668 -0.6326042491051105
Ni 1.6178951229409981 8.268402917680683 3.967889867695095 -0.5263811788791128 0.4440367150429256 -0.47831594794076976
Ni 2.8069391909387265 1.8666000111981753 1.1879055170124309 -0.6058020413106019 -0.5716464784748155 -1.8492574641144472
Ni 8.611914615784091 0.41786238443787166 8.930064500155265 0.08501661135171165 -0.10948939968209531 -1.0373879321846842
Ni 0.13914510323714552 2.9287972163111453 1.0225198843448535 -1.0286870619765767 -0.772977739960572 -0.6361104624861561
Ni 2.810586333514035 2.6447736261200223 10.341540801889696 1.1633305923267965 1.3562934272431997 -0.2697246624584903
Ni 2.687093707971853 6.71712956235238 2.4224528853428744 0.7704572875315635 -0.5335319309912812 -0.5439999204021405
Ni 1.9773559833944607 8.612396492134716 8.817082448190215 -0.22011317007894995 -0.6328258781976134 -0.9054818553702858
Ni 0.17827913204132365 3.3665771565747953 3.4530390018549326 -1.1189746919192405 1.9582241585238533 0.44817490558101525
Ni 4.552909489030778 3.4508488265985684 2.2764330128368315 1.1706158131343 -1.7233721395728319 0.7418447660011933
P 2.3670333255987956 0.5830477077204841 10.301575300166794 -0.3786574183061672 0.6696481892322854 0.14382571107012004
P 1.3150405608519737 1.3677918484114229 13.20566076339125 0.7759419647952185 -1.5357250604423873 1.50499446412775
P 8.485152789902385 5.979698120447969 5.5237533314769856 -0.6391939865074863 -0.03924223333007435 0.0013637131167460385
P 2.169577404513829 4.643294374718346 5.7784958469508005 0.1432721525594952 -0.4599829539595368 -0.026542269264902676
P 4.832917442966704 2.684552046436211 9.64417596125626 1.005489540814191 -0.5577998023997103 0.1762277815499094
P 2.050024826779688 4.678074508966301 10.939503055089778 1.5823833837308747 -2.2885024141956847 0.3567212803547082
P 0.005825034709009562 5.359088623624165 1.5997709030240115 0.642396552605184 -1.9555970053136515 2.375767198151624
P 4.206487635711838 5.334059399059417 1.317860009930917 -1.4631284200215835 1.7143982182089958 -0.36399698808051506
Ni 8.3541674595358 5.311656873033366 9.508265098701829 -0.4543602084561208 1.664209513169747 -0.03659219730173698
Ni 2.0162556880124534 4.191001452600619 1.4176159733547307 1.011482268062516 0.6879575290644345 2.1880771815983864
Ni 8.425315085422 8.05922133873054 4.486059066365434 -0.018991453500838258 -0.284780014129716 -1.8075410582122675
Ni 9.193945658890318 4.054214708914761 11.654582048314378 -0.9465806822931248 1.5742049616851406 0.7338548058171813
Ni 3.888033507840859 8.917074625511393 3.2883223269446913 0.23888813669360795 -0.3509108443205182 0.3087007866113715
Ni 7.023187184889666 8.125323435769033 13.444486241605054 -1.0568534971084638 0.2318415142594717 -0.7544056333853394
Ni 4.987977693752683 0.17570912483799744 11.261301971747438 0.38319027317951426 -0.20786366328763559 0.6218740071718
Ni 7.9712363862401965 6.052782700292557 0.30052076878306266 1.529383948715708 2.092297675303216 -0.2826411134098422
Ni 6.234799681045778 0.7608685848009206 9.42141964205237 0.15839743823670785 1.3299617313272063 -0.6492333730213594
Ni 5.178460580587449 7.813984070486676 1.4135776605653867 -0.14323564289460491 0.3848859157143823 0.04252090408134613
Ni 0.9518664179319405 2.561654679915388 5.8593669817081135 0.20288729311896672 1.7154354012242585 -1.1804379414310444
Ni 3.0253520089978743 4.294727699211336 3.735951441872853 -1.2304230150999196 -0.3553904773584266 0.4626972675669064
Ni 7.43581506936194 4.077259736741645 13.759218583309158 -0.5110481480664683 -4.192438500799935 0.028107299759177397
Ni 6.646813409384904 3.711997462968909 8.972297655292865 -0.8858293712466809 -0.7858427688486982 -0.9944461385158357
Ni 6.90118743117883 3.253279522842867 3.038697149343382 0.055251207163820974 -0.295531081998633 -0.12467973426928851
Ni 1.4842264027003522 1.885893962334911 8.036965265320854 -0.3419893734611723 -2.715857297707555 0.5190962151819254
Ni 0.6529783596074615 5.518873152357434 7.070324140536556 -0.2760428913670343 0.2431965342609747 0.05455315265553186
Ni 2.4193499795870936 8.785588521682397 0.7447786389680375 0.282518728899365 1.1855212694912227 0.5668850525304302
Ni 7.358091248573112 9.408068832573328 1.4088628311739904 -0.5353108772685748 -0.3636555455806963 -0.3255566818264458
Ni 3.887816191055284 0.8191444429919316 8.358445765644866 -0.43134934938324426 1.296845922609844 0.2967274162995793
Ni 1.332473146477477 1.5359383491113974 3.4020659325148435 1.7033496737043181 -1.830448044717428 -0.1796452918718906
Ni 3.0440790467809355 6.421758256531864 9.874330499725604 0.1436768441970816 -0.025915691424497306 0.14561905552511695
Ni 3.503817430943593 1.4114536252002845 12.291901316237748 -1.537461840627836 0.21814036262329528 1.932978496583187
Ni 6.76004490322557 0.02971759799963808 5.217138244141918 0.6444359516327159 0.9121209579533581 -0.37237132818713936
P 6.1707573691923026 8.107144414227857 3.4304286075991985 -0.26045660689300304 0.12272878119050476 0.1899307329582987
P 6.008988643721172 0.1554523658556039 7.401332564624665 0.005245821779971611 -0.5724201234160464 -0.7512871423610158
P 9.383464793023837 8.988363979736013 2.3877010967626036 0.8198762042843234 -0.2808215437026002 0.9422524872314159
P 8.121959749870562 2.1595808323773618 5.287569669491308 -0.021515248363956494 0.4760796024110833 -1.2871482357061057
P 1.9682853697356626 0.4848413074633818 6.271441180804964 0.4354754557364758 0.07412464702955622 0.31356402824094387
P 4.691019030541877 0.5984535781065994 0.4449353316426164 -0.5644540744914344 -1.0680825330550636 -0.5574123371533045
P 4.6214871077136515 7.632458414639974 10.788823154816527 -0.7519129488704729 -2.0381512711677994 1.4476982015094422
P 0.3902206341682732 7.4146786498257615 12.770893967602385 0.1686635960494063 -1.234492814293919 -1.1608996142878008
Ni 1.6624450639839503 3.9437705390629962 8.61966054190647 -0.655552887481484 2.6372573885154647 0.8257192933286617
Ni 3.874266961902454 7.793962580546056 13.13756785562577 1.355282212369866 0.6236766075981774 -1.2823276743890109
Ni -0.008750307613972028 8.994968520306324 10.855713261416627 -1.552485824840494 -0.36525425752638385 0.2652928519393818
Ni 6.6015926208734355 1.4617955310066153 13.098957276818153 -3.0062538866931 0.324507414626325 1.7357355462341915
Ni 5.822436356138552 2.30663815632063 5.117099768896856 0.7414056215812458 1.3306086208825858 -0.20501102433018886
Ni 6.6998103593976115 7.780479491284488 10.240589596145217 0.4309680547844255 1.2594214592147985 -0.4845009937055591
Ni 5.791152187571592 5.84821201661897 13.659194280897937 -1.6489037360506118 0.1280982730325342 -0.6375281687692891
Ni 3.923456143889646 4.435378902258077 8.658312694360024 1.5826703188436744 -2.116782033597825 0.673690220512143
Ni 1.9964704119691994 8.285145758725882 11.521727793591845 2.374330722815414 -0.945639401425778 0.7790216321618066
Ni 3.1563467879203544 6.042086935019891 7.452265005174406 -1.1843485893393604 1.0191174160102707 -1.1821718934030157
Ni 7.873292655836964 2.589423985689563 10.523265822265774 -2.7925448203682812 -0.8888542741159337 0.22834969905612928
Ni 5.903760076723216 1.0347302531274212 2.95843355673009 -1.4118146002389556 -0.38138227343649805 0.16886079966187692
Ni 7.928613950599739 6.761188178488813 11.82077836707771 0.9811643338052651 -1.114040230732101 -0.3465898483476611
Ni 5.718407755739208 6.094772082688078 5.132893030074649 0.9061665401421362 -0.8066342516727527 -0.5739206192209728
Ni 1.654366548694083 3.345780885050821 12.832930351039439 1.6523721542151866 -0.7703138199751637 -1.3174116625763375
Ni 5.129044633258786 3.4693113048165807 11.882192090681311 0.5428066714249877 -0.12022941180741874 -1.0074919159562006
Ni 0.7566063412368749 6.137659077893584 10.78684557206779 -1.6009562616370556 3.194033891856983 -0.10422583729031083
Ni 3.34161407190131 5.582726493093017 12.599789124051815 0.18704158433596174 -0.10886822115832863 -1.2299201073215722
Ni 5.893073760006444 5.600744889183984 7.7929402467982625 -0.20276722260133465 0.6923422883956916 -1.4876616292762572
Ni 8.774533711285736 1.4849539415042348 12.469700461639627 0.3164032974619519 2.505132767932357 -0.5159574124426276
Ni 3.8626168924844344 3.6914846481217727 0.036179465375942445 0.5192129432654478 -0.48572638147222796 -1.0569689396404054
Ni 0.7306360405050278 5.718124299062371 4.120436802613115 0.7913724404176758 0.3002002053395281 -0.19084476013213583
Ni 9.22543769568696 0.6148931205075819 6.267707111515427 -0.9062776117987038 -1.4152452231870594 0.18928538606481596
Ni 4.590968272174153 0.516328619982075 5.748335111679706 -0.7291825971524926 -3.293861085858966 0.07543128165612169
P 6.916786996960783 4.839909374328694 11.815260410435274 0.17944243183246514 -0.2611772871091115 -0.6836768994112097
P 4.713449902235614 7.264522199549071 6.5854544874054906 0.015003415387367708 0.5035472117037327 0.0020445412338545433
P 8.95173192853272 3.423268491942285 8.829873903160301 1.0204289357328427 -1.2755790428112674 0.13001785865275028
P 7.190634492453442 0.48171478031786474 11.411152288813144 1.17666201932838 -1.8535506921731624 -2.2514988403881415
P 9.462728728423482 7.6950362003297865 8.700753717727306 -0.9314571963881249 -0.29415065671133855 0.10930402314416658
P 3.6218676882904957 1.6049506013654216 3.049456219940542 0.0969213332090976 -0.06487458918619796 1.9200882708840803
P 5.254625389653671 3.937090410045527 6.367511262574302 0.03509915769597826 0.91549990172792 0.7951673886837337
P 7.394950065117874 2.02886951013172 1.2175985487667433 0.4251496483304355 2.498023667691401 -0.1868667493209943
