# total energy = -340856.7654621807 ev
CRYSTAL
PRIMVEC
9.41033471930660 0.00000000000000 0.00000000000000
0.00000000000000 9.41033471930660 0.00000000000000
0.00000000000000 0.00000000000000 13.77297607291749
PRIMCOORD
 96 1
Ni 1.0990894262970998 2.5996613629844485 7.306163931035936 -1.6868403631953852 -0.1504522152477022 -0.7839398953990304
Ni 3.2441375303992843 7.506990820274857 7.786359184210716 -1.025464184163905 1.4708394155125961 1.7220251386266343
Ni 7.9382005772974615 2.404443974130949 10.298701112492319 0.5576190538474719 -0.1274938066793159 3.421067186094534
Ni 6.382964007597339 4.037447548000042 9.515211719958204 -0.5496838581607953 1.0447762542289554 0.879257374456118
Ni 7.559754565722029 4.451596368604647 11.698297337074838 -1.7707429155473118 0.3465469109248677 0.9174050891704328
Ni 6.574652521019648 1.7685876731027026 8.643464682373274 -0.7143342192857505 -0.9006098719899651 -0.8743810202004231
Ni 8.516343296940384 7.503537227519531 0.7162459654176794 0.429977151626066 0.13707450838921556 0.04898285765660596
Ni 4.510382728121051 4.740512457907136 0.1242549975493128 1.727728873879631 0.5959362042601156 -0.5680358783054218
Ni 3.7692718358984743 5.505168007006621 9.386406825686276 -0.7259085543869112 -2.9093590358465637 -1.5456040101189963
Ni 5.248218823943483 8.168085638386982 11.792972830243182 1.6314510877918034 -1.2084146291496285 2.7113640378228916
Ni 5.967695357189236 0.21478053321057555 10.577314767602628 1.4377308058840852 2.070862645357892 -2.1800813078771033
Ni -0.06330614316867428 0.28197220348735347 11.403129021541726 1.42235663742086 1.5177985578709539 -1.0775817307947506
Ni 1.7184588213108207 8.538777534348279 10.185528665863846 -0.6392171264359379 0.47745334283015833 0.48204456174526655
Ni 1.7186282073315178 1.7991336188350942 12.945563772210935 -0.6577509235740673 -2.1912820616889297 -1.9216263047951614
Ni 4.660110560082875 0.5535281077352786 7.060371640536052 0.38084542709642155 -1.9175601051455882 2.03950007188621
Ni 4.997762771673736 4.6652956543831055 11.317942909666217 -0.2736939315188835 0.26792257625274507 1.0008774959634763
Ni 4.4631899006879205 2.74991617367733 8.056860189963077 0.21874791430030713 0.6273049483793842 -1.4826729178124143
Ni 3.1361445318703494 3.2910104064599874 5.885467854475239 -1.0031912316983174 -1.1414507615345697 0.7503967693362625
Ni -0.25158623344117603 4.60176648628718 10.01178283720061 1.3966643748610783 1.1257549480658677 0.2819836823315015
Ni 6.554053298835974 7.70260344317665 4.557987728204545 -1.2400337987168062 1.541141089251636 -0.4768301074238627
Ni 2.248100677027452 0.94033143736522 8.271154208880873 1.0280494283925778 -1.2727297462879306 1.658201359302454
Ni 1.2689836050563712 6.88236104828504 6.265712180970406 1.0955748249380617 0.820363171223071 -1.8451167024731965
Ni 7.122239884595697 5.758494211293736 2.448435405772903 0.7193378431479288 -0.14008964106645552 1.0623479445641317
Ni 1.019336841552178 1.366625235653812 1.8073723666751151 -2.7016943759436116 1.3151238949834254 0.37465678178720635
P 4.531593622046132 8.915501454713288 9.060841247705607 -0.04487809145961303 -0.6434080245888338 -0.13080024534472956
P 7.084673829338856 7.366776836475525 6.788878785529164 -0.5882321507476386 -0.8810170374597022 -0.47400497927024166
P 7.567000523274075 5.087687927994973 0.5747352375265655 -1.5493112837672542 -0.3848902865897565 -2.401449690519393
P 8.517811309119761 4.131193300121448 4.208305345010391 0.9735117023560138 2.9121558818654103 -2.3832709627278374
P 5.798299926157574 2.2930726655225535 11.061435071290338 0.2718306530578996 1.9702728621582715 0.03175595225535821
P 7.704551382414668 1.7833242569033574 4.555273787739597 -0.5102050833398827 -1.555801519477288 -1.0753227595572448
P 1.730560511456186 5.6220631819566425 3.958256760223766 0.32297118048745665 -0.5219794502669913 0.30431885549359206
P 2.220020238929653 1.0793935962238113 3.530743382586154 0.8349464683538846 -0.18716139774327767 0.9095064031486466
Ni 2.4658464066336765 0.12275404919924612 0.8482362579121634 2.24160215009972 -1.860667505723602 -0.6174576232716592
Ni 1.2159563702436706 8.222533833706644 4.350580192061539 0.31030669764591073 1.4660203968573977 -0.30024879918927644
Ni 4.935899232781333 1.0217835285178039 0.30124833264269246 1.8580652922140644 -1.1700751101394817 2.4937132132415054
Ni 3.4852679411962026 7.98870584246867 3.813998214663565 1.1742341266131777 -1.349843814963114 1.1436724517762367
Ni 8.123330087584995 6.145390703235062 8.534824252831896 -0.93770163463594 0.8595982054642938 -0.27370961524816734
Ni 3.8716845060788856 4.733671144737866 4.356006190924538 -0.2662690998097221 2.2793266612336875 -0.13595299319026263
Ni 0.9226795319416772 5.359571311882912 7.798217146692966 -0.0008440931678501592 -1.23342683492325 1.7283598225954107
Ni 2.2833612003359147 5.569177102161189 11.431611280921956 0.432106539264243 0.19753837010222752 0.6933722723221026
Ni 6.519564422955131 6.749844718092947 13.3238799211705 -1.0234132151721473 -1.1336004122522154 0.11908707067285941
Ni 1.723116936879993 7.017324065442761 2.3808513245481766 -0.9636335240103533 0.41013337742726147 0.19359558340439562
Ni 6.24095264991172 7.95724709429141 1.825566307364889 1.7912022118429278 1.3425825054150102 1.0932778013737687
Ni 3.481117983689122 3.039754475759171 10.091142069964134 -0.19411674601518825 0.1168304134281988 0.8482231308581327
Ni 3.051526804197625 3.681106412125592 12.439490099207418 -0.881488577779482 0.6672436935558508 -0.411564196336517
Ni 7.024362995636176 1.0578721612607862 1.8587452646856732 -0.8617808149379095 -1.7504803086435337 -0.45018499403250856
Ni 7.679623406368733 3.0096225847440397 2.6392741659913805 0.18051792428483104 1.3514029319201175 -0.9792797151880424
Ni 7.789178520421875 8.221197566210032 11.789777080652694 -1.559289992246521 -0.14699588126798557 0.3914152321924678
Ni 7.723644951081033 0.9854878684161914 6.604789117202021 0.5549103966670572 -0.18386910014525107 0.803637373827958
Ni 0.8377390297961799 4.35550744319693 5.632596169343661 1.1809297934657983 0.8680278242888856 -1.0981657255936894
Ni 8.495141813349788 6.004085120635681 5.919059925479836 1.257274588075125 -0.5376865765896031 2.6774501586842665
Ni 2.015844211648169 6.747925009858379 13.984391298544669 1.3866093046179215 0.2567367348392546 -1.4777202017928293
Ni 3.103029564824051 4.962784558399768 1.8458126420054435 -1.0423504183962822 0.48251738761662705 1.4354607789029858
Ni 4.36949120023893 7.132450097509944 1.2151442583777727 -2.2032857710180247 -0.7554099062801377 -0.10289452007339699
Ni 8.653790642401663 6.826190761754959 3.9386578565956536 1.6049525272806424 0.11004552929588145 -2.600213962608922
Ni 4.00213056268468 2.6521992604040237 3.46875186314478 -0.39134478396584865 -1.8693138685446904 0.18684618049570403
P 9.289063502691953 8.733806716512115 2.3111470949643906 0.3554994921324652 -0.11726338720055934 1.3169462929041449
P 1.2241998232509337 6.402038755594739 9.815586773560858 0.38979055210485125 -0.819093303371712 -0.06494529452313332
P 2.5345324380263827 3.860834390419783 8.019246142000371 1.2717298442685068 0.6768326227958665 1.0939118354133417
P 8.1771948421667 6.331207167939867 10.880540211520234 -1.4188267698907306 0.5643244908921056 -0.5425287351732527
P 8.951166622404529 1.1309151775192032 8.9639072742613 0.021318301861801992 -0.479100134404962 -0.40067840266194865
P 0.37909250155442636 9.328182263138517 6.720757374205448 0.6378251311844176 -0.09102425099837226 -0.9714998141323075
P 0.9186481446490844 8.988224519599278 13.255208005279517 -0.5055863536209486 -0.8435452657664892 -0.3855361477038715
P 4.680399241228604 1.8166368409738027 5.549641247774114 -0.47522085395521385 2.3673751174331876 -1.407110767005383
Ni 8.093960433663002 3.4339063355870247 5.991506326532019 -1.9987429445735063 -0.5135778564668574 2.923657197636791
Ni 8.489288585301253 3.428542444931614 8.251472494309308 -0.5365812593405662 -0.36483671037299104 -0.7341967625376324
Ni 0.9939948107889831 2.5910414965978585 9.865940532346889 0.8379595441485955 -0.8427675070602001 0.34734138180170504
Ni 3.649619432944883 7.333953589798205 10.41531680050819 0.2936114963784169 0.903922738413282 -0.28548269662369546
Ni 6.499106355788705 5.6148454554080445 5.050233855718481 -0.12566292411816424 -2.8779108446396116 1.9137751841818589
Ni 4.08925143932993 1.6213629901134041 12.291375198576013 -0.5454939884491637 0.26628581198027046 -3.055324933188138
Ni 0.6293547009338194 7.800894386853431 8.332966931967066 -0.7462025287492567 0.752767326450968 -1.0445325136492656
Ni 0.49050333356765136 2.019975348486284 5.070466074857311 0.3469760280424863 -1.419363359120491 -0.7287190272525127
Ni 0.30511786218217474 4.0559200345905175 12.25410556885539 1.4075982481647629 -0.5125370739071688 0.5094664054016451
Ni 0.12601190699732187 5.171336391215929 0.8756513853620019 2.4422790658309292 0.30111371829273303 0.4910591065390511
Ni 0.3930997844326348 6.934748380352885 12.345778224290152 -0.12014353696183179 0.16876309774174805 -0.9899544212930692
Ni 5.001780984498053 5.979354761613894 7.5096595911342865 2.0555252436698725 -0.5545938938679029 -1.3425984462546101
Ni 6.577645007385297 8.722749573494381 8.303052419678496 0.6008830067424297 0.31238157789706844 0.23058912990960936
Ni 3.266712922824425 2.70506651953051 0.7434305396726801 -0.25407975683238176 -0.12084056302885639 1.559844064977778
Ni 5.644695036388682 0.41619650938814357 4.343293770071215 2.0588658780073317 0.6921615398434531 0.6710687237288959
Ni 8.46813415338307 8.96320244020851 4.79701681131137 -0.0060287226925831655 1.5308710747841958 0.09754945371139974
Ni 8.348886394812256 1.1599648800687696 13.414795985712813 0.6491639532360045 -0.027521859569352602 0.5112733767033969
Ni 6.101519723874492 3.3775572527017634 4.50407968608422 -0.6038405467088568 -1.2519112668806827 0.06865642482613336
Ni 6.006324780242677 6.856924914177013 9.839469261445712 0.467331166794492 -0.58395640619042 0.40226862996720403
Ni 6.812922190133681 3.253209092841067 13.569521646318652 -1.1976496773236407 -0.9141948097632514 0.6119662611397847
Ni 2.506047355545807 9.633924030496926 6.008956850797621 -0.6665523239157811 -0.0060184382799380225 -1.1951996731212513
Ni 3.1339519239357694 8.700098898393374 12.211450404710048 -2.5232060804942997 1.1391879336423218 1.625249844077098
Ni 4.400884076074807 0.20613619995432944 2.603353978235647 -1.2490838247342166 0.7762132161787341 -2.0854076330516023
Ni 1.7394720982117542 3.375995137177556 3.246855234998026 -0.5616322887719231 0.4212464566212874 0.20218949572099373
P 6.32685959340864 3.820407593480056 7.482031790125128 0.3516284392128331 0.20142947762651764 -1.8528662645116283
P 5.309790642466907 6.062815018145186 3.4743848893664095 -2.216310979633099 1.6022418132176985 -2.0045736923226705
P 4.018862137395768 6.712118687149892 12.771446235335613 -0.49422953384723267 -1.6137698684619564 0.5903090878813253
P 5.240474118663828 2.97354336233554 1.791505601703031 1.165450723993593 -0.7820665896357176 -1.4885494311978493
P 3.731865756327847 6.973876551133934 5.889847424143709 -0.5396056479891868 -0.2508375957460003 -1.5420402040271377
P 6.720860887884762 9.104940898194117 13.661428619082043 -0.31436081311062636 -0.362361252249305 0.05579936635780712
P 0.9698761235086014 3.2121988551633827 0.40413904781484933 -0.11634961713703831 1.130800223799259 1.6646365734048365
P 2.663764561483848 1.0140294129036662 10.590124114901128 -0.5533996164494857 1.0169114094978873 0.4984942226608576
