# total energy = -381172.6567449124 ev
CRYSTAL
PRIMVEC
9.25541662588170 0.00000000000000 0.00000000000000
0.00000000000000 9.25541662588170 0.00000000000000
0.00000000000000 0.00000000000000 13.54623778382119
PRIMCOORD
 96 1
Ni 1.1787606278588958 3.064533289429686 11.712280143444268 -0.011852785573527974 0.2676089016670682 -0.9210758531538007
Ni 6.133796096842678 6.461632215211933 10.158947244557599 0.2080842639388739 1.1083845751082202 -0.12887834573166837
Ni 3.2311400471938643 1.4174763378890989 10.794495428554225 0.26030002671048075 0.9597110490274955 -0.1640834328778916
Ni 3.778810825327286 2.2779246712629315 0.6873322409762703 0.18113678881575257 0.6685351586737648 0.20521105615613688
Ni 9.0817018792124 5.729667577815119 7.5445363423868645 1.469488043691024 1.3339685384937543 -1.3305641407978954
Ni 8.692030321221877 7.835330431650859 4.229095182380187 -1.742135022002632 1.615418459808973 -0.04813027984832356
Ni 1.7606209156407189 7.181388957853403 8.680401815558028 0.0441934066877626 0.05048566745437757 -1.0965680420892663
Ni 8.240328959857344 6.427340895978764 0.185085197399542 0.6547936407179562 -0.1905321139877235 -0.5883380801978835
Ni 4.8953565414762314 4.086534922996493 5.997921950553193 -1.346376939460436 -0.06918350097419698 -0.1628199927844357
Ni 7.2642064273536455 0.4763929622957742 7.9728548187552635 0.6921998492805563 -0.008807056768668702 0.22500160851950285
Ni 8.501377990618892 4.102444984470668 12.920767318972015 -0.26868953632575665 -0.3690741454931063 0.6286478355605238
Ni 6.182535121696085 2.742703936561734 13.132115687074942 1.2949371356229051 -0.9707439098028895 0.2700756180400058
Ni 3.879204331325177 2.550820635524739 8.524701640947526 -0.18751312465574158 0.013157877538196694 -0.6426022408580869
Ni 1.4202251966778308 0.9376107432110615 12.389619310904735 0.8512799154065857 -0.6550679774252653 0.15004289562442547
Ni 6.426850358888519 5.981007676356536 6.434544386871929 0.07428739785966561 -0.09128418952797827 -0.41956829758791614
Ni 6.340645406840546 3.331801960278871 4.341907606636395 0.6767441768471183 0.27674325986816856 -0.19590314849164972
Ni 5.8101341714489045 9.112346564227522 5.5448544896694125 0.14417255288657752 -0.38991885015259947 0.14051310175711929
Ni 1.529161452379424 8.146784462289288 3.3144258407840392 0.8001129056144672 0.07720045774140254 -1.4518837003456997
Ni 1.5582142057054478 5.140652852849157 12.759133496652908 0.38662500989267606 0.3486752701217801 -0.8619841891979672
Ni 4.888544554713584 6.804674983378786 4.471314993209763 1.4563263094980854 1.0532392973946443 1.7329947502642606
Ni 6.103688226001787 7.254497495133512 1.2023628662331212 0.4908174228418902 0.6189280371695985 1.415408231127485
Ni 6.311740740183275 8.696139726279778 3.170604993632584 0.8738611431412111 -1.393286202417465 0.446758741959779
Ni 8.393654194517715 7.4263428188048355 9.133050006060902 -0.07904239604614774 0.5474716810008249 -0.5773988075775603
Ni 5.632013675189163 3.138808009226227 2.1281007607768925 0.20738312410679124 -1.2333342752094436 -0.6548278363900012
P 6.689593130923933 4.992853102016639 11.73174613605188 -0.34996750657064246 -1.715142809684504 0.9242449949104018
Ni 5.411827309586708 4.591973234284854 8.187562903155529 -1.5609393549244859 0.6058022984209179 -1.2555884586219537
P 6.425388003034581 2.148284048186278 6.152430027480233 0.08673487959439902 -0.5814241266868696 0.9273879114147577
Ni 1.4294713580581102 2.0918445165577038 9.237004070900628 -0.643310322668705 -0.34197420395252076 -0.20101141625249253
P 0.5768012769605408 8.592479058152518 0.14113585073862311 0.787542010927992 -0.43051014131140053 -2.097582320740923
P 6.523976702757042 7.524515024771428 7.901344691956009 -0.27831240412750136 0.28232563905195246 1.2679068709779906
P 2.8685220725011953 1.2568948564598175 4.899037420736429 0.8446958344311646 1.72147286566759 -2.3155074820296186
Ni 5.183505432619621 5.446590655076528 2.7047641320271567 0.1340886862880142 -0.595171301069633 -0.1702275981024165
Ni 6.466972590703847 1.4296657218108488 10.764246875378019 -1.8613223656987814 -0.2927697172034119 -0.326319013913767
Ni 4.692644402786658 0.9982522340655081 3.416375182345519 -1.3000999107707674 1.069750921896422 0.4982941908349096
Ni 5.375583097409355 3.6327696036862123 10.219905270666507 0.39995515134267895 0.32155527397653655 1.039354826103068
Ni 8.883182444331903 1.2525818322323798 0.47352378308868043 -0.46024803469546544 -0.054489389297131964 0.41472073968762774
Ni 2.790452631817853 6.224897164376305 3.817342976536876 -0.35568229756723263 -0.7290165038882734 0.0670883090080651
Ni 1.5489865551587623 2.8709099700348406 0.6927957135115848 -1.0653527928287265 0.27584491642361525 -0.11576443405752967
Ni 3.197589161304461 4.75339695864267 1.2372307979327484 1.442161330851613 -0.31180256546514684 -0.7306532681607482
Ni 9.08718108595627 1.7001645331222135 6.556988923388856 -2.5978781153868935 -0.049494507185701864 0.26048694591030624
Ni 7.738639092371798 3.912255424707538 6.899843806594727 -0.3579343268262029 -0.8733368952066249 -1.7685173686509028
Ni 5.0105494589326485 0.5229060594094833 8.838053032029356 0.832178161580128 -0.5240617867173168 0.21159304842308074
Ni 7.904755313045732 8.062199208180804 6.3480377082363715 0.40003151310656915 0.06386260298191582 0.3710374398670642
Ni 2.0220864401581364 7.728800584316507 12.138295872113556 -0.9177784133494516 -0.3190939569202375 0.42594129099379546
Ni 1.6663637509792895 4.350989947139367 2.893354355767752 -1.1819826602103451 -1.1203453470145222 1.2254427882765089
Ni 0.5314432558631069 9.097112148179534 7.8411585676079785 -0.5365858873262564 0.8205827434330448 0.7329806307423441
Ni 8.024076146393645 5.27276467221063 4.593095916342339 -2.9281458295357634 0.01034226246627251 1.699826233932092
Ni 4.531887068438231 7.743322333271119 7.068101730715504 -0.6457351300601137 -0.16451794931214891 0.4745055730557441
Ni 6.081854697777484 6.945209232025599 12.499858729291358 1.0400793629739185 -1.6618893496770024 -0.9283556746446656
Ni 6.59465106541952 2.7251371554808825 8.585592102513814 0.6482571251510191 -1.8397441253073736 -0.8928199436319011
Ni 8.032489320262188 4.107711316628205 2.591625917099691 -0.2202075295649691 -0.7139408405020737 -1.2775569924732448
Ni 2.1920158925524653 4.266025220942202 5.283005790896595 0.03950731406600293 -0.40247637510263584 0.9782466459378378
Ni 7.914047751509997 3.406678282167222 10.583675544750411 0.11441100535342875 1.009936520841951 -0.13977699492204315
Ni 0.02658155704120438 6.1438382240675065 2.8641220473558646 1.3336792893881098 -1.0488434823197936 -1.0495333092979666
Ni 4.455279983608827 4.060980717219764 12.194417942945988 -1.0161313367987532 0.06140257147719748 1.3949085685122362
Ni 2.121674724894682 1.919638231631294 2.9500863585671135 0.623297626992204 -0.5447738224536876 -0.4608183053766387
P 1.7077909965630047 6.026359218662211 10.341835206009515 0.9837644904322734 -0.40601369883193306 2.329134071674118
Ni 1.822289757759641 6.749781106355323 1.0992362356550531 0.33083695638877864 1.583391256170099 0.19476312134993554
P 7.125588049983827 6.499644211997528 3.0750502195362044 -0.7688932854785532 0.4672635467813501 -0.2837772838968145
Ni 3.8391839090946176 6.224499181454031 11.492845317685736 -0.6403484118269035 -0.2939107727863906 0.5990007021180522
P 8.550163292556284 1.2303503210858013 9.867716299620783 0.8924525329901534 -0.7750940149726264 -4.005171173606412
P 6.137738904398233 8.56138085771434 11.04459992895323 -1.1516711537109972 -0.026619145249425123 -0.15580010982317682
P 6.954436882572284 1.1304936292621406 2.022697297666743 0.7274686997851794 1.202641217000961 -0.27260738332292406
Ni 5.999064994527632 4.939005087091246 0.5141893078699965 0.07688884003825468 -0.09448084208840501 -0.8100839007842501
Ni 8.864847463656893 8.037857462004492 1.7962857387265743 -1.767352144698208 2.0992887619090688 0.830500259657073
Ni 3.025725326799543 3.8877933581128645 10.178629813918262 -0.740886515852982 1.3041853936940506 0.5470608187156514
Ni 7.436042495608172 5.1048066235940786 8.852372087356112 0.7202881228763401 -0.2922135875896258 0.9715612634978622
Ni 3.9628085112531717 7.806786726248674 2.451895964172544 -0.1388200303254125 0.49815149460945823 -0.803727619548919
Ni 0.8665217378760744 0.6503068716212446 4.662154283232048 -1.19484511799531 0.029032382676608064 0.3226724183001152
Ni 4.118040361773742 6.147253472865628 9.160521934197986 -1.5673483437746234 0.819983162175833 -0.24327238180423263
Ni 1.151272039971578 9.020431020015753 10.238815938266294 -0.3783679120902064 0.1510440831954302 0.0105939734657624
Ni 2.017070004254121 1.9017382555457476 6.727915184172229 1.2340017335901137 -0.5279104710394458 0.6928919902515746
Ni 0.676039706942157 4.341919638678231 9.574088201733524 -0.4434882987386233 0.41602428899039967 -0.09135258087206848
Ni 4.428254166561363 8.440986396017966 12.794286495189883 -1.3997193596373185 0.5322726046628833 -0.03882134374257185
Ni 9.03499904605435 1.7410549645316986 2.6599938298963375 -0.701690819490127 0.3981715770796949 1.0674168744466068
Ni 2.6968526017490158 4.953628645630626 7.655222797404785 0.53535304336042 -0.09982667978135065 0.3100369889242918
Ni 3.772230223984564 8.462875456743053 10.564643631190583 0.3619642739212024 -0.6475184472127815 -1.310010227905944
Ni 8.538501467391967 5.9496780904984305 10.999003118102435 0.817136179645341 -0.5987348500511753 0.47725845321053284
Ni 5.1627547881605755 0.4099797935266704 1.0255520114501657 0.2593417765622695 0.5684891637927564 1.1824092062248022
Ni 4.262748803396037 1.3530678923982418 6.421445195479026 1.6161774494621846 0.06971160556352511 1.0254518428687307
Ni 2.8149794863301065 0.062334306586632096 8.454911170589169 0.24385242267741877 0.7399963999385448 -0.6084867872316165
Ni 8.26364335476918 8.26772499357669 11.416363180983092 1.0890727621534857 0.07145944149256725 -0.2662485309844318
Ni 0.6534574154989695 6.11644219034816 5.153138410108413 2.4056560152912567 -0.38754829303789384 1.2012193969527698
Ni 8.468697113908414 1.5415729663043038 11.791986867359013 0.5283534721141352 0.2830555752394416 3.051702248833886
Ni 2.7503396554193222 8.468151044317386 5.342121063521205 1.5503991175147944 -1.4271406890730647 0.6406654288466902
Ni 9.052278909214493 3.278592569112477 4.74782057002243 0.9293069828143415 -0.8699430390337276 -0.37272151243770646
Ni 7.653674366174634 0.9949017731849665 4.664348742554635 0.1521771683586089 0.4873952845342187 -0.3734041403270279
Ni 3.7046008934483243 3.57471037411815 3.6543958105742615 1.6068880537404582 -0.12229220787371842 -0.20311869240348246
P 4.671366199570177 1.4233350167216485 12.454302642274467 -0.6445429095242254 -0.11497124873227295 -0.10796730661061406
Ni 7.061272158660941 9.01182348239447 13.207974934227142 -0.0962793287497245 0.8965603845109399 0.9618928871701629
P 0.6305502589262046 4.943410665486654 1.1907075198605626 -1.3379020692202055 -1.2424069269346731 -1.9571373532175778
Ni 0.8550061482971516 3.636730922075361 7.34815675986985 -1.0511219939413252 0.7045105483271094 -0.3747390570883675
P 0.8558215505169741 7.948005875738471 6.155315866437562 -0.5196024653943825 0.028267993706757772 -0.00412482080165096
P 4.174748300489432 6.574779685556196 0.4410085783388702 -0.649668660786565 -0.6328464470229037 0.11807097070351924
P 3.3904720473555403 6.133064918915709 5.991867056884546 0.3716881860771857 -0.3516937452331298 -0.3785651157026771
Ni 2.488605723814789 0.14977670786037395 0.8516667939167663 0.17934267302980725 0.06391325371419315 0.9728720118894859
