# total energy = -340869.4670365645 ev
CRYSTAL
PRIMVEC
9.28548788208077 0.00000000000000 0.00000000000000
0.00000000000000 9.28548788208077 0.00000000000000
0.00000000000000 0.00000000000000 13.59025010691912
PRIMCOORD
 96 1
Ni 6.953734690454962 0.3449865146643668 11.047106428272922 0.9531629634963327 0.7403224158193961 -0.7771596392524035
Ni 3.4534214884791568 1.2440046598587264 13.150877619208575 -1.0669790155782397 -0.5295973718235654 0.07337774156120266
Ni 1.5593305407760938 3.4040412642464477 1.6126598829791245 0.9825491299679336 0.13888379368381243 -0.8189902021349443
Ni 6.001145780374223 9.083417035155447 5.49277089346067 0.8068630798541071 -0.5227289268385061 0.36525477174701615
Ni 3.574086402714593 6.147568637825443 9.31175368051823 -0.9978893598694298 0.7908353369672831 -0.39672738843400057
Ni 8.625586772647372 4.173966057910142 9.05589020650974 0.4882393777020688 -0.7099903404947578 0.2902595491870485
Ni 2.266634004574163 4.800402208274089 11.101807237027133 -0.10681288129119669 -0.2978720714269838 -1.2781084941013408
Ni 1.6756869886625316 4.135654135160205 8.262409987341433 0.5338435486944291 -1.0106026936710402 -1.196886573905371
Ni 4.3404269980793355 4.835213502115462 7.33823188434697 -0.7618744309585589 -1.4637238875137373 -0.5105604097967723
Ni 2.370325047072595 9.14519338562935 3.911300964072684 0.5441120204999725 0.29566375092175534 0.5386764513066982
Ni 8.098421772579004 6.160196901262164 10.264688939294697 1.766464856997248 0.536400510788328 -1.0712912698003485
Ni 5.269653620802139 1.851210564945137 6.572896907313257 -0.750647709004804 0.2671471315393012 -0.09845962423049495
Ni 7.829402619425555 3.0918817346760816 12.62619834422992 0.6122807070564101 0.49496512646167656 -0.3153326901055924
Ni 7.031314941200409 8.625837480818541 1.2057205935722541 0.2097588234278194 1.2595932089059727 -0.38540656410454266
Ni 5.8186209462744936 1.3783842396059551 13.129839489452268 0.6261134991744443 -0.45491042453263586 0.5082099072867248
Ni 6.083350204054587 3.9102674892781932 0.44045897189232647 -0.3075160222746511 0.7334017774401628 0.10553530013035374
Ni 5.651129316957156 7.012149694337619 2.084527017426385 1.0116092805586836 -1.0776238968865957 1.954536682369937
Ni 3.533583104838874 6.915459909656311 2.843351938948713 0.9157701246701713 0.3760320648681782 0.5431239455550905
Ni 6.764292167928501 2.7342975986848033 2.6776737654028397 -0.25737616819546644 0.1763743344301027 -0.5234727469830661
Ni 7.829179767717848 1.3231727290215836 4.197987614903375 -0.563679401108939 -2.578489940668269 0.46564220912784327
Ni 8.791546296474225 8.671336371142024 8.904875675330977 -0.19002920620937597 0.8853976830259009 -1.1418204861691625
Ni 1.9882922216483114 8.31430007893219 9.337561765368244 -0.1384122533640326 -0.7202295017242628 -0.8703839832258882
Ni 0.17476402337883798 7.210859133709558 -0.1490785069680596 0.46179121081286917 1.3733624669103446 2.1331471052194098
Ni 8.968917684833233 3.428638521484591 6.529109332395207 -0.6968136939034838 1.3119465256967082 -0.2723777838106213
P 4.331243650624248 8.405381428969545 9.077539321364679 -0.5226116845343516 -0.9520028817499605 -0.19151504672628306
P 1.137314404794073 5.820589469692571 9.36584350417381 -0.3302741419067731 1.707740860793478 0.2665393227519732
P 5.545098331527803 1.0509779390333123 1.876487519891786 1.140273710507333 -1.8178846062301206 0.37067465721100673
P 4.776436364207782 8.509638886225064 3.869782762378116 -1.1462466402613163 -0.007739791846418928 -0.4811346483364875
P 6.483508301705694 4.934206087776408 2.4875190459604974 0.2808374845422002 0.8065789729547851 -0.40413627930356205
P 5.497816627542667 5.0528374801790195 9.126274204193821 1.039834336842648 -0.4658910919138557 -0.5693517689033678
P 7.237768477415161 7.70210786688584 7.098215023854004 -0.8578884218620387 0.673552152272382 -1.2429154911399753
P 3.7051324923340405 2.6320550922864663 11.469953615414934 0.1975586818172017 1.7721999597088125 0.016553019262674717
Ni 2.1336751044635656 5.072847706433531 3.2510730664301213 0.4625358022883776 0.8856100561470233 -0.20875403631238887
Ni 6.4217598076952545 8.899211527760096 8.56726648074049 -1.3709240326721808 0.30009941809560575 0.43267938104857745
Ni 4.387522992308049 4.35640732261948 3.252744454237923 0.9152718448775139 0.801222336628562 -2.1293549851668296
Ni 3.102476476279978 3.8978620775491786 5.254683557336933 -1.5545542773337486 -1.6490700864251469 0.5948260019150724
Ni 4.246151440231517 2.5036089392569316 1.3685926926985856 -0.6756828254621395 1.8609318151285823 -0.36863474396284257
Ni 8.816384976395717 0.1555105643817485 12.96008405820414 -0.41757080754191306 0.39301420124847153 -0.29293272514383745
Ni 0.42698201486875487 1.7667311967485995 8.053799432305837 0.472395982911909 0.3337865259354058 1.4116670189174978
Ni 9.206273324516667 8.18528751114557 5.180250158414063 -0.3060612921059955 0.9558564511680957 1.45327235316311
Ni 0.3854972409303432 4.951551379026258 13.151515532221886 0.3853888234927298 -1.2411820533886366 -0.2964870181539991
Ni 7.69704727602333 1.0027862572417066 6.893844222557529 -0.07529707007110258 -0.20301430561513426 0.3759125085711784
Ni 2.0750372488732016 2.451898057581122 10.026301681914335 -1.373931452039937 -0.5918592059772646 0.6033080712441545
Ni 7.088912822154808 5.614962341893899 6.623630027121502 -0.17033944108993243 -0.19983925032126226 0.05768038543060389
Ni 9.427555784781747 1.5047875853148431 11.055858929093109 -2.61399070467804 1.0197519642704762 -1.957225799166326
Ni 0.5260219565175883 3.7400644975170887 4.066705673893272 1.0089034515917463 -0.594903135009911 1.390546691999115
Ni 7.8523099178802545 6.388304195075765 1.2705202988807127 -0.642426634512171 -0.11548649780579466 0.11080888982446722
Ni 5.454397686491117 4.251453453777376 5.355211034134709 1.366672970705311 -1.2415795459373713 0.35332099642390763
Ni 1.9061806528461591 0.20630403986083162 11.433232296728756 0.48501778544097757 -0.469538715968772 -0.3163968697040486
Ni 2.8048394496618414 3.85711735699011 13.087600733902779 -0.5427580775752394 -1.6719094529171656 -1.5707010622969402
Ni 7.719091024110666 4.695011921504392 4.3499130524373895 -1.089563071526343 -0.5789206435387256 0.3668084893873812
Ni 1.5631933037096792 7.619884872229834 1.9647284392046587 0.12817926278211472 -0.42968018921093737 -0.5204208475306199
Ni 0.10358797358361733 9.311580041895974 1.6452491595849046 -0.6526385420481664 -0.5754812788398734 0.3646397638708365
Ni 4.741931491464504 2.1516332379096093 3.8655838647854064 -0.520449129665394 -1.6610943645795326 0.6718030307917591
Ni 3.3515039741545585 1.0137338473828053 8.469267442276404 -0.43323319666951843 -0.6659537710998338 -0.33037235804753423
Ni 4.683080069654255 7.029429987172722 7.016823080357988 0.8399575484152308 1.4184945833622926 -0.010083095267614892
P 2.2880091975383783 2.0452029765039477 4.045994393308266 -0.48427216552420466 0.5021235918833288 -0.16844788049417445
P 9.052737783394472 8.395158106878492 10.926344016415364 0.49514870322739235 -0.14254221637200615 1.3076741235735994
P 0.312059246301898 5.347326726425797 5.572532305295297 0.2546541412786131 1.3794611236089147 0.5568628924077378
P 3.259261938139566 2.724445696106596 7.257112005644115 0.24717068841737427 1.3028954712380336 -0.15572657627276407
P 4.029762432048169 5.845548860955738 4.904993014542386 -1.70202992645163 1.2025268029102838 0.6347128108076812
P 7.791239264480757 1.973946142964683 9.244875883035403 -0.3537082045599973 -0.24337779703384538 -0.3963946876849302
P 6.842977391724659 5.357912182541872 11.748839527927103 -0.570763818759546 -2.131063226107188 1.8981981556792087
P 7.0586607028336035 2.7063297093675938 5.498180618665255 -0.3996484187355375 0.7992040206469526 0.7653086534510884
Ni 1.965189927949368 7.077110967134166 4.677559847144599 0.5912411127772914 -1.3042195893660957 0.7746702971716466
Ni 6.0458461187450885 6.576604602600229 4.7508112034678405 9.153127254177784e-05 1.179601561572678 -0.9162154397377058
Ni 8.580756437447011 4.213782229687098 1.8512634922257174 -2.2480908431478572 -2.3258685135489685 0.10823547267033619
Ni 2.4974526608315304 1.1375186855261379 1.9889468485397 -0.7207406370327265 -0.5273106326719177 -0.6898586027418894
Ni 4.522106852787342 5.123704323229797 11.826154213720864 0.3057378473283057 -0.724562581881978 0.1923444846061139
Ni 1.3487635334565866 6.795797828105556 11.688756850431773 0.13480756673190977 1.0479376826760727 -2.4609856411014968
Ni 5.719758357443045 6.675114342894476 10.50058861448778 -0.027956118893293788 1.5719881565394795 -0.924881085832504
Ni 5.547633269702968 1.7966118965569593 9.169369081720413 1.3980082904834825 0.0932143166711556 -1.7217073502758993
Ni 4.337632066245178 0.7437322896178822 10.796936815396343 -0.19197296019930807 -0.8719916940326402 0.033871970157096504
Ni 5.911141546924121 2.8904145054212704 11.113726089194321 -0.2822752454299913 1.0833458869720374 0.8158786530891561
Ni 4.371997656671138 8.412735535323868 0.7930688720578317 -0.8598337185138676 1.6791944166143533 -0.5729834521186843
Ni 6.683452710957842 3.5976622562924137 7.676629416853473 -0.27873175105310705 -0.5152557583899127 0.8735145584350699
Ni 3.9013812774333827 3.6347949220890667 9.424063512812223 1.1665753245163393 -0.1277457747891219 -0.004249776415289456
Ni -0.13037660594754458 6.503295676252497 3.560156313885351 0.169842703959172 -0.8024911760386566 -0.6182721487531545
Ni 2.906626967156944 6.39757111192124 13.567839664169561 0.2954968863265878 0.24651248600808512 0.0994333009976739
Ni 1.0754080574906753 2.2466052073440106 13.047346287100668 0.16992703614286217 -0.021921225553123536 0.07606248748221739
Ni 0.045935308251073864 2.0232149413435385 2.714380227308504 0.4025295969380745 -0.5934201227064811 -0.2702846487270184
Ni 0.5058492342262081 1.4854551996712742 5.53534949786441 1.3408045875789811 -0.5740052085149793 -0.8014017996292198
Ni 3.6130297386363646 8.977135341554924 6.16713316066454 -0.6002664562043534 0.40249360149381647 -0.31565382089043703
Ni 5.6498293486622 6.682756299371257 13.374436881087393 -0.6191563511303209 -0.674711976908438 -0.3609929111468686
Ni 7.473768435876711 7.437406465569211 12.197698152102413 0.32095774960185364 0.8242578782917869 0.27016226421654116
Ni 9.009439553684595 6.642011578812189 7.5044003316498 1.4359536593790043 -0.6094848894788277 0.49791006802261345
Ni 3.639744087097723 7.733604241575074 11.220477628478593 -0.2487372615735458 -0.5492825089573186 0.5455500384980798
Ni 2.046242951139913 6.431992415274127 6.963888371387355 0.379366785668366 -0.29224881170293543 0.38031835094835786
P 8.635726525348034 1.97823603833804 0.6812177428622009 -0.460039261118769 0.18526623760309383 0.7421013620966896
P 1.930805766547766 8.752593675064633 -0.19815138155388945 0.41602968830703835 -0.8016954196102386 1.7708881828759244
P 7.943493408283639 8.303306061351986 3.3755190313063177 -0.2539933677661626 0.6000450842221666 -1.109891755781366
P 0.7356102734207496 5.561737925703247 1.6908715468964066 1.2527486751803134 2.3834049172025407 -1.0699105874027381
P 5.383280135269168 8.640787116210543 12.123699314009572 0.38287916969699864 -0.5860449132883326 1.6539682950577128
P 0.33426920462123166 3.8333279371924043 11.180127541151922 -0.5587752789391022 -1.169554204639005 -0.20095433776231197
P 0.7957143075380684 9.141729898672072 7.073099636395442 0.6935342518212636 -0.5589231173708761 0.017309694923041158
P 3.5166928024922592 4.60401414085743 1.132913083566863 1.5065705503656184 1.8538826215912845 3.4724249717412197
