# total energy = -340888.7678978038 ev
CRYSTAL
PRIMVEC
9.06321794159385 0.00000000000000 0.00000000000000
0.00000000000000 9.06321794159385 0.00000000000000
0.00000000000000 0.00000000000000 13.26493558163446
PRIMCOORD
 96 1
Ni 6.650281253820681 2.242865506989626 11.35673516116263 -0.1752877862341433 0.10860956818030326 -0.6281472417750215
Ni 4.846655546283694 0.45712334130390947 5.623337986401582 -0.384085531300274 -0.7994878704359586 0.911116942168876
Ni 2.6964795702655544 1.405342590440869 4.531435009949039 0.18613912712635042 1.4769642974634112 1.3433885462560733
Ni 3.4464336740396457 4.5187936334164265 4.494372792387516 0.15803928356634073 -0.3981960025597271 1.6513951350138976
Ni 3.511435073876109 2.7714414467361883 2.4241135541465626 2.4095273253212053 -0.5738964508512568 1.5406690347112242
Ni 5.075420233019912 4.613377376959835 2.296810687129979 -0.18603268345547314 -0.5229292157747704 0.7154480211752194
Ni 5.386941163747588 4.733383447126401 11.455226964328107 -0.537230719999107 0.029234985605717394 -0.7956530700709007
Ni 5.948371268916234 7.686714616857286 12.26066065105799 -1.3025488865318922 1.9104039537167805 -0.7787498665576588
Ni 1.7830975186594646 6.538549901731457 0.7804554577910505 0.9231422487645263 1.1041713083578208 -2.076438596783772
Ni 2.8778980059217836 1.7457117442136463 0.240634783412991 1.471271875064324 -0.32881066998736924 0.019111009797838054
Ni 8.274863088829877 0.0914070856177698 6.849362995129626 -0.2227943164555389 -0.6663024126885041 0.3925390613842659
Ni 8.698903871616906 2.3883029669973945 1.2324064205552683 -0.042897827804790636 1.2438567720073221 0.033216853071600855
Ni 7.1641385274581495 0.9040405927645617 4.891882816984184 -0.05162106661040142 0.39117406271593924 -2.0985328575796505
Ni 0.8623035673341525 7.865649730768507 2.541694307163624 0.7458708564414509 -0.8960865301983149 0.008295921460205066
Ni 7.808913985791338 4.067418184998223 3.5396950940699283 -0.5432614995742192 -1.2030657061328895 -0.16488047485789023
Ni 8.030627488886624 4.020226008625042 12.453705382825515 -1.4827824468070852 0.07775067381791771 -1.0210588560073575
Ni 8.39920137722313 7.505305244419104 8.885675950173775 -0.23456894049296376 -1.5566913782814094 -1.1322420984521082
Ni 6.991031062751452 0.7489816204775975 0.07015383929645007 -0.6380750424116947 -0.23659522689437315 0.9872678755998416
Ni 1.9115505080462725 6.330476541797615 9.126554534152243 0.3004148924534955 2.0484271991725107 -0.5179371618768176
Ni 0.029677507496444124 5.147182793519788 0.995306292180791 -0.9970565795554893 -1.283665676474144 2.478765076572105
Ni 6.511079287829572 2.066232450462462 6.830553192393904 -1.0481896507858786 0.2549662732023932 0.20985832512016114
Ni 3.5409811647108644 4.4240195622940215 0.48433202820422244 -0.6031854296233612 0.3300607403443864 -0.9123297315300546
Ni 5.950120469999396 5.546290663458226 4.562302517975117 0.2464386953473562 0.21485834943791385 1.1789065923881825
Ni 5.25487195035984 3.003468891969496 9.358504942032148 1.08473042602439 -0.7299058484717623 -0.5749531742505453
P 0.30534434762832513 5.763798833379485 12.265767774427738 0.8920745808254442 0.2073036770191075 -0.8703063359104174
P 3.9288868971426276 6.322210886938321 12.34152358879933 1.2538676192761051 -0.5271357976569502 0.6193000757970367
P 2.6266384119917423 8.673626556482509 1.3980050091096365 -0.17702199531643062 -0.7513619614630092 -0.7886766387530676
P 6.594678411099445 8.022370897245377 5.59078562614048 0.18417094765638606 -1.162405766519682 0.26728057179337195
P 4.9615590246895325 1.0923987344797395 12.498581000665762 -0.5004624021308219 0.8815271443269013 -0.22031088791205283
P 4.033793646042105 6.374786614831701 8.038577743757866 0.11757911866876525 0.1079020005903174 -0.5416098229034091
P 4.661657139498713 1.193199845603713 3.6173877181382648 1.140235915290862 0.564605255357318 -1.0589252920358279
P 0.3596321174108723 5.463579735557004 3.2704431996720476 0.6121691211792102 1.1950256094372322 0.23246783498956095
Ni 0.6706545711459382 0.20887182944382376 4.671352970165898 -1.2105704991503667 -0.43967895229486215 -0.3443195642562457
Ni 1.79626637448244 6.779522743177618 4.486029193853014 0.5347938284228403 -0.8986979996792328 -0.06035587538023799
Ni 6.017686760543293 5.87649088658174 8.941721077935728 0.41512260311173665 0.13510915713272859 0.5007038287176667
Ni 8.988509941105798 2.527649944477263 10.271331418371929 -0.7374052421726011 -0.5143515014080883 0.5766637291837489
Ni 2.492983135445686 5.373944509067515 6.812724936172724 -0.5328662723828242 -0.7931984378828211 -0.225603760879876
Ni 0.5700755088641275 0.21271463389595152 9.465195332243368 1.2661024707794002 0.06090197769169511 -0.5645898287383503
Ni 1.9235230190869819 1.2552103834845103 11.328136176613834 -0.9653340516412278 -0.037363271139806614 0.12079839693701129
Ni 4.166152882407373 7.200482031828509 0.9656876956016553 -0.27581046364125406 -0.3030150490805039 1.8467169570807809
Ni 5.823824526507885 8.197599154975185 7.728417202059114 -0.1597025302013766 -0.6375502802564762 -0.24995699291325985
Ni 5.322166344362313 3.0960587275424607 4.609233673668531 0.3483909061121419 -0.7163751609751792 0.08510274330761472
Ni 0.6227300867545204 7.218853174810732 6.45530152500002 0.03758104357756754 0.03574347614819651 1.2785754064354302
Ni 5.1245610012733005 4.740244303188336 6.976361338019815 -0.6198888584209712 0.06577936038865446 -0.13740900891049884
Ni 0.9753110205244602 7.700916679537674 11.657583246317605 -0.06182988882260319 -0.4913298437019345 -0.500806415733802
Ni 5.0219834994120225 0.43608036164129105 10.439464989014175 -1.0013940305885785 -0.2155216940535256 -0.23812760437849956
Ni 8.334653138289042 7.035060176026066 4.4317885528043135 -0.36564352254500254 0.46657269136191254 0.0999971439209439
Ni 7.466424038995453 6.049525845544058 6.620011918185737 -0.24515545775955844 0.6492559987291786 0.9080439596705071
Ni 2.5023635661248185 5.184595757619749 2.5726152881761815 -1.1433315234970503 0.3336428012686899 -0.632143250308292
Ni 2.6911322716175468 4.907913837066551 11.456010026367409 -1.7043452048483678 1.4117940314136654 0.5537665128706011
Ni 1.1940608513182227 3.24755041720594 3.7719373375709613 -0.19521794949916704 -0.31915977716116645 -0.523638326026653
Ni 1.5153247414469309 1.1645600765737043 2.280640093489681 -0.3050971284205133 1.2073550775368627 2.5800138335119627
Ni 1.1076158775814433 3.4468052659795925 8.010495362637776 0.6741319360352519 -0.10347044718152504 -0.19662228604586138
Ni 3.6773644698892096 2.9256974179041464 7.344556383841938 -0.23960161782086478 -0.2431749369944199 -0.5168256739801937
Ni 4.1243714472085315 6.799171799904536 5.573501163002148 -0.20015806711326173 1.2921680575182002 0.6186495866972312
Ni 0.9464627974793596 0.32726192783252456 0.27290709023642606 -1.6177599634579558 -0.9455782091705393 -1.7640559904454394
P 0.27175787418800673 5.512113268201212 7.868070516308987 -0.1989545337234638 0.8931287331215715 -0.6438888208799943
P 8.776457828449116 1.6994168264271639 8.201444678392726 -0.30717278000261933 0.625934807504735 -1.1722782884383876
P 2.0846035934446854 3.268975864670162 10.203003817512045 -0.4322008987502621 -1.5279631571087813 -0.8492346028417825
P 4.296355072877343 6.340373575905454 3.3557897113814734 -0.5958724409017156 0.551170984229283 0.1642634100991816
P 7.181422084274677 4.350643748981695 10.30889755085689 -0.1325768776291781 -1.1374025596071249 -0.8898832296010803
P 6.551619062155909 7.956662566401213 9.892471683873346 -0.804731378223085 0.20537020744182052 0.13414345078534962
P 2.394620029976482 8.474018242205005 5.875689698106344 0.46324234143709897 0.2395728214654584 -0.4747256594863502
P 7.019933665104837 4.25605094222024 1.286100549555706 0.2829072225870354 -0.7445791342132209 0.7868365002205352
Ni 5.552625852873407 3.150238645030243 0.09432906711627448 -0.4201300836286571 -0.4012818405739025 -0.10773590732609833
Ni 1.5519492055767616 1.2469356654071693 6.88964809302883 0.6075177384501279 -0.8646707348911947 0.13763398043711136
Ni 6.868741061636924 0.9948875715069977 9.044298579797006 0.644209951664839 0.04497630760037416 0.05925518611689149
Ni 2.6913225991965435 1.3706848446273396 9.005365714030484 0.7823843779864527 2.371971735664934 1.3477221406344209
Ni 6.287371876763842 2.1978575661658843 2.1974959437657904 0.5799521701270335 -0.12617405942662788 1.2200758675376409
Ni 3.975870619500718 6.931195697202048 10.23412328299984 1.354183322878732 0.32890425814244 0.22706029082074444
Ni 8.407195135541 7.481233337285021 0.2820301255230105 -0.24608953953805357 -0.11612644538263872 -0.2403428668622635
Ni 7.643347118500136 3.724447887645822 8.12620546744984 0.25969838857073985 0.7358849488733326 0.6733081545823758
Ni 3.2180043263711844 8.419856451153318 12.197692131029575 1.232169308367065 0.34297564863384156 1.5371044572884172
Ni 0.5393403238215435 4.773252543317225 9.958504477923611 -2.006523874070506 0.7358114153229199 1.786481152218175
Ni 8.811577798383066 2.4575278264439793 5.89138266015554 -0.6671205377144253 -0.39917662130544157 -0.27270688501526585
Ni 3.8011317755454748 2.8493035529820125 11.40255244735801 1.3908950764774692 -1.0980906493813798 0.3883653896225505
Ni 1.2539505961759119 3.349203470826376 12.700127937283618 -0.0846376307457381 0.14558768806654926 -0.393085163695723
Ni 3.1301364274009518 8.464365914984448 8.14459111158094 0.9423118797144416 -2.207619879617005 -1.8763517492280783
Ni 5.850606335838163 8.23954372809888 3.340283451624055 -1.7549056914047387 0.028768073271627875 1.1541718086456638
Ni 3.266492542925155 8.47361039739287 3.5129658514043265 0.8059287409652959 -1.3123291058471076 -0.43963241532764286
Ni 3.648652195114821 4.604894204867403 9.342269093221908 0.1400734431165394 -0.012140492017275866 -1.192467876012385
Ni 7.420881368306912 6.388308936158528 11.027950612698131 1.709705697829333 -1.167352826112312 0.7787015298182267
Ni 7.90018965474742 8.818964321091755 2.5080543607368257 0.5127553605655621 1.166770471246281 -0.03268797715132435
Ni 4.713770643271673 0.41523949174113123 1.355172240617288 0.2795005108983315 0.6106943364058967 0.3344349581526821
Ni 5.8763186854388385 5.8129396016328725 0.29295583487923693 1.027498183874798 -0.8306614678252854 0.021392863853479285
Ni 8.136857467621033 8.96961313147682 11.092908509087966 -1.2104478575295734 0.604568683124133 1.3089115955251263
Ni 0.2935268176162276 4.661602760190429 5.488327758757429 -0.035788984674151265 1.7886290517991132 0.8457800686342788
Ni 6.885036727686277 6.174009145426075 2.6169462066117766 1.5282722037087682 0.6195170769038492 -2.1451024778090733
P 8.456308714140247 1.779046260192245 3.279158390146496 0.009146699496274571 -0.28779668946885273 1.4872782777949096
P 1.763158438955028 3.246390325295864 1.5597172897652491 -0.9895990948361796 0.8980979042013888 -1.573979733048212
P 4.795393985007197 1.0921540275924577 7.958311165764047 -0.36881677806666163 0.7779260851047828 0.5788679359239192
P 8.574574646441697 1.7888798517737512 12.430505357267597 1.1783743740337964 -0.14431961998740306 -1.8211447650386312
P 6.4541169624012165 7.977924875940579 1.1473481191797519 -0.45809884956294655 -1.254093619243982 0.38284934490032774
P 2.032635101160486 3.1727607418782084 5.88602357932407 0.04614384554591408 0.6610033690730939 -0.5440839954755146
P 6.842167706321739 4.09735399420902 5.954563259486266 1.5540945640885104 -1.459486966614254 -1.0565215676903417
P 2.4771950096069917 8.431393927727749 10.23851441214384 -0.9108765440232958 1.203838836853488 -1.2516359017321088
