# total energy = -340868.5968649447 ev
CRYSTAL
PRIMVEC
9.22381529948824 0.00000000000000 0.00000000000000
0.00000000000000 9.22381529948824 0.00000000000000
0.00000000000000 0.00000000000000 13.49998604833852
PRIMCOORD
 96 1
Ni 1.8777751137995857 0.5425162275619727 4.1244484227902865 -0.08323483686094053 -0.3514160660917109 0.349802698858004
Ni 5.667619487028251 8.846653581146978 6.482503914553703 0.9863926720837399 0.5946177425590082 2.176765099019677
Ni 7.120693244893344 2.963104575779171 2.0676178374459355 -0.8545660423570252 -0.17625580657436743 -0.225981713044585
Ni 3.193524708100419 3.0776366915084434 12.506994663882727 0.31157476572505693 -0.4562111456219304 0.4207499766008431
Ni 4.756509450183118 7.523921558593985 0.7036000171958965 -0.15138552569524896 0.2730030760994459 -1.1671543369482609
Ni 8.082672623628381 2.3827790065416035 6.677107049324148 -2.2509959326097944 1.0318814005441583 -0.7773388451427451
Ni 2.830217067418728 2.517723425734585 8.400555740646391 -0.27619767177734367 0.08622374428593538 -0.17139256494479516
Ni 3.868468175634747 7.2879394655910295 8.214107381064498 1.3878125808974036 0.6524696205704699 1.1062505594843528
Ni 2.249061354795831 3.814739450973154 6.41523370651431 0.6918725478481246 -0.18884109943854574 0.7802495910316368
Ni 4.970704891228874 8.96180369250755 10.906516956992398 1.569379258161723 0.6572331033973842 -1.979587454690978
Ni 1.081667607268744 8.769191979480357 6.524327460688136 0.5634215194618619 0.2349517777536792 -0.7106889092236792
Ni 1.2190563375407504 0.14180048117426242 0.32376514409383705 -2.083084127124748 -0.2321464470944002 -1.6824977699559733
Ni 3.831286975787385 8.434828671500481 5.263549961363811 -0.2672263215166688 -0.41535168840340725 -0.6396531855320918
Ni 1.7079738962381643 -0.16795368733829383 11.618102031173622 0.5374086403378681 0.12757813886300612 -0.4897930953424339
Ni 3.321938665995477 5.591938081732392 1.0052861143845908 1.1735795237483144 0.6909364091871003 -0.9396207060355236
Ni 5.267960789884527 3.2441265593439397 3.7840730319375484 1.001928820046126 -0.14970788088250991 -0.7013570902997921
Ni 8.9645892847561 5.603384836634545 12.66406701620243 -1.2654830920278464 1.1408617218003192 0.42001155577292176
Ni 4.99421639666448 0.5656532460926408 13.225288218998951 -0.39685388670953586 0.9352557441986086 0.40753682034467875
Ni 0.2715463580120035 1.8529353789474532 1.822714470195308 -0.2934124929937334 1.0240001980238687 -0.1969948388939317
Ni 8.03528988395686 0.24243599663312115 5.8851438030491785 -0.5445773901721653 -0.49617277361653256 -0.598628406380298
Ni 8.334381321875632 3.7344922570579833 0.2753050627844669 0.4928455090155125 -0.7622570111089582 -0.4066405337826545
Ni 1.0582483399870637 5.922602639739855 6.7337394310713155 0.9457162774103003 1.2946735975488737 -1.9514580434446132
Ni 0.27264583680679527 2.213033131872538 4.470979788036011 -0.7076768618702328 -0.18560536611006745 -0.6667094183189357
Ni 8.62054097061405 6.261909912770136 3.8673410253937774 0.3034508510663419 0.7119281809474192 1.174060577149791
P 9.259419319963513 8.276179046748652 4.5177159382485135 -0.852966301970073 0.965102395246396 0.14803563538640957
P 8.319392621862741 4.336715164037461 8.775274163350204 -1.1955100052728185 0.8932464896463583 0.5751588625034482
P 8.97034494556105 3.92436449691359 2.6887919955309427 0.5096988331274254 -0.09184957511314504 0.29777385528622263
P 8.657731394276803 8.739823351270484 12.182468555019003 0.309745425825802 0.860820250796853 -0.2504215912545042
P 7.468366518484666 0.6751408571837281 1.2452252241909492 1.7064676505080094 2.6216680187176395 -0.3303319917279021
P 1.7600146626829218 6.912631641083633 1.8148972866501232 0.956150842480063 1.151661126408668 0.7332760504955759
P 6.266835430189757 5.325028535718223 11.886089841207182 0.9651273349470604 0.01519676234509641 0.9062027926967103
P 6.306802222285669 2.0865561752099158 5.275794576297418 1.0406491194344594 -1.2045494897672675 0.5658841220697416
Ni 7.6625001610516295 3.836729026868989 4.6892604569191265 -0.6223933700103798 -0.44055518425222834 -1.4102110031972614
Ni 3.571479767625478 1.6961489649049175 5.61954496120229 0.7794363511017222 2.344097634962486 -3.0500503150527596
Ni 4.634764310816872 5.167578006967425 6.5756681395445975 -1.2761218026886152 0.7342111607153355 0.9506661652164079
Ni 1.9197803690972506 7.313212719766612 4.514165691703922 -0.3939397983865345 -1.252053705995818 0.13958081975083703
Ni 5.781837993034177 3.422118524973943 13.024435949300058 -0.5798130734460079 0.13589205804534019 1.1988388125357354
Ni 2.164054672138106 9.063846762195311 9.32269930546409 0.16909836959397975 -0.6493236187423204 -0.7886221313660483
Ni 2.602969927592516 3.952949100815097 10.380868320638779 0.472398039794438 -0.23837263050977012 0.8235235712289236
Ni 2.6203568196074696 5.362707821596783 3.2418325964558123 -0.17708035935819177 -1.0428767232133975 -0.042859004147055214
Ni 7.420208978320172 8.379375093360482 10.28373601026601 -0.12414803013553456 0.5735971744432831 -0.7206869009766557
Ni 0.2503675554891734 4.280698933158515 10.939430297457626 -0.2223960525758557 -1.6892404879964453 -1.2935939913314494
Ni 6.654503167323169 7.416454885455404 12.22570887919773 -0.14948599467969093 0.012518187071668763 1.3251985056106081
Ni 5.833666611724905 0.18789649859852245 2.3398172415877316 -3.443483091895889 -1.5485620643060558 -0.987698535379357
Ni 6.891103255957424 5.909984460282851 0.7735193050160303 -0.5851735664269728 -0.9806416285325755 -2.9764825689679384
Ni 9.460867448136767 2.48621487235364 8.4232214222105 0.0019720361247062813 0.13989372300556552 1.1835407487260845
Ni 4.592685264996068 2.229608328132947 1.64409620750015 -0.9342111049841781 0.06360369289357433 -0.4285334772010039
Ni 8.276704804226027 7.245260871769709 6.915462430027606 -1.1345766601225558 0.7226494240196651 0.17187798922164593
Ni 3.4594657534983715 1.5375362354146573 10.599243994820437 0.31032315270614297 0.7483964510767821 -0.17134422820536296
Ni 8.210772971800093 4.910122871730617 6.580325243936295 -0.2903976174268096 -0.6719117884554815 1.5124702036795048
Ni 6.738845735272631 5.295383193046574 2.9277423123272195 -0.6049980573520678 -0.9735078457012718 1.3708571839899875
Ni 1.5622283892205089 7.013577076739681 13.06042635458024 0.7897580447427044 1.8686518094806592 1.1799242350194195
Ni 6.143227080114218 7.980555763417479 4.298570997863116 0.6625236623723623 -0.41400802989131924 0.06599250484072505
Ni 9.187999317379012 5.779799529832423 1.5287118112286064 0.25206529750551426 -0.3303620736348891 0.2283468708426519
Ni 7.326052270793039 1.1897614998540171 3.5313534035232754 1.9350459206351769 0.34082954882511624 1.969890539118188
Ni 0.8672083651027609 4.54711961695688 4.6551323399666975 -0.329831912163032 0.040543982860633404 -0.5548733727815347
P 6.761591664030655 6.171442731400024 5.561562212881652 -0.23751388205390064 0.014693083235800503 -0.5977992256107834
P 2.584928144684692 1.6912418951160817 0.588805022727937 0.21524530046368734 1.8691565170312199 -0.43909094100187607
P 6.102928230664175 7.660480145480662 8.583440017960601 0.3913229295889777 0.45425710721935314 -0.1446016700041961
P 3.149960628001414 6.736650467209204 6.4082540454067685 -1.6253668292709362 -0.23901232097629804 -2.2096834470142523
P 3.6169255060645633 4.98788885930519 8.728456843562245 0.16172495994804406 0.34558428990128226 -0.3233002816921013
P 5.673873233864399 1.8708388046243893 11.13229105350042 -0.5005570187271574 0.1516878874270162 0.3645289493245851
P 0.8944831872185262 7.089811910959093 8.572505184812735 0.18923679221506765 1.475496711778949 0.5995426906644512
P 0.9270672374742422 2.03195118808603 6.458758124207127 1.988707671824691 -1.3233401122456305 -0.14550926942013007
Ni 8.179799399711914 8.027302059826916 0.7045436135105543 0.3285995824178276 -1.397461159730761 -0.8125146217129295
Ni 3.2291747545926186 0.4001143536241161 7.197395726553157 0.2696519002390259 -1.9290531933868518 2.5469602454911042
Ni 2.9134988965980466 9.17184841662666 1.7826323804069892 1.1289189476161463 -0.20439653067464156 -0.06044149311550882
Ni 5.2271546305878935 3.0820180038199037 6.867024485875177 -0.18595272214715716 -1.1261388137678474 -0.6129841608813379
Ni 2.3330718653911613 2.7689801570276003 3.2218658032755636 0.27762643380407026 -0.0916189471595777 -0.2893241818569727
Ni 4.807378792073021 5.878973992933102 4.477972362485102 0.0969634993009427 -0.3959357457706407 -0.6890404777159681
Ni 9.141788002262345 -0.14252824020873447 8.515332287483565 -0.04695811391709333 0.09689665061874925 0.4449769674690078
Ni 2.620329148161292 6.6919426340015224 10.228953003505048 -0.6105899496175484 -0.24638264529844014 0.24690895011555547
Ni 3.9036847028034964 7.370926132677787 2.9390682352477295 0.2842639937252459 0.60560226659497 -0.01268659432873299
Ni 1.9824746423204012 3.81595699460497 0.9149416097591982 -2.0003485984977294 -0.9428068170729893 0.568864544854304
Ni 4.265184475668248 5.189908864032784 12.222509137638056 -2.1773597951808825 0.7448928087988977 0.49438251448532927
Ni 6.608144271160222 2.896757671660571 8.66020060965739 1.2510630599477743 0.6240890125452478 0.8452943872471119
Ni 7.660756859942438 5.969081445502907 10.442523069867189 -1.3181873644000976 -1.7106120116936863 -1.7547038598065778
Ni 7.1805281353448045 1.4876353941409712 12.664404607845798 1.422486478130505 -0.47885742226653666 1.0128511233855848
Ni 5.0537100059464155 6.660175813789587 10.328447532999848 0.5678451024508543 0.04941994519402457 0.17039471980790008
Ni 7.023750945117662 0.6987132398009245 8.520232900601625 -1.3735882097679053 -1.1023088012277855 -0.9818042813821092
Ni 7.172697116076531 3.494257985159064 11.09146736895454 0.44498982298481427 1.0060726670111706 -0.017490186364963425
Ni 0.5273153797950532 8.798800426890438 2.3321227347872675 -0.7413256602729297 -1.6104413183093556 2.354677981581493
Ni 1.2098601935943798 4.901028189753563 8.750745271076799 0.25616132195175884 -0.452359375976008 0.08390178102097809
Ni 5.101157312325684 4.1169024194176425 10.12004833754677 -1.371787923334373 -1.5989775406441302 1.7874406879179672
Ni 0.19534196238338739 7.165170482716212 10.85419117465201 2.288633026236278 0.9009569709167387 -0.550877107137948
Ni 8.236378283329806 1.588202653365925 10.53726548967175 0.8907453204910595 -1.1275107544147098 -0.9462546664122736
Ni 5.919946180906802 5.28241450860465 8.450883644572752 2.2701033428632065 1.2785512380657142 -1.1300237506445505
Ni 0.6368841604615949 2.0782824128028 12.345656296943968 0.3991539955976222 0.23693821205608873 -0.1068229085935257
P 3.7889681107663735 8.200617551052897 12.325095490052439 -1.692920507951194 -1.329569123874478 0.767643215121536
P 6.250020414729142 7.2626200923384845 2.214376119393693 -0.1620949416929531 0.753001039728329 0.8995482634946702
P 3.545929798988119 3.8435362026286892 4.663354449007615 -1.7995878648034622 1.5995688943712258 1.3083202417980306
P 4.010275113479785 0.519040695006398 3.5463651630746478 0.21318019040454253 0.6022580327130854 0.5432591855813741
P 1.2543374314172475 1.826739743232616 10.103093120092188 1.1637393977294408 -0.8006700636695179 1.9653085761744604
P 4.793792111999799 1.530581478608676 8.361797268366903 -0.11286500102254757 -0.6755234170661398 0.00312980387823332
P 1.8819258307262323 5.374468186222282 11.928749987397717 0.456166408426924 -1.97940464925621 -0.5667752664254432
P 5.04742858766409 4.443656079698665 1.7547414074230019 0.26585155265632926 -0.7931565289012921 -0.4874662469814702
