# total energy = -340870.28453674115 ev
CRYSTAL
PRIMVEC
9.27117187381414 0.00000000000000 0.00000000000000

0.00000000000000 9.27117187381414 0.00000000000000

0.00000000000000 0.00000000000000 13.56929718174215

PRIMCOORD
 96 1
Ni 7.699532185511105 7.742161034321589 13.120900071051436 -0.42265156449893015 -0.938183716478681 -0.7828795724553163
Ni 4.280490836657662 8.658301165695415 2.809590659794962 -0.561666227333652 1.7480891827035379 -0.31204990558926254
Ni 1.6445112164321332 6.133927913886722 8.094845687997024 0.9012145954534996 1.8946675168181302 1.7460736949354059
Ni 0.11103804557384317 5.6658449824505 9.85736223575356 -0.07060609235333647 -1.163017431961752 0.10624415327192024
Ni 1.2650699603932676 4.240096340296792 11.837176512614086 -0.923297543395468 0.4342179291802909 -0.1921598793991336
Ni 8.974077283678255 0.15006226271457648 0.7156964658306412 -0.12845848458543038 0.5595658931611975 0.27442952413332733
Ni 5.140271513503663 2.4955120934035078 12.806648133743767 -0.44564134052588417 1.0208045739047065 2.4913205446396125
Ni 8.629180414474506 8.699817473867087 11.147042522194551 -0.04145466760036086 0.9542981055420403 -0.26960279216864536
Ni 7.575224311467831 4.513113813061287 12.60343516912714 0.057471354743591344 0.3219368256856714 0.5098636408400639
Ni 6.530548651623245 1.4188879748810341 8.62080483769865 0.879009263001054 -1.5062851579147156 0.009057482216577949
Ni 7.36688253450628 7.41376685126022 5.804267288731506 2.769479453908385 0.4072840809039244 1.1317415046666057
Ni 1.7406347276255005 8.564393464607681 8.66349394912707 0.1478533441722744 0.4135886829657135 0.6092244367285895
Ni 1.3532666195350989 7.857132838170832 6.349535508336914 -0.3712402999064897 -0.4470569899264882 0.5837748863072333
Ni 3.223271281110469 4.202742788348675 8.222696076857716 0.3409635032998192 -0.37388236551502707 0.20708281925755304
Ni 2.1476577203349168 5.537467063903571 5.916647800009515 1.2354829461213304 -1.2381270686123966 0.04920731496258622
Ni 7.61378311577466 6.248658667264222 1.349504377941516 -0.5050425653023366 -1.0271467140726505 -0.6914398311860802
Ni 2.640188732309035 0.8675211783405359 4.627333724862133 0.7321586490616809 0.44212355718061275 -1.1589211504051913
Ni 7.246820857234471 0.7870483325836578 2.4541969696640207 -1.9380245436475267 -1.416652130836915 -0.4104359962693447
Ni 4.799491044663518 7.959950135541053 10.013965310307153 -0.6905234900193978 -1.4777693098632099 0.05820411914455782
Ni 1.70294741348574 9.075846938613594 2.21468551247175 0.35105868275229213 -0.555387850524108 0.30108543615795885
Ni 8.315786987693121 7.920751620366906 2.854641138729261 1.4339183741165304 3.873478755464716 0.4507580929271592
Ni 7.057392271132726 4.968235646055348 5.9211665692374895 0.6865339092440306 -0.7695224344221199 0.28798258022741374
Ni 3.3296394373528986 7.658219843123215 4.771697925271593 -0.6679083237230432 0.1925673992501974 0.2597179289547656
Ni 3.6267063302597164 3.8318031970247315 11.089670655685408 0.3674885461735413 0.29209891638863245 -0.5653580743629425
P 0.8935620462263316 0.672274004697804 12.17290790118842 -2.8853709004620822 0.19763710046362093 3.2897614618682955
P 0.7868647633782537 8.70099491270983 4.454840788634706 -0.14591730349182613 1.4524997366631436 -1.5199675404978146
P 1.9346154591743847 3.0591622657136908 5.820482568542192 -1.5043737998246156 -0.90360674983476 2.898219731400293
P 4.495989958395571 2.4812252173667617 9.180945871410579 0.07736140879929902 1.5117960604306158 0.15235380314578922
P 0.4299144434701745 6.7754837444297245 1.9837359826123382 1.544324114965308 -1.518201192626011 -1.8607009300646986
P 6.698746253867658 8.887113690411107 9.869872755237004 0.693131102845574 0.6596836218204059 0.004777366783985321
P 9.12043200471399 5.983966706946837 6.417408831359245 -0.446714776095721 1.5687449670118336 0.3069310963054585
P 9.376028945309086 3.4053107431361034 2.990741016426745 0.6768081973158344 0.4638306098404012 0.9508790525581623
Ni 6.095591617707654 2.260070680714892 10.912537497876935 1.0046331063511666 1.3674466156465417 -2.546332639209434
Ni 0.24661224781948873 4.617637006077686 1.0590876967031977 1.1296491409139513 1.0982716550439344 -0.11326866421886944
Ni 5.886573045190826 8.264953151671397 7.3195235337464455 0.3164349220308357 1.1447088634605513 0.7888974965146219
Ni 5.675811492339859 2.3119521591714975 1.831705450084263 -2.3439132868658215 1.0992617868713455 0.5154460200238478
Ni 5.4109062950667015 6.538642384770602 5.298688029298519 -2.4078939034828406 -0.24454687764128208 0.5207892866136321
Ni 2.6291374952968343 2.0210227821221265 12.556051136202935 -0.17620849827619975 0.9985686453246415 0.22839983556777438
Ni -0.02237411936371085 1.2071714913150864 3.053091502294573 2.622750453148541 -0.34382025602232397 1.0037812998738327
Ni -0.1272088237589774 0.7556348205295984 8.626844079133003 -0.6695417455614082 1.0390041276318687 -0.5049042399522594
Ni 2.367551377596133 3.63623709506554 3.9511352330609193 -0.3787224672161477 0.31349229446274396 -1.3015898650527327
Ni 5.055347578074336 6.454812447636108 2.5289782429361756 0.10773950687052412 -0.374316110618336 0.18265296834996284
Ni 0.04888503566940478 2.494232671668874 13.397510122962098 0.38337693526902367 -0.45997395509847233 -1.1358652970269922
Ni 4.911357005896077 1.7446955009571647 6.567946705196914 -0.47046199911398984 -1.2647536700609896 3.0676924536145553
Ni 1.5997129133759649 2.36544682155438 1.7165565668500093 0.8680905592060211 0.2703594678290118 -0.14050281734447417
Ni 6.382246984469589 0.3080662113558735 12.26251934117594 0.7066880155944023 0.7216811465691249 -1.2573602058103959
Ni 3.8063631010838943 1.0351170815227915 0.8864723810055014 -0.13010630460149852 -0.26171953276582666 0.039899921518731285
Ni 0.7484765486360414 1.002334217365794 5.9669494707590065 -1.7617260567606818 0.464901988527709 0.8785387511225387
Ni 5.162717020891697 5.177680692483721 9.58510778044385 -1.2082266815085385 0.6912799085694481 0.9404527150185158
Ni 5.763359169442382 0.8595145942098845 4.518480894526356 -3.230248651214643 0.16406492093513034 -0.9904015361328169
Ni 1.4387282829398502 7.39536357485987 10.856360685437316 -0.5692316983857357 0.6050975590444095 0.45440545987175934
Ni 4.372609201551306 0.9476899296561386 11.119266090912209 -2.316372144022759 -1.1396101087814052 -0.4919517935566495
Ni 2.871689896901858 8.790739857574009 12.600069733694735 -0.8443978435747715 -0.0890136483262467 -0.9365978600487999
Ni 0.734396419734675 7.5482915568365865 13.275766655091283 0.90958122225064 -0.4447404259781696 0.14312997055467608
Ni 2.539837566688181 1.6769417760535066 7.425757257995018 -0.6322849180924788 0.6605773372792688 -0.1263329536019953
Ni 7.775917371537547 9.54337359973041 4.797221461760341 3.0800147226253345 -1.4216133314969324 -1.1314566264363355
P 8.35604241647414 3.108345833121177 9.040611849465217 0.5735362392983606 -0.73519177946105 0.0213470982172084
P 3.533354899491389 5.5880042224216115 3.969087003385352 -0.4322029556327911 0.008686729140720523 0.37956527483241725
P 3.7757218776566104 9.295926019314614 6.28578692973298 -0.08770444259651991 -1.3757561639535016 0.39895499221293873
P 3.5480589782676892 2.010054985657837 2.880056202505725 0.3822482209812191 -0.6519913953824708 -0.75635812912602
P 5.161687920800795 5.879322988694567 7.573825291614524 -0.7684816518624313 0.16302953769208053 -1.7360759602927456
P 3.0298004640210405 6.216793649134245 10.318785684349292 1.0944787636604052 -1.3760505552654687 -1.0692120186738168
P 6.281181938605497 4.65933873768916 2.0794135504329816 0.27435059126627587 -0.3837109215696747 -1.7611012786924898
P 2.232720723344094 3.916448997294354 0.12279111030569426 -0.08648136882269623 -0.5599253333831453 -0.11873508665007938
Ni 7.160960533434145 6.0798491676684625 8.164293256023273 0.5322612918089735 -0.8538595032083036 -0.031547950009610186
Ni 5.558253031505378 4.38951981926125 4.002888769344061 -0.8689783611276132 0.930493804033591 -1.0971797075313363
Ni 1.519535818005571 2.7047068181881477 9.749214941606231 -0.453071057331052 -0.2367384373404568 -0.11639281167014794
Ni 3.6856987976327296 7.60462319784844 7.640640773912785 -0.6902933762864628 -1.4824793137443693 -0.3770566494779506
Ni 0.11211999134508797 4.31612922178761 5.1142000507502985 -0.07283292480132618 -1.203213287454347 -0.9231995843650229
Ni 8.3339770271377 2.526551977226366 11.22921755512881 1.3407814476505298 -0.4227122425335365 -0.5646674760538211
Ni 0.41768669473243025 4.312569091743411 7.672732008639319 0.8563650432389767 -0.769726580013126 0.5760407508877693
Ni 2.5899667936386574 6.699163456607212 2.069426643965245 0.33029882449712145 -0.08016005459035871 1.085191939041841
Ni 5.095704989747246 7.566444511593205 12.455882612670283 -0.2809647541486839 -0.8754228312013762 -0.1329481449256678
Ni 4.977664427969279 5.4780203091030435 0.3194577003801106 1.1309853432268715 -0.47865199112394985 0.37631462910560354
Ni 3.4224624113177904 4.095568040143107 1.9134067261298295 1.5344328239935252 0.6704408603369099 -0.6872828715949131
Ni 7.290627144887698 6.281515700797141 3.817328116196587 -0.4119935705644518 -3.1289901240827724 -0.06743437949357418
Ni 8.33295719821879 2.7368221579618575 6.839740383258716 -1.0305675668287413 -1.9366199499905163 -0.8719238169091823
Ni 1.0300086657562457 6.60714707460546 4.221353739001604 -0.922567864318295 0.016218518741391425 -1.3133331216315898
Ni 7.002302967167545 6.899290975185533 10.686757573519202 -1.037075543150588 -0.6772056898645691 0.6197826718604099
Ni 4.007649516160978 3.797879978712952 5.82033330267315 -1.317042452162377 1.8132265386328192 0.593759508323771
Ni 4.074531750897567 0.48637309953829283 8.716278439735511 0.05611792603949045 -0.40399538285032355 -0.5234460075101888
Ni 6.321353926838604 3.5522124633192544 7.860761574887759 -1.252789555720578 1.4602706388578142 -0.03636851132670511
Ni 6.141224326242932 8.713520266068455 0.7912741327767459 -1.6655667985285898 -0.22452492599340043 2.1567179505608145
Ni 7.588760222573377 2.4765247331677807 4.111496840739299 -0.4386754507310122 2.5074768426845004 0.5431347441883678
Ni 7.789722146630807 3.146969535631938 1.5521916671063039 -0.04171974833628944 0.9521247520398054 0.15861418223320425
Ni 2.720338014163458 6.0248154907352225 13.466509893381225 -0.31449605313691 0.05899910424202743 -1.4524588561228793
Ni 7.282922800963925 4.534622932078322 10.199551922736198 0.23007799460114567 -0.7528819976519614 0.4868473824505487
Ni 8.548326523548836 7.661279329879948 8.961584379421595 0.9843069931993046 1.635567681063338 -0.7772537416281066
P 7.228287784426259 1.4902574568608318 0.34404577561505767 -0.49407886720198135 -0.4667596105617381 -1.1398541064714112
P 8.772800139773162 6.335770599283212 11.842265458919453 0.7613697234079985 -0.7258440196975628 0.26671158666377937
P 6.238247141119339 8.102262625589104 3.4585968041492094 -0.06158614824291328 1.123918151967445 0.5837689727699623
P 5.429652604830686 5.073658142754787 11.876446415812557 0.6656447244998471 -0.18907404138495823 -0.9684921376542354
P 2.0743320210652074 0.47236528577844916 10.541322552744887 2.2956220559596012 0.09949140792911898 -3.1244559836578447
P 7.715339533754227 0.3874367147631285 6.773237339456522 0.19988090219247512 0.1822225656807636 3.175694727228163
P 3.85277458806634 8.061154248984996 0.711555033302663 0.6669752703858126 -1.0028235639462535 0.9858465697722828
P 5.904151187284057 3.026407215072664 5.454654174336391 3.6844484228334995 -0.29653972576880544 0.23578764339141328
