# total energy = -381167.5433386661 ev
CRYSTAL
PRIMVEC
9.26381532497455 0.00000000000000 0.00000000000000

0.00000000000000 9.26381532497455 0.00000000000000

0.00000000000000 0.00000000000000 13.55853012889897

PRIMCOORD
 96 1
Ni 2.249560077391227 8.34064837562835 -0.11323254163132979 1.2594258300901728 0.9462958040628541 0.9183666817527538
Ni 4.835183584907361 4.948026119911675 12.563794838674001 1.7763713174776823 1.3239355797377845 -0.810253850703211
Ni 3.984181713706205 4.615482939626816 10.428448340961632 0.9128598930019116 4.155345452602379 2.041233509637549
Ni 6.285081855869939 5.612445485774854 0.928953172001361 -0.2913057310633757 0.8122505694182657 -1.5209347895070902
Ni 0.07151016997445198 1.865889900087339 3.0087056609239835 1.6699713553541884 -0.0638075813742643 0.743409539385152
Ni 5.400285586204311 6.085835714923154 8.575553721073296 -0.6687465033536225 -0.5623575969737218 0.5711883078914743
Ni 2.464480593941599 1.370238722608412 13.077893978077856 -0.7296698212015563 0.43165968153481143 0.9889259800285548
Ni 1.6037980356803077 6.259976916221167 0.9724217728552106 -0.3790824216587278 1.613804064134001 1.0092045277719328
Ni 2.29561976740366 2.7000594187638387 3.7120274930458543 1.2843377628405042 -0.030777390392172803 -0.36335909738620004
Ni 7.810600651685995 5.6312602947883805 12.771647064098167 0.5493758400020732 -0.21265439980805956 -1.1744261880193259
Ni 6.225163498066154 -0.13041784552152785 12.150462850941548 -1.353130970354818 0.9978448797847397 -1.084298223582978
Ni 2.1188939616178217 0.28497904665657203 4.144882971667525 0.8086798213478718 -0.5479275375913208 -0.5981136715274086
Ni 2.8298176806311255 5.100619686662438 3.3661082897503465 0.47322773478458496 -0.15687945893028468 0.3342642369027727
Ni 5.173664870843459 6.850656311750685 4.611188234821957 1.2207255853064978 -1.0428666959110686 -0.6725602206727579
Ni 0.5199686928213718 1.4745956027351335 5.1820291697397245 -1.0504725332827842 0.8185649416720677 1.5300058985704232
Ni 0.49405502209092544 1.009904096217903 9.838178406071403 1.3748303097051227 -1.9129390614338087 0.5672648044673522
Ni 2.961095208218855 3.5228251807216524 12.25124389833601 -0.8693817672136188 -0.3358151263296604 0.07897811846711561
Ni 5.224254566571115 8.615153752629238 7.688975093330758 0.43339851860278905 -0.5392120120951939 0.8621497682415539
Ni 2.5055378236550148 3.3145560836058996 6.244462804623455 -0.3913969773600227 0.828199379438038 -0.40908693844061805
Ni 6.990790046830749 4.3039593564132 4.937664542421951 -0.05698618757705669 -1.2196984295935638 -0.5001320153745967
Ni 7.189406248332472 0.3049675810772935 4.177125681057765 0.2194287424174156 -1.4179448815064095 -1.81060452762894
Ni 7.426346854013888 8.353571398067478 6.284934561205579 -0.28807642549280066 -0.14037683328957112 -0.6935705043758378
Ni 0.5555222898243318 3.9896103095121753 4.650480707707664 0.1369125288900545 -0.5166757786658909 -0.31140301603388304
Ni 2.7269059557018975 7.3479842398113195 2.8720495621332733 -0.30731727600028363 0.7317948379643591 0.3068447072392393
P 5.222800147558251 6.274836076072321 2.501440438117505 -1.26789761500661 0.021222142603569902 1.9064256857953232
Ni 5.438674837091584 7.94510198702198 9.944137926256886 -0.14446951530170604 0.8155958317414148 1.3399121576716988
P 4.385286391533706 5.6003191514574215 6.5128531370995635 -0.9908928739469387 0.3749270047294575 0.6615587273559316
Ni 9.598980208584672 2.2694124337260306 12.150164556086681 0.5036022333113842 0.7645180392289931 -1.8069599888978172
P 6.145346464850723 0.9793705607631603 9.394352717290294 -1.294930707865002 0.24405733959937323 -0.3129341079664288
P 5.782103000434489 0.5707557078163763 2.157094230671577 -0.09707714206067153 0.14153408682246593 0.3492082598071147
P 7.531259563062723 3.3434499237404087 12.249399472696133 0.14054266944347407 0.6913904660053835 0.17016589162654566
Ni 3.2620673057276925 7.356108605889538 8.042662932194332 -0.46553627967759825 -1.1837310103600196 -0.17277556133525082
Ni 3.9110438913714987 2.719374473807266 9.694077905250525 0.22687157184870607 -5.393011522417957 -1.1505033586551412
Ni 1.833651822604783 6.080397855301816 5.798671334221141 -0.3992244438242415 -0.9523096143571019 0.44303681302350145
Ni 9.015091189720302 0.5862225739557082 7.223035750883383 0.8084466222911431 0.14496805220467937 0.7270087294296255
Ni 2.7052842106317008 0.22857445402207852 8.927437895084612 0.18189937801338996 -1.0789217897624128 1.5001805876788745
Ni 0.03881538639422665 8.358110667598067 3.4997138141401924 1.667658648060612 1.4642424790213686 0.43959539144212034
Ni 7.792582530794164 6.312039558592421 9.788025036047609 -0.3602210659778506 0.11191163597034275 -0.04266180053458459
Ni 6.622117986608544 4.039977673670985 10.284958325573543 -2.524004150915563 0.4922952929389973 -1.1085588959025552
Ni 0.7326612617756074 6.21048961452237 3.610487739172709 0.3898607432211544 0.24326801092885847 -0.8763291450657295
Ni 0.757006568564158 4.499564817920144 13.282804015740973 -0.02714159341179842 0.10683499277838375 -1.6838069756857001
Ni 7.456111492793041 7.1384089447286 3.68411005905119 -1.4611988070990385 -1.1411463429202733 0.04688072371193862
Ni 8.525192841585245 2.463693169635272 8.851429216367192 -1.4413318929717822 1.0032848198533881 -0.20564608681102647
Ni 8.728357576432925 4.302504937400338 10.578378560793936 2.917947291736207 -1.0065328944770406 0.7082682155973286
Ni 4.722813504486843 0.8367300372443669 13.775738116172304 0.4986932260455411 -0.38134422110971095 -1.5813032632928188
Ni 8.620082102405307 5.902152783795534 5.379767161544508 -0.08996572782687086 0.5451620590310418 0.7133960237421971
Ni 4.385434612579601 7.643879766498191 12.598871349185478 0.8150397021276286 -0.48035457563735334 -0.13512381242074795
Ni 4.178434658169341 1.4826829135518782 7.562866774718681 0.04050387365131734 0.9981289866840616 -0.6214266352217362
Ni 5.234370652953571 2.327626249502002 3.98102831095475 0.37696177577129913 -2.003823187309891 -0.11724821769190776
Ni 0.9261138125909002 5.504058845962813 8.569221903268891 0.6288334692087687 -2.0183627756869624 -1.2897265379562433
Ni 4.380154237819529 8.912540753590447 3.7948024625084633 0.5725473930225301 0.659647883486464 0.1061942738705913
Ni 8.859755533620445 0.11993398566893923 13.049908918231004 0.8368017763950685 0.8661036106829794 0.7395734534685134
Ni 8.049236535579857 4.094837988283541 1.1891820831377766 -1.053560942400121 0.31590373211771394 -0.24513514604458425
Ni 3.3637098879514284 4.411215810750278 8.320137362020843 -0.5839412366817686 1.3385826402269978 -2.8437964194544056
Ni 3.6242546951919117 5.219279897718202 1.0411435344037288 0.9212697143321616 -0.05303774445226994 0.6545321595264534
Ni 4.560492931599101 8.126107675508088 1.6759696420720742 -0.2716257361359451 -1.4445144044648217 -2.1238181145090005
P 1.184489960653606 9.464840162048061 1.7696999995895315 -0.12375413713122557 0.005944647619209116 -0.05854453320311207
Ni 7.727161466661459 1.5855020003274205 10.860125462268423 -1.648386687204877 -0.3972187262481224 0.4834941497075996
P 8.383048858570204 4.777608972391819 3.1910953634261534 -0.9021198808765883 0.5108679137348621 0.0919177093469191
Ni 3.4108904996234566 7.646501426247491 5.6300170907659215 0.29004974716908755 0.4551821901367838 0.2374390629519072
P 7.758565800760846 4.575574423019101 8.157638923878023 0.14733321000274627 0.9253819367283224 0.7319277639977976
P 3.59480502613529 1.735779613236047 5.3802146038268095 0.33502116967345524 -1.1531587940001173 -0.5500029320631109
P 1.9635027226257555 3.695261839991852 9.992691435366531 -1.1594163448740549 0.2937755327601069 0.138736983693303
Ni 8.115000360881195 0.15611752211696067 1.7609549578816197 1.7835534370484185 -1.1195601321090654 0.3929717780463103
Ni 3.7836756938692977 0.5400072518450834 11.265199684981347 0.015617909042915037 -0.44568299239709697 -0.015830796384669513
Ni 5.0242302651333715 3.196183050826561 0.5907007023048655 -0.18952501287944779 -0.17093028059639595 0.3780925469416327
Ni 5.482853972584201 0.1998214238811714 5.655914086628704 -1.0844393771465322 1.4530280983627881 0.43240093057621015
Ni 8.044215547650102 8.330309957677047 11.271477772656613 0.9519234346622765 -1.6030704797665811 -1.8818253707481396
Ni 0.21210246391525886 2.371138390288084 0.78196421354857 0.7594707066130727 -1.5043984824149639 0.3732820129268668
Ni 6.986019181915945 1.7088960210365132 -0.0007105346387678243 0.4281226149158305 0.18491682468347506 -0.6234994585903649
Ni -0.21954316041927863 3.337456235196956 6.887489241656041 0.21525892731044216 0.4914504284401988 -1.6503330122979705
Ni 5.844670809433679 3.845029943055208 7.469597755206577 -1.1395085502065343 0.8785590628375127 0.05012931255622335
Ni 1.0516931673454342 6.020062625806445 10.687199673546763 -0.3979908285274565 0.07263186453411362 1.5318588926187617
Ni 4.5424655468919015 4.36090402948368 4.6990749776049325 -0.4619192517503013 0.683069604844514 1.1206052855441282
Ni 6.52205025299746 6.081083377639088 6.530845319308362 0.19489090517705143 0.1307123136166136 -0.11305809086996013
Ni 3.3938450793453234 0.9230150663501202 2.0770039149027735 -1.843164720953148 1.3093263144650418 0.11448351046257704
Ni 1.081355904155533 4.382794425199565 2.017984147189738 -0.06466041629286284 -2.1220790203307063 1.0090808577098749
Ni 2.20000792898485 0.007719537346613144 6.600766744947108 -0.8984632579606076 0.6123228731482552 0.3550048118842338
Ni 0.5032085980565902 7.194983065184339 12.746848756738094 -1.5974361642989392 -1.0252358702031827 -0.9987735622465961
Ni 8.601841649944632 6.8047355789687805 7.5559930237152155 -1.0025715958364476 -0.8228278307134798 -0.019392802704314985
Ni 0.6186496332717825 7.7700714594485865 9.038604605888755 1.4651845312196636 1.8101157609179794 1.678932421202218
Ni 6.691707767657095 8.28702014845981 0.6025231834782097 -0.5681461786310409 -1.4524729971902661 -0.4477995245194675
Ni 5.240790477003976 2.630719760730238 11.606725987029087 0.6986003534902614 -0.964970754764538 1.2594050041545666
Ni 8.474964434656965 6.715358288293005 1.5616171051626866 0.14930370346555577 -0.292464013037535 -0.40798933450106506
Ni 6.690142182859811 1.834680106110692 7.240363717530257 0.9349708659683382 -1.8903210669239767 -0.295665036473336
Ni 2.6177041001374244 5.972946860841998 12.458133613343385 0.045527809228469975 -0.3407197627201293 0.39746863747539934
Ni 7.283619250630631 2.102839769584124 2.2579290081951755 -2.34114266609922 2.0172728850568937 1.1358377862231663
Ni 1.7489620225054943 2.1339754530378223 8.13990427573647 -0.48815401707711414 1.196570585326849 0.23642399142383153
P 6.284766886147408 6.595225130593641 11.519828619727473 -0.6376693223328438 0.3963589493509883 -0.0028068733211758113
Ni 7.572826302621409 8.761216329545174 8.826223301130904 0.21146089372059068 -0.2942784405384545 -0.06537672563359707
P 1.1661661338546128 8.881442125398223 11.349357742078482 0.4684028025921159 -0.21830594166688208 0.6729345732930411
Ni 5.8878031337896495 4.138359392884991 2.6711118485001917 0.33825690300193356 0.547605892585844 0.3164500915394873
P 0.3823917707830281 7.8346587801981205 5.9619701660118025 0.7645969720960445 1.022725445076503 -0.6823345264507023
P 7.441974910540632 2.145064240033977 4.924404317103408 0.6623385429447497 1.5449288384288427 1.4293014441698093
P 2.8570625616300322 3.088259601782948 1.316017611256286 -0.06260224821225348 -0.24861359151148799 -0.3100806976780337
Ni 3.147983419463993 6.867655412951975 10.423824770711187 0.9627454649784453 1.3573095272125397 -0.6361426012756721
