# total energy = -340861.5877546478 ev
CRYSTAL
PRIMVEC
9.26134806291268 0.00000000000000 0.00000000000000
0.00000000000000 9.26134806291268 0.00000000000000
0.00000000000000 0.00000000000000 13.55491904148326
PRIMCOORD
 96 1
Ni 4.991394143669294 9.120825384827507 11.266089725759995 0.5275065507328076 -0.23977156773982575 1.0322333845669385
Ni 1.8398964023644475 4.129607206766702 9.374839149760108 1.250965872248278 -0.1619519883571856 0.7428194712096369
Ni 8.943415006078999 5.4969248141635125 12.998096056750946 -0.03608748975117656 -0.3407680994595615 0.2485968793409396
Ni 6.182885062794002 0.05785100912782146 4.058952384284328 0.4593967424387636 -0.8188179382231382 0.7277571775598757
Ni 3.560904882824814 1.4671086301058915 6.554887472757826 -0.05762587804358463 2.5328698288363087 0.24831560065509495
Ni 6.641016155169884 7.615624831157582 10.02346968375176 0.9115280615643656 0.557259356515208 -0.48856565069323604
Ni 2.946118092154351 1.892074835955442 2.216201634523227 1.8314402334273685 1.136628657555578 -1.997585433930295
Ni 9.140663191847725 4.9532188679749245 8.666622030060063 -1.4226263461424788 2.4979575903401563 1.2888479920060318
Ni 0.5023938519892005 8.707954499224645 7.611846201248969 -1.403671659416847 -2.195180882522703 1.0307699126475345
Ni 4.285003361758411 5.391604766808739 4.357866089559936 -1.0760634943780114 2.093767574980523 0.20872523995698244
Ni 4.257886135355425 1.1279025050253524 9.435823272853822 0.7470378801663585 0.9024476965296522 -0.17763314653786827
Ni 7.170209569332009 6.65286141902556 12.304639673198809 -0.7898806863634977 1.515823436422454 -0.7459407904474379
Ni 9.09376372651141 2.2690857828177418 0.45199174490916694 -0.5548582032728832 -2.511496248256539 0.05586390104715541
Ni 6.608916323642303 7.888464137794198 7.274422885622862 -0.915371603680172 -0.9855208110017479 2.2170260034222524
Ni 4.097924135890807 6.463633560464822 6.665793965114744 -1.434536981537136 0.30799219058012123 -0.2258153626700498
Ni 0.25655044809919275 3.8084144031867813 6.944998596104766 0.7997969170359451 -1.4058380709405467 -2.7325496707615713
Ni 5.887559203662012 3.6913787508457454 9.525732437444054 -1.2966348350403023 -2.309054270205107 1.0083995153721343
Ni 7.794285491861145 2.470936858450635 5.545832139706168 0.9060870930544523 0.7002525443817038 -0.2605715352043126
Ni 7.884796644059367 9.388043053340278 6.281078503004956 -1.09406404472049 1.3077643692945606 -0.5104400821688241
Ni 8.446006537618736 2.5784888906288774 3.0652820022233263 -0.5546903102364512 0.418198413823583 0.43519160594746986
Ni 6.2519561947999716 6.922477776622476 5.337073024737896 -1.8369053703069977 0.8128866603403677 -2.1479962544171007
Ni 1.2079205501489219 7.290560784190896 12.167220720451239 0.5080949789754153 1.0639158032718838 1.0570828395104506
Ni 2.859404092560372 5.582138475411425 13.499858284819146 1.2347977471288476 0.6349215843843775 -0.8868477852088662
Ni 0.7849899885491588 8.00269360174722 3.6013390012513176 0.7474649404014482 0.04812565186263325 -1.305123332127288
P 2.2518596758814176 1.6852782005892166 4.196263905397242 -0.8930814248234039 -0.0427787857284231 1.7095046375621203
P 7.60660427838555 3.073359749787768 11.299448174455666 -2.489527200184616 0.5609319202707889 0.6404340295621745
P 2.191410858691425 5.530487938645898 7.8087313421833375 0.34418123890616853 -0.485906358693518 -1.1509777271883985
P 7.874627684158248 0.9997810193494888 8.337359814128735 0.8781338023746361 -1.732963897026325 -0.6748143068142572
P 0.26885877934563074 5.482782736049659 1.7867547886006694 -1.0954467840006297 1.999184660096615 0.8416094821963571
P 0.3133790044282131 8.459166912864175 5.52362898445394 0.33439742004652734 -0.47724045548840394 -0.5425217931947173
P 4.519630347309397 8.632844968443145 6.615302022960902 1.406222965083791 0.4987035104581863 0.8092585766694773
P 3.404462195529983 7.365762928450547 4.201862390151548 -0.45871565721133906 0.1487131210694084 1.8628290321512952
Ni 4.480862345354852 8.216991928843779 8.774397260720653 1.1747180082281319 -2.346223423056237 0.4841071007012502
Ni 0.8338324846571081 6.395006973153984 6.388799091713436 -0.44659779090188245 -0.18656155937574967 -0.3820667010980323
Ni 5.123173861732172 2.254758477747584 11.553290604453684 2.1644312600446725 -0.4117074067826006 -0.6230153198650947
Ni 8.248286023111435 2.8201545005194357 9.172626881562422 0.6787282971566827 1.0830676936099863 0.5419168126208667
Ni 5.918316139756384 0.939258111376974 7.619409944009666 -0.9609228099474095 0.13391205150083388 0.2138923859802187
Ni 3.3597113628868014 6.5762145045067335 2.365427879600432 1.3396553044658863 -2.7701155448304875 -1.2567323424184098
Ni 8.837946777159184 8.594289977488351 -0.09523721798833369 -0.11885490005739532 -0.3779796755128522 1.0614256898601784
Ni 7.520603402573344 6.6199373275424245 1.085367912914355 0.8441091086897591 -0.6562357724811214 2.278787758011082
Ni 6.571417126338445 4.886963185704783 4.034377397856621 -0.35593529411830316 -1.4631510457294028 -0.40052002270721343
Ni 1.5140821862247278 3.4324592499754174 3.014953059791033 -1.8050041507230268 1.6932629788922773 0.15204835609022846
Ni -0.30463721822541945 1.5274000043830258 11.468098244305747 1.4677492066230466 -2.779892935932225 0.9089186489659765
Ni 1.937177599815602 9.200102522125858 -0.10635546604051485 0.34572287236167554 1.843059819944168 -0.019917307749217312
Ni 3.734925608272947 7.827681912082857 0.5229744191042001 1.083550546783676 1.1639486855267696 -1.0690808924125912
Ni 0.7326078053062296 9.02121958907473 9.837468478769845 -2.5601880570352877 0.10570422160805022 1.3314074626347974
Ni 3.6901006848472435 3.893442837478389 7.561896047942319 -0.23995771560870288 -0.4104822761262479 -0.042526817618617076
Ni 3.633578679130908 3.2282743146930866 12.745310346538641 -2.0195259427571286 0.15701984116289086 2.263503835268818
Ni 7.371412350617836 0.0039999761213969556 1.8610363548874869 0.4841171280035792 0.34544750721310186 -0.08024747209784244
Ni 2.129433919111919 7.24642120050352 9.023563636206765 -0.32120457550533715 -0.8623135475129278 0.4979530054454069
Ni 5.555141646530036 5.124090735165881 1.5275852313393303 -1.0311038989481855 -0.10430554148831069 0.8791748420446407
Ni 3.579844339106955 4.880952570972701 10.987698241108149 0.20832029120907994 1.0514487811531248 0.745201084067936
Ni 5.544444789803447 5.431206290066655 8.14584162425329 0.9871344353457709 2.2569644914884033 -0.05314007435808913
Ni 3.461539882115233 7.420803118516448 11.5173565749306 0.2592723567769148 -1.4159733596023356 -0.07222820133779173
Ni 0.8874204953855801 0.9869818366688438 2.5200488597800077 -0.4820337631119892 -0.6884516950920337 -0.6466327021737186
Ni 8.356384474810776 0.4318955462849038 3.884094432993698 1.4899753650110985 -0.12989855946606663 1.5072089552805656
P 1.3573801811910708 5.267743501127881 11.599038884256567 3.1955901806005094 4.127604792154001 0.2616614258343816
P 6.392941692591187 7.459209927906198 3.2223155635087686 1.1800041963277357 -1.768792219578844 -1.632820457335504
P 8.209768077547901 8.487775216265414 11.442845327217965 0.2198354909375311 0.8881713891162961 -0.37570064967068845
P 5.835334463331942 2.8804736588400153 1.002878014058901 0.3309287447716365 0.7533175425274834 -0.3515024551579301
P 5.056519941505978 6.259244875530555 10.028972776623567 -0.7760201263313217 -0.4091126494722309 0.5178512870312307
P 2.718261151856298 9.03911251305375 10.264557385538646 1.694754475836139 -0.22054562963067822 0.5734506215630898
P 4.245049907283518 0.7087857664559002 13.181115107736353 0.040123350383447026 0.03322508060171697 -0.5170539879409161
P 1.5858020637058532 2.1015572621880834 12.786015822456132 0.6182698347603094 -0.5563005921463645 -0.2993869654096134
Ni 7.655291183850204 5.474290080103096 6.153797947710715 1.1933045129810673 -1.332890474938227 1.844454643409165
Ni 5.431771232283383 2.3546143298913718 5.782379002659249 0.02790803926417774 0.25216505630817215 -1.5001965285184746
Ni 7.191121692698793 5.070652758272015 10.585293604671277 0.936020390278775 0.8710486133930806 -0.21183421789960935
Ni 1.7253613139335233 5.871092527246537 4.015441646113605 -0.5099286897500444 -0.6137848024057623 -0.2152959511959647
Ni 1.603796862510841 7.292042599841333 1.2036251370322193 -2.943253117490847 -0.14392829808625535 0.18083571263556597
Ni 2.6671477732640545 0.11072311767017635 8.020906042225866 -1.5911261629205113 0.234503377362351 0.4503032647779277
Ni 0.7821356411525057 1.2219144466977314 6.223442357146448 1.4932861745518862 2.3537950647559076 -0.8711123767514805
Ni 6.310941719035159 4.475425934187315 12.889317822121965 -0.19591137602176584 -1.1959573772228822 -0.3574139355463587
Ni 6.977434614558039 0.934497778599947 10.39984900669306 -0.47061112309734443 -0.19321274614368014 -1.5790496913719516
Ni 4.6935028911924865 0.500747184347653 1.6919250699162058 2.8022913582320834 0.5995545177389933 -0.7210741091127452
Ni 7.094525834985967 0.8148087501098483 12.816555116876845 -0.6244278839419053 1.4890605665063128 0.20844910347746037
Ni 0.5487820909261143 3.5745375868088294 11.434184114741164 -1.7717363898088325 -1.8841787014716649 -0.24397197897441852
Ni 3.002214075871187 8.934931611480252 2.8194774959941427 -1.9015776136744027 -1.2136727922247743 0.28897296916514104
Ni 1.8892593862196128 1.8453420748798017 10.219676894026053 0.7971157706593562 -0.20560340649854916 1.340197035901969
Ni 6.246473476893357 8.230124520045774 0.1922674329136955 -2.1480327640819907 0.2763493668638595 -0.22608635694324933
Ni 1.1969828983791377 4.109899058615897 0.5593298399528774 0.044675231420187575 -1.728658841893068 -0.9323650529143749
Ni 7.848436592536783 3.927700563046917 1.3457988657481283 -0.9284988850907493 1.385570321830446 -0.3045651671764432
Ni 8.407738648446214 6.224922320527321 3.8928371453312733 0.4338620885027689 1.7169191848586367 -1.2379553189212227
Ni 2.736941290399612 8.97184734387175 5.5576385059010205 -2.0396185997419454 -2.059702257865698 -1.8832775298136337
Ni 6.40562973909805 3.4998726007224614 7.35102256726783 2.608896320874268 -0.7539574901043273 0.9321652781987431
Ni 9.037991889968108 6.654528461632301 10.537132743762529 -0.5300627414957582 -0.2054583962802526 -1.5349478159567307
Ni 4.3312082260085845 1.0513945107237541 4.214075329515489 -1.8619761972326963 1.0715368101522516 -0.05146037266282105
Ni 2.427927159196716 3.7938185190299816 5.156914804092612 0.11128531524025351 -0.7295505220148726 1.0958949272816416
Ni 4.524483293564576 3.3891624489392265 3.576153692002587 -0.1925056927743265 -1.2430838983970398 -1.8931960744789265
P 8.193495889436546 6.855888685830987 8.396743576319976 0.4287599913895132 0.4448769515560338 -0.43683788330164125
P 6.36991798192253 2.2462472991053897 3.805204420034023 0.8554978101426751 -0.03121190682643012 -0.28844409324486453
P 5.083201884561649 6.406833714314029 13.151090744254166 0.039505514293790026 -0.7535563980111667 0.1520820375416413
P 3.8379673640651735 3.0811392819525594 9.84050527471846 -0.5698739599554251 1.1164113020674384 0.13594605121172715
P 3.0229965403685584 4.040827926609927 1.5663930570894802 2.4404774938458167 0.38205615957507105 0.30098002092834614
P 1.1800809386163467 2.3300902808766484 8.323966979053134 -0.9930034925320382 -0.6116345888319789 -2.011404856311891
P 0.007573930243293427 4.55609227365795 4.770369299654535 0.5960043384938897 -2.0821528735597306 1.0947710980898435
P 5.216352282101182 4.543422749846718 6.007756680147168 0.29634689303170897 0.6791823539749658 -0.2383831720327314
