# total energy = -381166.6475546034 ev
CRYSTAL
PRIMVEC
9.28019562367550 0.00000000000000 0.00000000000000
0.00000000000000 9.28019562367550 0.00000000000000
0.00000000000000 0.00000000000000 13.58250435180647
PRIMCOORD
 96 1
Ni 7.052753710986077 0.21982834345484167 8.406551417481602 -1.23852533249208 0.10256027666242981 -0.5652814554887362
Ni 5.451910703615072 5.707979138594511 13.125710875122424 0.9094963758463175 0.8743877050686425 0.6726952035887254
Ni 4.0154013985097095 1.1438676195821633 8.206562276009112 0.39872847802442946 0.5171133804239417 0.6121410961547522
Ni 5.6857252297378915 5.291224118188732 6.607834225197082 -1.8738307825784375 0.012417914048378612 -1.2960306257974001
Ni 0.5621079387746561 8.648975180988193 13.082871636563656 -2.2647137964165194 -0.32722481355748806 1.2174278883918326
Ni 0.6368098006313041 3.328741171604385 9.182044459961663 -0.19551054103892135 1.4408996905303701 -0.15920090797460967
Ni 3.487831563401309 4.538952908958013 12.749869452705044 -0.9495706181593839 -2.1098547103503726 -0.43182140392365626
Ni 8.967722056508752 4.438875280471865 2.928578212768561 -0.461992785300714 0.575258621306106 0.4150686099453497
Ni 6.486067851761475 2.3103974766238196 6.832529103182538 0.31459889726336143 -0.9495449071277711 -1.4207041894191017
Ni 8.160372886867675 3.718815629890572 5.42865546166186 -3.106166698430354 -1.8661750658053922 -0.6613502108895514
Ni 2.781970611965398 8.221863462382254 1.3105148745909072 -0.05676018760917966 -1.0152008545646838 -1.4829104877445172
Ni 0.8922675987455362 4.2663935665397865 5.1205093534836355 2.6777059834488144 0.1876149403409285 -1.8753055673517507
Ni 1.7061639463258726 8.054550817354736 11.27899279953099 0.029407763738155804 -0.9256362188309737 -0.4569544515458581
Ni 4.624414229500384 7.807521292811639 8.200206270097562 0.8693599128367479 0.5306576947672796 0.5822263108731908
Ni 6.547948195487887 8.947333466951624 4.213075131199995 -0.3769820874862733 0.3863465594203088 1.226032342231392
Ni 4.206239339180068 1.2616518611201994 4.539177489689593 1.115144519539873 0.43884051555396675 -0.39071537791196587
Ni 2.009459296305868 6.913420855450931 9.008323839927682 0.3553917629100073 0.11050344276890647 0.19811558276193622
Ni 3.226417735802432 6.253914480636711 11.200553802938497 0.3799751086763263 -0.280689131889794 -1.2611744373501634
Ni 5.327927291469771 3.519040860934591 4.884906533684139 0.875276535431499 -0.14235632561344516 0.19533339203110875
Ni 3.6981950354454476 9.12130001216688 10.185832168269332 -0.5893418388720496 -0.33864591091023616 0.243297064394581
Ni 8.289636730263776 5.893063358042556 0.4211705374341264 0.23414882223640965 1.620401771956177 0.13082955592076825
Ni 6.584400803489889 5.075663736653473 2.184745485324048 0.3223255764836578 0.35144177712332375 -0.3865224228765407
Ni 1.2684449642407356 2.5504482941359834 2.463105877961737 0.765847556673694 1.1578749685288638 0.08453735772244796
Ni 5.378467236270916 5.685595307000613 8.941810822597757 -0.2944460764645703 1.6095185493847703 0.47081064070266015
P 2.8375218623472676 2.632763628397123 9.098960725511478 -0.4322818884998426 0.2459699832410538 0.23241744136759973
Ni 2.946851845766713 0.884511211330039 2.595860930912408 0.3227693488892957 1.2491452740997713 -0.0420097687728825
P 2.5914574781382353 1.1734992838770697 5.8470642129092765 -0.9027662562113355 -0.3651501278483518 1.2005871626854097
Ni 2.3652155915596205 8.803815243237024 7.475103761270778 1.9661470129153555 -0.58550780983794 0.11419014759187429
P 8.003769587470074 7.850952607844574 5.560065814281704 0.7425014257485857 -0.0821248916262134 -0.6552818932082844
P 5.496557724261108 3.4867086597434063 0.9571686461136624 -0.04470891287160042 0.4648086574829543 -0.7117222355842
P 7.545170165465256 1.6305674736211102 4.639117771282047 -0.70719555135844 0.5887116614872183 0.6351851224584093
Ni 6.754488226977845 1.6364232769941405 0.05505940001931685 -0.1336055760040086 -0.4992480701077466 0.7223540042664334
Ni 8.446861802761209 0.7151411469557687 6.538359897476771 -0.08167109191824644 -0.4624869513283132 -0.7588299877052803
Ni 5.3883135237174855 7.173062165705516 1.7061797226582565 -0.13474328915287762 0.20370901768931368 -0.8098229338133796
Ni 4.177684177565465 8.40381097574459 3.1989242285553012 0.7373733604934011 -1.0006334982734701 1.6383264747553978
Ni 1.9782963997501852 5.5529441922397655 3.3161006172867866 2.2308112301318035 -2.0026343092081125 0.02268047231665126
Ni 1.180385188952804 8.693362356159673 5.504880203603316 -0.2684205989350861 0.016329333287642845 -0.49246087198258415
Ni 0.5176715785669207 1.797555311805433 4.6986093926816475 1.4836694773977286 1.4487886063601436 1.111663245859492
Ni 5.999386558113569 3.490912588313902 12.425614781143448 -0.6660946675530722 0.0388910206382427 -0.7723210802131796
Ni 0.21845858659611062 8.005467863250207 7.759983491261167 -1.3140874832991112 2.8441039233924954 1.2350317175165249
Ni 5.70608597870846 6.952824565628247 10.838431293558122 -0.25591681004112055 -0.44750873275192604 1.375666946673805
Ni 3.5957231165151766 5.9029096454891254 0.8985428669560641 -0.9093446807598016 -0.18691740005327165 2.65000029000343
Ni 9.063001823911133 6.464519237764366 11.334843800228152 -2.026257347943691 1.2203111234768984 1.8888051445000829
Ni 2.770658053626691 4.651660883546686 8.217156547214582 -0.17538137438921408 0.7142771407955698 -0.9808586296393883
Ni 4.19697770405125 1.8880093775374878 11.794652431709206 -1.4651338804873864 -0.17189727249535555 1.8667584491126883
Ni 5.031183759526795 5.524045663390927 3.8058174628892396 -1.7467074718646627 1.0843599300588487 -0.30792611322887614
Ni 4.704799283093393 0.19707144800104615 0.10296191325371928 0.3696855538248601 0.09040050137144431 0.42922741794423497
Ni 1.4693240764635793 6.429041050291948 13.394155378847143 0.45951038519849247 1.1146894342803255 -1.6936761551702961
Ni 3.8171114608369066 3.055207408656574 6.609001673793481 -0.6940207045393789 -1.062328918400738 -0.14442940609238997
Ni 6.241924468025053 2.762649244893054 2.813683824115409 -1.1787266151668925 0.22738424981906646 0.5394912338985096
Ni 1.383872036116728 1.400975436459826 8.043083279750848 -0.175179285680737 1.354621953078048 -1.6652592945904998
Ni 5.744914316763545 0.5250456219269997 2.1714488211831955 0.5914928237767813 -0.05728469265408199 -0.3179935247672072
Ni 8.003305577694082 3.7252932063634328 0.7697272570035728 -0.45736531383103174 -1.2281013089452786 -0.2798784630630406
Ni 8.88746692565302 1.2749132605180766 9.54223854471301 -0.36432583217484354 0.06580250031710602 0.4650395425468378
Ni 9.320657172324466 4.012589499267193 11.880575905988465 -0.6991300007414863 -0.23585474918392285 0.8792110945992149
Ni 0.12214500541281753 1.865078014407919 13.712217375938337 -0.31437212596453595 -0.14969553958733575 -0.5397007788061544
P 1.2608723246965314 9.180461258605975 9.60466456393599 0.35150656892298815 -1.1098177080103209 -0.6003219920326371
Ni 5.6267031862315955 9.182289457123387 11.577359437670388 0.2697616863440128 1.2949101390397117 -0.5069564944955979
P 3.2217869182380228 3.6125388307971593 4.199275480461966 -0.21892506330811973 0.1325910186965652 0.3460401464917782
Ni 6.963645273604402 4.260008792022124 10.187516523756184 0.5792626002591766 0.1629583181345129 0.340911052795329
P 7.308200372865686 5.282565695768706 12.240335677589485 0.7796883192115281 0.08306514405229565 -1.5525770990027197
P 7.761389440882426 0.019827137728176375 1.078070105326819 0.5531715595990796 -0.783282978541322 0.07373821022441494
P 7.020950480939525 7.660829242229245 9.365408131160326 0.565547050445297 -0.5737936067248053 2.312663070602288
Ni 2.9429820042349326 7.122215974452214 4.7874793290384625 0.052269241717361595 2.010121361613777 -0.6507456959008276
Ni 0.5559356807343987 6.574452433892603 2.037538383890302 -0.6311850001600807 2.649518465271005 -0.21262534634233704
Ni 8.674969008639316 6.049536734702881 9.016365129345639 0.11733126432401729 -0.1909092948214841 1.2353297083729178
Ni 7.889827346877259 2.2556907240342574 11.636375913059373 -0.12066727067578573 -1.1267232255164081 -0.8622356430871408
Ni 3.079029670556049 1.9665662326130848 0.39383664954993697 0.45842537966442987 2.021043407842919 1.4646844516547937
Ni 0.447708184542712 6.079418964276822 6.896869626741265 0.736707444774628 -2.3985389446305017 -1.280796325346149
Ni 1.345665471161473 4.624766876930138 1.0759486526309794 0.11184710128099445 -1.6295163326629358 0.2731881955270586
Ni 3.6148310390905642 4.0696255809322395 10.329847810463797 1.3477298539439049 0.18215211745414436 1.180127352169161
Ni 3.9244647626106226 7.483197019783646 12.868268043186493 0.2653856687635042 1.0646210568690244 -0.41948062297011623
Ni 5.292152137740718 7.360503554815605 5.53036083644219 -0.2295881994489207 -0.23948206152386503 0.04118727287158713
Ni 1.2552021252338983 5.203322106224639 10.493285973861775 2.2634814666713146 -0.46076096977614195 -1.6525598447459602
Ni 0.8523070768370282 0.34308326025183417 1.7272596867816135 -0.9781797972556443 -0.5603958452616608 -0.7190359956367939
Ni 7.21913833646161 7.056762755450656 7.430131933781546 -0.7892368821319118 -0.3141875207575556 -2.0411108680167556
Ni 2.5418919538666747 0.38185591713380046 12.80532697311216 -0.20904379963866582 -2.751594346097848 -0.947071505886614
Ni 1.7158895912306837 1.6301684252137565 11.078270522612433 -0.3771049862173828 1.047434774897725 -0.7354252356280947
Ni 5.424914614847806 3.685044998393809 8.253109880697616 -1.9796576458072812 -1.7565866786515878 0.7466193045717013
Ni 7.139124490689395 5.625960770590007 4.77199532281358 0.41178196877427786 1.2201049210033632 -0.57537457805868
Ni 5.402020372500316 2.218681304301064 10.097912523933749 0.3699529485536338 -0.4474223436857069 -0.6069631514982385
Ni 7.462353700646045 4.51952945973495 7.634196009106805 2.025847514099782 -0.484420775286927 0.7011891972633603
Ni 3.5975698754236283 3.3284070845656704 2.1364327874476676 0.8892669361733202 0.998633437124306 0.45213877532476976
Ni 9.00637407084896 -0.012133855642214189 3.7158877282040566 -1.3586279889136474 -2.3975971495425226 -0.2839140665849949
Ni 5.173941007208769 0.2039322965488771 6.563935188309947 0.7122495688425797 0.13621961658808798 -1.3872986173754622
Ni 7.040049123319392 7.9520417776423855 12.877368202913265 0.4234660899804255 -0.5716431360407058 1.3541074753354743
Ni 0.27634287813167224 6.523764005963137 4.526912783290549 -0.9679691752712297 1.1754132345229436 -0.06424518313231516
Ni 7.476051269233355 7.544511271583347 2.5227060776489205 1.016870528957623 -0.24066348342647584 -0.5521138077585266
P 1.7739650547939543 8.245945569756286 3.2161464154010533 -0.471360342558543 -0.7152029950439489 0.9513282242804391
Ni 8.340343718584279 2.0333836403560617 2.6339060204656177 0.2805325517072717 -0.7433684017345714 -0.8591595752649784
P 0.30161563459090124 3.777299422056716 7.008544715568578 0.07488877888909039 -0.10091399930825846 2.385527619972498
Ni 2.898019456941221 5.150684837236005 5.681099980290794 1.1916312390437027 -1.1605980238869817 1.2860814850044884
P 3.170838644834003 6.900233697617213 6.9825481038588 -0.12638077612079526 -1.213320036871046 0.0276756115383975
P 7.128842034053393 2.3037528566316015 8.933892031760662 0.6203323737162929 1.4087177064811869 -0.19075939950718113
P 1.637648262802762 3.20893384744302 13.048467167712886 0.598480310838208 0.2669926082393079 -0.7404769391193893
Ni 8.318869346151327 8.808084133176157 11.023289076235482 -0.20557769546693624 -0.27919737783561593 -0.22629667318184252
