# total energy = -340865.8587760429 ev
CRYSTAL
PRIMVEC
9.31940607557861 0.00000000000000 0.00000000000000
0.00000000000000 9.31940607557861 0.00000000000000
0.00000000000000 0.00000000000000 13.63989281161043
PRIMCOORD
 96 1
Ni 5.0768955090931165 7.817947149285409 1.2142682722473208 0.2149622220056298 -0.7724372940760696 0.42897313584158375
Ni 6.24791614602638 4.330411091419549 7.494493866808439 -1.391158614551501 -0.7412495556193557 -0.8362903839762889
Ni 8.136624236206103 8.299229231456646 4.947270959606682 -1.2252610112830058 0.026703220322799173 0.0005790124319215835
Ni 6.421797622492715 9.364139112089893 2.836361204980652 1.9477957641016777 -0.16043040950633658 0.9708354410754312
Ni 7.93404830877826 7.449523073331737 1.488262535335585 1.045583066400967 1.1538532489639806 -0.08037988391064867
Ni 8.577236430752778 2.1075184227959247 11.111016094852237 -1.42489560179263 0.9508674825939365 -2.341055762812368
Ni 1.8631635984338653 5.258968743401337 5.859861673351265 1.4035400189349894 -0.6957993937063566 1.314457722154336
Ni 8.995603203264661 1.0031408579074006 6.067010633285381 -1.3503420947557714 0.10601429664930129 -2.5577061711536984
Ni 0.31350388467037504 1.8948961757394647 8.440665196061177 0.673734186376201 -1.992614720188581 2.7388491306170377
Ni 7.0848174403574875 3.3062922506883883 12.463083899497144 1.3319736195509124 1.0215864463760536 -0.1621831305313852
Ni -0.2762644703809642 5.533909858135489 10.947514572748009 2.1932044755226228 -0.7445382536729565 -3.346169151234063
Ni 0.28079463361980467 6.260515982888986 4.73523863094771 -1.3584140731306282 0.1743958705474932 -1.7553684899737705
Ni 6.579062598126192 6.842634037584916 3.3574595171901978 0.08807185323826767 -0.20754973159164256 0.48091199080272007
Ni 0.7430539443384158 3.1215629856805798 13.117212072132173 -1.0224943029023035 1.067645188407329 0.021298761477776224
Ni 4.638930025840066 0.9510826561954838 1.700594948866581 -1.2740626061667413 -0.4162428327591089 -0.6942454189556754
Ni 7.004549396794161 5.782253388249912 9.202316946940284 0.6164721194299383 0.41637678723381194 -0.5313459790835559
Ni 6.326413502456648 4.362218223972856 3.3559730719390246 0.5969222223224687 -0.09808038651420528 1.542248463383202
Ni 7.345406669907903 2.7542013220067427 1.42759227057283 -2.411048389951422 2.2899165209343915 0.0002748509279414621
Ni 4.4301380546345905 2.7377059734514093 10.782853716541927 -0.6450830982984116 -1.6196381543172753 0.9210964219790911
Ni 7.119392436481944 0.9796652742854318 13.065203263271863 0.9945178722940358 -0.6975464583044503 0.26939838946732314
Ni 5.388275501144418 8.501926311162016 12.685550235072812 -0.08834747549715753 -0.027503347626591342 -0.45360944633302525
Ni 2.622089423068659 8.2070789452899 12.919924907588596 0.16933902484987612 1.3503212688201647 0.9213915846220068
Ni 7.830686777237466 7.799569280725456 10.570685324555887 -0.28536005500290207 1.3428463005993583 -1.9911067681844867
Ni 4.358080407725078 6.299806598430955 4.138015683066194 1.3406750039796524 0.49668056649088654 1.0242423959416618
P 8.524740216960579 4.087314386862557 5.30069451972156 1.1177621596683782 -0.5899799866766806 -1.1275660331326773
P 7.405973489264464 0.7025368949716543 8.872450049279255 1.4503639212670634 0.9430168762012662 -0.1585743301342043
P 5.10000763588251 3.0975934735425468 1.9253799526459596 -0.6376549241551405 -0.4067788591327317 0.6329976278887872
P 8.33363647827376 8.030028870795988 12.588229542477539 0.2586920587934125 0.6688218366762482 1.5301172273373067
P 8.045825263904062 0.9397502585439099 1.4611598389126352 0.1784733830509765 -3.038692209727463 -1.435003122540277
P 2.3797569098006717 6.139512815859352 7.85408221396815 -0.2519082031023597 1.349002292898425 0.44934012953371005
P 6.578792335353251 4.0684146315686505 10.436264076820057 -0.269724148237858 -0.6620269252416018 0.3123957189644555
P 3.8854467342879366 0.29078876457502484 7.218463313517158 0.1217561328645903 -1.6837583818359516 -1.533824758095881
Ni 3.501813387801889 0.2999711752708272 4.488752458441805 -0.43350573360461475 0.5164623771035042 1.5388018995954984
Ni 4.895353480924814 5.1940404420538755 1.8417811533912907 -1.9420002404658234 1.2634562914058047 -1.2631698705136374
Ni 2.1918497273593216 6.089486244647471 10.15330454519494 0.2315005859802852 1.7312587414097604 0.5934638314602231
Ni 1.1240321920654721 3.4356362860553222 4.229062551566864 0.22716570605035719 0.3757302173570432 0.06404026621036067
Ni 5.292285619720725 1.7854024750747113 6.60549988896335 0.06705848421139418 0.6271799927657457 -0.5522909567663391
Ni 2.7921779013078636 2.3537744059745305 5.704285374078369 1.6814366756813104 0.4985793261754962 -0.4190828733110653
Ni 3.3206068582482704 6.047315932662791 -0.11145543562006278 0.6825934365390438 -0.7596033755361951 1.1781188063795645
Ni 4.183583850465154 4.111022955633613 5.232890249693772 1.6671009757849289 0.3509219000641118 0.7919445108710619
Ni 8.22135627522593 2.5019436413876646 3.840529993365823 -1.3346887044892304 -0.3700167119120337 0.8350464842668587
Ni 7.0130486950328415 6.001669482253738 11.546646134970842 -2.6029706994184525 -0.7476788561844672 2.46886530095989
Ni 3.1892125535693743 1.7735668295011104 8.627832417669028 -0.2863352744319778 1.203322816449018 0.6575593763885513
Ni 9.05253545429547 9.512970025326434 3.0508752914476953 -0.7754933072935741 -3.6743630135730396 3.451360180651121
Ni 3.0032251687564977 6.887078284624682 2.272692778270594 -0.570441916643753 -0.12992427049767946 -0.22140643496907675
Ni 5.15487097878943 2.478794236974417 13.491735699288935 -0.3446041853762001 -0.7195908396989994 -0.3180585736771877
Ni 3.2731897207061595 7.407073179168153 6.069493323034049 -0.9299613285688887 2.208441347077035 -0.3088342268654423
Ni 1.649311189790228 4.8280207728387765 1.9939614611311005 0.04652359748283601 -0.40821841979273565 -0.287221276581357
Ni 0.47213788103988436 8.951289427908383 0.8095982306799432 -0.43300128316437037 -0.09694678713039433 -1.6647476450614038
Ni 3.301790977608034 8.983450697888301 10.838135500776607 0.45543441535690593 1.9428556464875828 1.7849066086422032
Ni 0.8603824695966544 7.941513152954996 11.148252713319858 -0.4686483429440187 1.089403148909711 -0.906450132820826
Ni 9.121266073276026 5.625873756182965 13.049162701727548 -1.7399814659947386 -0.34666569589091906 3.7717625719701364
Ni 2.725665300946612 4.344017424126208 11.919193116122752 -1.1349517840737873 -0.25814184271689733 -0.7032090559068663
Ni 8.644392070125509 4.864608760651341 3.0812108897993715 -0.44385699493195174 0.37675274508428663 -0.34489292026121243
Ni 4.477033305442748 6.084593556516651 7.233548635950219 2.352411039924187 -1.633376072728658 1.3395362623895188
Ni 6.950152024185415 7.311260366457766 6.940455182280429 0.4251871864365903 -0.6451067524474955 0.5485124635605134
P 1.5585774533299304 6.367288417012406 12.369677357406525 1.8408617838515844 -0.9763928805585506 -0.7273056918447539
P 0.7470715402492657 3.5066967565267446 10.54573727479169 0.7488718480513038 0.6114386707710888 0.5182868319067525
P 4.546472199276527 8.35749415754023 3.292902128200081 0.23403852191079047 -1.2311647783619508 -0.7932894549347306
P 9.009638228645638 3.980197134718488 1.145700742871125 1.0653504788358812 1.3640386184062572 -0.6171020397044533
P 2.741787873263407 4.989628591651228 3.9065607804387636 -1.1300353206087763 -0.30909802204979026 -1.220080752633647
P 5.524226995339449 6.31972216897488 13.231295580233933 0.4472889034316361 1.0435863476859124 1.0314276008361913
P 1.3997374980886284 1.1787371050710131 4.2892277045264 0.031000819256888544 0.20634002755425754 -0.1922221000956367
P 5.7877331989564285 7.470417181501826 8.794579888870329 -0.9613287871365765 -0.32841472010053113 0.11907627203958204
Ni 8.848962350429534 4.086382446266211 8.784213913617167 -0.6141894940433487 0.015607367519953768 0.9664378262283678
Ni 7.103391016442674 5.417286811908685 1.0563117966913553 -0.008615252472836777 -1.165312912864148 -0.6056135794488795
Ni 2.1067821897248105 -0.17976481745107045 2.401125375734301 1.9394641043075307 1.444836306580615 0.5694417575140127
Ni -0.09197880909701674 8.796773677034128 7.899394097703114 -0.8405450454875846 1.8138230345662376 1.9718456059620297
Ni 0.5265576202229434 1.965294968387481 2.2126767358064736 2.139907563871695 3.4337794914548794 -2.4074925542793633
Ni 4.426456889279022 4.925203538225793 10.16360248878457 0.28297432837954495 0.7185636839860657 -1.856090942096513
Ni 1.6769059508480488 0.72168454646419 6.683452060144755 2.6771128299495053 -0.22996280917952008 2.674656140878897
Ni 0.3126576826088924 0.8045704111626537 12.3744787153589 0.24841073147206252 -2.6422044481080946 0.8861669570917577
Ni 5.326981768122707 0.2306813919324629 9.113903742564888 -1.065089768975327 -0.6620770617532469 0.6090359748668672
Ni 8.265176122066144 5.349646563425854 6.915575164179765 0.4777881004617578 0.03827472721048247 -0.6326518145135943
Ni 0.9371687830920301 3.222398958205274 6.8197278696673145 -0.9705950429298511 1.0612858218482046 -1.1594258579557517
Ni 2.0964190102934377 4.2531811742003125 8.866135219798412 0.3923855665255371 -2.205360908379499 -0.7088955647686824
Ni 2.9462276818839443 3.203303495386133 0.45643561393204174 0.26338097962864965 -0.4197295057561288 0.6442973691723226
Ni 2.633626847651429 8.781918543928365 8.802464106315421 -1.3147436288258711 -1.8642516235304345 -2.0537612097909146
Ni 5.321734942565276 2.2207119276281735 3.9564829743038543 0.21039517146023767 -0.8743943899368619 0.4302538023262203
Ni 1.3077642806351897 8.40805193489203 5.2888952198312165 -0.35402445024883544 -0.43044303551889096 -2.4814241114615068
Ni 5.948651381727584 2.4923912502751127 8.990094502399657 0.704754031796483 0.5331771187550236 0.007212458588039191
Ni 5.07496639205868 4.4961287682618885 12.366335418428026 -0.45338833146115465 0.28521530189492167 0.11405722155843583
Ni 9.418284860737627 6.542400055065919 8.65775796215831 0.8096984924203733 -0.23397861520713253 0.4058918285420881
Ni 3.0352839252708184 2.234886744098604 2.958929100271551 -0.31144852455983785 0.9956620132008077 0.14285306274420556
Ni 4.69329012082496 7.263703437826203 10.75283218217122 0.9387989814651767 -1.2272577299980607 -0.7356345234254235
Ni 2.2693312685395717 1.8730608075670654 11.994266522802041 1.908324702590249 -0.3133886790053441 -1.2703221652877026
Ni 5.561178439984589 8.589118673356197 5.712059622533092 -1.0179413934242985 0.910577010505006 -1.1488583668525505
Ni 7.756196765371488 2.3717142624542014 7.236004299421593 -1.7664512301504935 0.8854920425119202 0.3006619754672951
P 2.8078158645145583 0.8751555919299395 0.288282776311449 -0.23131083856698229 0.1389465286009478 0.7356903163640234
P 6.166306108004315 5.4842187855382925 5.509124897975654 -0.5764518702832588 0.7044966643700383 -0.0947045280634369
P 5.474107230067933 1.06572066895207 11.699985776812508 -0.7609424060625927 0.2654815709114203 -1.1474889973088496
P 0.04021603255414164 7.2988375983084675 6.564130113950931 -0.7353108215374174 -0.9498634668094544 -0.29980322701142564
P 0.7660095051076234 7.494060514431138 2.5371150794937827 -0.9324627548345037 -1.5131793139313876 0.6022328359021047
P 6.995006325087573 1.038358893043336 4.987317378972288 -0.6373044827942572 -0.667021807353032 0.621702257480626
P 1.3546595314433467 0.6611149312858403 10.15075382378274 0.044714055077923 0.17366413458779126 0.3902091276995086
P 3.8070798495411573 3.5384013756144537 7.4603662021702295 0.7726028731196565 0.4012970100825541 -0.17880325558656948
