# total energy = -340875.363210105 ev
CRYSTAL
PRIMVEC
9.15560677484962 0.00000000000000 0.00000000000000
0.00000000000000 9.15560677484962 0.00000000000000
0.00000000000000 0.00000000000000 13.40015597790485
PRIMCOORD
 96 1
Ni 7.617867510516434 5.341692161869619 2.8673519491238273 -1.6921111246760212 0.36980948099723404 -0.3093278786724092
Ni 3.017294233433886 8.462856751807259 -0.19722366774387853 -1.0468074257263713 -1.32397903138121 0.07863976129109038
Ni 8.248762047842185 1.1826754783051863 7.402045143592148 0.10639764813064902 0.24623172154287268 -0.5044969772115118
Ni 6.250203001522986 1.9853475060428731 12.213813544039969 1.2374686090927913 -1.6074637237382703 -0.007274165063910052
Ni 7.401053591400932 8.012446686738757 1.3702601234552216 0.9634435194867342 0.01194843061112781 0.15968247559671853
Ni 1.0052215118216474 5.3070473466197114 6.734462259630714 0.4340644343215621 0.7455075595647612 0.0653381590861778
Ni 2.55657495537083 1.5763665606905009 4.68043305536408 -0.048771255866432134 -0.1166344953673088 -0.17504507409571787
Ni 0.04034326477727094 4.257329586881956 4.42967564046171 1.0369601006186464 -1.1300733729355636 -0.8693485999828383
Ni 0.4303025219258354 4.915828278007513 1.9201348671473875 1.624840267343505 -1.9680439728277528 0.6459004519933844
Ni 6.087370538727106 4.892692060212451 9.118082313585077 -0.14364419118693325 -0.6355188516487442 1.534704075377041
Ni 3.959873085123433 8.583555113181342 8.860624825796902 -0.5953237674870974 2.6700266125266854 1.3091676773999905
Ni 0.24151116783025628 5.970984468046127 13.431645636002164 -0.8949043369647557 -0.16209545591358537 -3.287104226751107
Ni 7.005980012423985 5.785336233685032 7.237571080538787 0.11628045446199974 0.25101988696013544 -0.7828224939651357
Ni 3.385322150611619 4.892179346244693 7.673277241460525 -0.33488207299242967 -0.38747038861210686 1.6747420372699544
Ni 8.278673414496902 8.681895483318566 4.8954250087727305 0.5338206658762936 0.24717608773401303 -0.5625126344943474
Ni 7.78282407403588 6.89223075643433 9.285718723146717 -1.7935943662241884 0.47095025160431797 0.8653428212575549
Ni 2.081362352112054 8.27921359528436 10.601345511094737 0.5035312708641327 0.19553496651895358 -0.23286352776608282
Ni 6.764912891512233 8.813525638933768 10.82527516763419 -0.6265289894453081 -1.2791999273933066 0.5988659763124009
Ni 8.970553447166107 1.0886931768939012 0.9798449170996155 -0.1779463069029129 0.2870389853672218 -0.0543880878325773
Ni 1.2142897877813836 7.44677669059703 1.522565469820249 0.1682823014505876 1.8642575370677057 -0.3648151131064362
Ni 8.090168630886872 2.8784403042372424 2.5798649873562205 -0.29102110994342134 0.3490863895172697 0.015031954632457984
Ni 3.5101222237277634 6.079972808620889 5.699796317089271 1.1648166899540198 2.4062738513809143 -0.9164262701969313
Ni 7.802984719696636 5.301499049040048 11.314581911642358 1.1998785666541594 0.016289481188642915 0.10748136811313103
Ni 3.2390521800956233 4.613894684637679 1.622692098798715 -1.2239479488985372 0.6156763630015203 -0.6722095222015584
P 6.691402526384984 8.906748024999985 8.201833155261198 0.8213720721035597 -0.8715787748649377 1.262450732959426
P 1.9391483153052846 4.010320477308157 3.3949968800710737 0.7589881105496993 -0.5929483252763852 -0.12787767238129588
P 8.346608015224785 4.231052996034379 6.387425401629373 0.879341449529492 -0.08849865636304112 -0.08286665488824439
P 0.5786526462538756 3.535922723033852 0.008674021661670861 0.18563133425199643 -0.5410688627982746 -0.08115584284472475
P 4.215470153657173 7.981610603820764 11.222911400889267 0.8130928628139028 0.3196318317015786 0.2070596793291015
P 3.080568630419117 7.85387158099658 4.289591197742448 0.4685951211085801 1.0491651273252705 0.3597875779848578
P 4.486219751059465 2.1273692751117337 5.337778140062183 1.2323657406485873 -0.47026325283962234 -0.7642637571263419
P 5.848363429292951 6.0021867752268045 5.417187462500615 -0.3432978078599507 -0.1617360156916376 -0.9387724991026154
Ni 6.849318428454331 3.2471274250878057 7.27893794213026 -0.46519869383252144 -0.9473011053989169 1.3876421167578101
Ni 8.765632660981266 4.988011080182533 8.628480759045448 -0.0172929827524928 -1.6398894483671436 0.5547227061362833
Ni 7.571650008565712 1.5088714290778371 9.808752890626769 1.3593263005322527 -0.18662480851351732 -1.714596707373047
Ni 3.661180576478352 3.8998306172563892 10.006405040757988 -0.5883542781477996 0.6162085813559065 1.7827671937016973
Ni 5.745298766167103 4.124417646347361 12.204218468357649 0.6272692100454422 0.8066303950180108 -0.8320467782085865
Ni 6.377548333264785 7.49379073031909 3.8582000741957843 1.515745274886351 -0.7295235254316791 0.8300462028387898
Ni 0.9080265080659671 2.8366632714715636 6.512435138135904 -1.5095502018192324 -0.8764805830419292 -0.2156026838031061
Ni 5.283251925151817 1.429025384206155 9.941683142374501 -0.7792715433890838 0.11263128774518667 0.4663037539712421
Ni 0.4842070711502954 2.6637047078124714 8.878648552884897 0.3765593981265579 -0.9073088812766955 -0.33601567237624064
Ni 4.079738286299911 2.8646244939274883 3.1073222283688406 0.772407726389715 -0.8516817788306944 0.8943867738983887
Ni 7.470947491934175 3.571574655006141 0.3032254494564528 0.6936579218833214 0.2743793876216823 1.3993102971243578
Ni 4.802692447657855 0.2673565296085238 3.9725563469008374 0.2581367005105748 0.006522117389233929 -0.0006579452989730605
Ni 4.686562733960754 5.146906632154559 3.4872963809953257 0.5252897455871469 1.2243618965075043 1.9874254626781576
Ni 1.5114533101297596 6.219449319064096 3.6594483357158567 -0.37544945289183085 -0.08768798753628769 1.1276809614439869
Ni 6.680763711554013 1.5557115122751224 5.342146279955347 -0.4652436881378439 -0.15162181007577114 0.5855780009542432
Ni 5.277895895310064 5.813361545386928 1.1556014341256138 0.34967748613404936 -0.7434072253923067 -0.1338680856367759
Ni 2.1985358049578045 2.494875322715141 1.810079898407558 -1.6470134610064344 -0.718240239208376 -0.70094879911778
Ni 6.345247353296054 1.6389909096094673 1.4599337964160293 1.1881792759393601 -1.0767540926871326 0.5533299395538148
Ni 0.5126782608920073 8.694530220381166 12.41943839636982 -0.969691557278975 0.33085855365533345 0.5962043703198376
Ni 8.226495612670996 6.09828402175509 5.234476346726248 -0.35103425727225995 2.4197659723300777 -0.6406438315801354
Ni 2.0199740100796464 1.6469929097491127 12.568662881125018 -0.8833045479422982 0.17278378886536694 0.5086163986965241
Ni 8.428449982328095 7.9452994681756435 7.105740417139766 0.40111291909620594 -0.9161660745570094 0.3425179922711327
Ni 5.010332448993124 4.06597740962956 6.053453594199283 -1.6395942857242278 0.20205682679787138 1.3040768931406443
Ni 3.679903791908072 6.385101708682642 9.695790101241228 0.3269828727500111 -0.39689219614663906 0.17895417934213695
P 2.471244702165455 6.33733690922208 0.25925381779664003 0.7697780020763517 -1.6511830190030916 -0.6269321384209977
P 3.0792685342865886 7.195226400165948 7.526157630655104 -0.39803685127404353 0.04796367236347224 -0.12683303316686542
P 7.110463794567734 5.678142391997422 13.430708101889692 -0.1586702322821203 1.501745361062833 -0.811199502445932
P 7.31258296514304 3.3118300966975043 10.687682881022491 -1.0396371332301773 1.563888667360797 -0.4787280957775239
P 3.613763690067339 3.068831142800094 12.015370349501355 0.7210589396040936 -0.041081600531658276 0.523934260000517
P 4.882007467348645 3.1356670707399266 8.56287351350692 0.60179549125437 -0.6621886476304466 -2.1200645610038396
P 8.749793461620182 7.170661907746418 2.799949289137491 -0.10552373016612794 -0.08760648356607492 2.4398701992791207
P 7.40348898274778 0.03441592508573017 12.94145537596027 0.6507639507332728 1.1730005113163926 -0.6303208523875725
Ni 5.736326271731345 6.3187693391040005 11.047637384329356 0.06034327697474769 1.4271417175143293 -0.5841587520092133
Ni 1.8937914403718696 5.79358543520199 10.874628464834142 -1.7662815373418483 0.6009603969475844 1.930238729054521
Ni 5.664436448966473 7.749094819442684 13.206817814458478 -0.5721470722603178 0.4373634167878081 -1.0200424989277015
Ni 1.7293384352136132 0.051342810506985276 7.846394197113229 0.010681133862929992 0.2551722185656122 -1.203425146354837
Ni 6.030111375256461 8.00918729080087 6.244928456579679 0.5894619093896817 0.7451424629158586 -0.8420841078399305
Ni 5.351598528175222 1.2492275824414387 7.451772905100697 0.6824252863922956 1.107576477384628 1.1161012270261876
Ni 4.233662343906002 0.5784704496831904 1.7126871335500278 -1.178385686887706 -0.4635367327490662 -0.7845654447981714
Ni 4.62825983134146 2.8889875630025426 0.6039834629430721 -0.7370375744205371 0.7380269349169999 -0.08384573097206205
Ni 4.0082238434042905 5.429585984913782 12.28415057593106 -2.5760602481808537 0.761021081819328 0.6303298512486369
Ni 1.5079741796342612 7.504154876953049 5.758247540534953 -0.4598225171222726 1.1247455329647469 0.9621461408315495
Ni 8.475747845853736 2.174218513915586 12.03064647905856 2.5615052331848145 -1.1449790864028022 0.2970711727922432
Ni 6.681203180669234 3.9204490432454997 4.580588419067881 1.0456483724212637 -0.25794361066316224 -0.7646216546863928
Ni 0.3673650512622743 1.9106835344881696 4.185726334602634 -1.5295425857807592 0.01435626872167205 -0.5464571236933814
Ni 2.5615281385236313 4.116031110731897 5.493876654227961 0.07839859181456175 -1.2449186376129333 -2.4427392932967993
Ni 9.080439037184444 8.786132064085004 9.322903303658336 0.08791732993827439 1.3227508154010637 1.2302435520992618
Ni 1.2589233697959978 8.964538213651522 3.5197649085642335 0.005146577197945976 -1.077920345081092 -0.47205248352956114
Ni 3.0352758447316717 1.5439923358692342 9.194892359319109 -0.5854589588778755 0.8516573533506623 0.8322804914859473
Ni 1.1230083903073933 3.478956538973354 11.002814281258802 0.4979702318365875 -0.30296157013474917 1.7832325633738904
Ni 3.4563513463591833 6.844548357432871 2.433039271521602 0.10878260342305782 1.1303194275080986 -0.8242265108332192
Ni 3.944043041368917 9.288454418388964 6.186758310255607 -2.0840315786396815 -2.319032721574058 -0.26131586956950476
Ni 4.432705230674763 0.9345951627630356 12.609224964899242 -0.8049627775076008 -0.4674764341231046 -0.6832652657950878
Ni 5.3100229187540195 7.068274759506536 8.214375420697468 1.8003460831257252 -1.6588325651285496 -0.22948484110183703
Ni 3.075468957561242 2.39886047664596 7.011618034948004 1.3915123983464937 -0.14832668426426712 1.0602221564703804
Ni 1.1650692468766524 6.888824870791368 8.541995983851962 0.4761958162739734 -0.4034832191005954 0.4014034537534313
P 1.2550230813984131 1.159859706739972 10.424932537077877 -0.9110385235224568 0.45128234086174535 0.1587964734473394
P 1.8808911907188253 0.38423791860478346 1.349596834993933 0.13804150028817516 0.22843917344614206 -0.13965486752188208
P 0.7777001108259206 0.6768685001417879 5.904188824775189 -0.15929423901936438 -0.8153896292678797 0.44952602029227096
P 5.387168059688406 7.878326206137305 2.144601042231673 -1.7586703006534938 0.910779099213483 -1.8815165812584693
P 5.929866638953279 3.9115497936622776 2.31730233334623 0.7826471447295359 -1.4060393883180753 -0.7258507045657822
P 7.349599082493827 0.8793383304486148 3.4724624672353093 0.16187819769645667 0.7607935391895543 -1.4962385723119909
P 1.7331105451192585 4.508531964263488 9.20226170704497 -0.8410986039982095 0.5005968708261572 -1.6500823297397453
P 9.098356559236262 7.129058831505514 11.036341196946866 0.7036654267179946 -0.21749321595759966 -0.46149656239058584
