# total energy = -381171.2965657943 ev
CRYSTAL
PRIMVEC
9.18722896302261 0.00000000000000 0.00000000000000
0.00000000000000 9.18722896302261 0.00000000000000
0.00000000000000 0.00000000000000 13.44643824671580
PRIMCOORD
 96 1
Ni 0.22990122196725743 5.007453305912078 1.1767829931491385 -0.2528535977347645 -1.2218627842347345 -1.0636388954614133
Ni 2.89903015472219 0.8503883035379349 1.368525058888734 -1.0706047852562852 -1.0578906801237264 -0.08039839585340992
Ni 2.0889737871032232 2.850172470162492 6.786578603082927 -0.20688792963792757 1.3535138076155333 -0.08445276842844164
Ni 7.5014920257413396 7.871608738823697 11.939281082955208 1.61738843905115 1.1455226176110982 -1.5368668873563143
Ni 8.153996600860445 4.031025405820082 2.8776992461079165 -0.6412637245523214 -0.10502467904252237 0.38022604834486773
Ni 0.05549362016659307 1.652534466868466 8.552795843313879 -1.3013949754331071 2.404896511417413 0.49427169993907777
Ni 4.380930214797263 2.5832559019953436 9.162308779678359 -0.19099696943928393 -0.2344308722532027 -1.074055205698731
Ni 6.447698469072207 8.137128848161762 9.952018190923807 -0.15494496091173315 -0.5680926996852862 -2.0610271473247086
Ni 9.103450796201168 7.011968895543074 6.0909546867241655 0.7992718977704105 -0.2588774353313413 0.46867791063037345
Ni 0.4523029087885801 5.638836441241273 9.099527849358935 -0.4583469610180106 0.6502530725351252 1.1273305200831034
Ni 7.970380639294046 1.1731632248684838 0.31524782449719796 0.8237035484502137 0.28301443758886097 -1.0875033607838367
Ni 4.879061778698506 6.634961760606678 7.124098108458203 0.4072450001358728 0.200292535808597 -0.3209209828266473
Ni 1.8983112207874269 7.446047097889181 4.964627037281947 -0.5192044586250155 -0.12114343898125589 1.1613865812265483
Ni 6.52200477834615 6.862409992393898 4.9770380651254404 -0.4817365435865445 0.6830631770866107 -0.7450162217506394
Ni 4.332734010735553 3.9827005805504303 3.437837256912189 -1.5674722709469973 -1.2756515479204158 -3.3440706168338217
Ni 8.355867586725477 4.155595045711948 12.0969541468797 -1.2143027124992893 -0.5876138004373493 0.41952458883417426
Ni 2.965711063810999 7.941348995215699 12.847735430818577 0.1595886303313316 0.9165501973693053 0.7021605600376939
Ni 0.617253176913849 9.002584207487192 12.543725425003858 -0.012663197289965287 0.1367423218607774 -0.3021817545459312
Ni 8.90462078318105 9.044542282963713 6.915745532435807 -1.1412738696370732 0.8027328597358175 0.7114219307349618
Ni -0.05877989202951219 7.261650221845989 0.8944897595725188 0.5076614909824225 2.3117932664028253 0.5616592853551166
Ni 3.2194990815389213 1.1723914976208316 6.01283016502017 1.4570526461411486 -2.0392051663536104 1.07839599916593
Ni 7.26279862548833 1.122229226523436 11.484791613631614 -0.0028320701321564124 0.2787947430805585 -0.08174051170360117
Ni 2.572203665341467 6.396442917707303 10.515975332881046 -1.2184992670791401 -0.17299796175870205 -0.6521824283473542
Ni 8.69065021654033 9.096505250972298 9.82999157605754 0.03276279625331777 -1.3153964319185216 0.850411139648387
P 2.260756597538956 5.7883218465573405 3.5528310478727696 -0.5784372761444038 0.6475058488072912 -0.8897407904859451
Ni 2.9236243671265356 4.572851431505064 5.173342508855324 0.05396694113475867 0.30069488558775953 1.72486723606112
P 2.2453220525859114 4.134032618923379 0.19481978750106607 -1.562425452551709 -0.006068574791583097 0.09267824166202748
Ni 3.626162592135096 5.446014876077879 12.752051358061752 -1.8233461435653242 0.002372613997234624 -0.2501035457934531
P 5.450461494981018 5.835617702163455 3.1127967648760326 -0.2976262739647649 1.309076660348081 2.289991082926069
P 3.5825048792679124 4.4646350594801145 7.777702394905214 2.87355693854629 -2.8668224480359337 -0.5241011245956845
P 5.033324543166705 6.814902830517592 13.448321136628964 1.064054385732277 1.813244279244632 0.30103221432252025
Ni 3.7598000271868752 4.296104528159487 10.682845731896306 -0.3730732393501704 -0.91689523941355 0.458469602638804
Ni 3.4607924676381874 9.251999104145085 3.9900963000070977 -0.5254841209861402 -0.41938986302852294 -0.8253565106726043
Ni 6.59183690702954 2.2443482062972073 7.461280442524088 1.4415519794023883 1.2059381425846778 -3.30935686750172
Ni 1.9152157224026662 3.8056902367347676 9.014908875376781 0.3228832487593407 -0.5267123369662864 -0.6190985013091919
Ni 1.2417918265347008 4.244931661856833 11.197427948293337 1.1916392094635027 -0.2417222637082934 0.5572868673190338
Ni 9.088098936310372 2.2205349083696526 6.2873124163830525 -1.4565772491666271 0.20379000743889417 -0.48741868157298635
Ni 5.352553194049709 5.001950155657986 1.2374150305730158 0.06542866191745507 -0.8126897138382133 -1.0116311349355545
Ni 7.207445569927558 5.970449477003268 10.733754005999767 1.7078874136736717 -0.5776196653391148 -0.5813349094071731
Ni 5.133740957652884 1.7458124043138612 4.1919672858721295 0.2139507500219799 0.43705334174655697 0.5913059045769559
Ni 2.229970192695115 6.325462385381575 1.2026827108140958 0.605932396240879 -0.14932838605590412 1.716665674086934
Ni 2.0042859089025287 0.7600925406709674 8.154161970984942 1.665733406013441 -0.06294549048428513 -0.51359096909298
Ni 0.5115632929020472 1.8697664998534327 11.081841581053308 -0.4645587462556774 0.07256167341781052 -1.0613572985160882
Ni 4.796192971867277 0.43745542777749935 10.39499789958242 -1.5695762046638773 0.8522543635047127 0.7611666062582568
Ni 5.190619093250681 8.825426868005309 5.706143919357342 -0.7319208220192621 -1.316538773053081 -0.3557499175803744
Ni 1.4153753338816222 8.353267600879219 2.935424444232304 -0.26148659081941417 0.5099124918001283 -1.6914133272780485
Ni 7.7747202203267864 5.305275712901871 5.86358822127628 -0.49942470489492696 -2.442851907615264 -0.3786800440139865
Ni 3.899087608158965 2.8677935756505515 0.6173744483384801 0.8858198581649841 1.0956830683811518 1.3612266028787587
Ni 5.2146988208232585 5.708365391363085 9.628039742576087 -0.47836659867304715 1.3539377825268295 -0.7958083647018424
Ni 0.7414893203879791 3.7073501360339387 4.6320695543644925 -0.6570888645100361 0.27773724835032165 -0.8667358449503396
Ni 6.865340718489149 8.252345888790412 0.4585594118320464 -2.0086090387343085 0.38986742808937375 2.168556595066956
Ni 5.830766845178213 8.747803969012288 3.539021723754364 -0.640265365194794 -1.0861707580153424 -1.0281448163198617
Ni 2.1956926407785615 8.883526905078556 10.418999535707316 -0.19030637113016258 0.35808319369924135 0.7232194375905221
Ni 1.2370787779865389 7.697290253145678 8.437613714155955 -0.587337406847511 1.4883033766253142 0.13490475443140637
Ni 7.395462214251404 6.035972795220599 13.357517319990626 -0.3614906767188935 -0.2672168084349721 0.2309961355400409
Ni 5.699527276931639 4.778525930233524 12.14651741063725 0.5311580314424659 -0.357974436035519 -0.352500043184509
P 0.6757960384315823 0.39043151415388955 1.2182128029501833 -0.9801562042557248 -1.4118719358394525 -0.9491600129845268
Ni 2.1236831387892967 3.894337810694249 2.394716504333504 1.259747732205966 2.9175852804110978 -0.09654055283091115
P 4.909370447627134 0.5885320611803915 1.5271251142333218 2.5399786719669484 0.599234158285097 0.7468918415067975
Ni 8.334681836331596 8.287532976391699 4.358300231982775 0.71115042224113 0.19635180599329408 -1.139322145227341
P 8.59425780841691 3.883956241767499 9.876866656569103 0.7007243418117998 -0.8278396821057742 1.6102256027541237
P 7.444512830623015 3.244662902149867 4.893912015878328 0.19023695134480786 -0.6173745766395496 0.17837542402053153
P 7.3957194566672895 4.074379940125689 0.7274833895660048 1.8010374527657949 0.7656230993677137 1.8223220731761842
Ni 0.7283231023092837 2.5602235185445794 -0.20122879854823517 0.6903375992608369 0.27319899416033594 1.1423719877972585
Ni 6.567040575584143 1.3107419812207728 9.24934766981565 1.148787918625931 -1.2141672153626897 2.1679297601162344
Ni 4.718965123727221 2.9940812273913577 6.2994147533274845 -1.4506801669559015 -0.9267636475671974 0.7112041582972009
Ni 3.940898687969267 7.809898120698934 9.05484484171987 -0.4579880350166951 0.24787774178672795 -0.854102215346729
Ni 1.259578302147257 6.238872750749167 12.526392798510754 -0.9208189999479883 -0.033425112427665014 -0.12640520160082744
Ni 7.121802219896438 0.7564378609195858 5.264482578080139 0.43670007217219625 1.885382491971779 0.8265050224547509
Ni 0.013260846538824304 6.329422081140363 3.3408890214258764 2.108251370418995 -0.7705850713586793 1.0685874977159402
Ni 8.597528461990292 1.7244245348789278 3.47135961859354 -0.1185355690447636 1.0199489107726305 2.8588319736312893
Ni 7.617756410491804 6.454846133342129 8.112545660432382 -1.0656829224746356 0.9567236842643976 -0.20846093055200227
Ni 5.549040463639452 4.600036442526528 5.003715941098447 2.670453672761775 1.3123926120951914 2.1090952064765287
Ni 1.1915376831459181 2.0545400522913115 2.319053241315772 -0.5533561648060599 -0.7546447459793391 0.44460621439315046
Ni 6.218853778455902 2.71075626798246 13.363178490585904 -0.8071430729883713 -1.2433132407990264 -2.5237316139804666
Ni 4.931520857080581 0.566141865046424 7.627761303023868 -0.7709985047470141 0.21375251796824477 2.458316836020083
Ni 4.096126111497032 6.811825108756122 4.693129716666235 0.6229980934739141 -0.306772202130091 -1.1264386043964536
Ni 5.2190443802058715 0.599235183126997 12.780235020890593 -0.2790719080013452 -0.568816208114872 0.46061930199195505
Ni 7.246831221245239 6.686759358490765 2.416902743980592 -0.9058587790937302 0.48848646071586843 -0.5629083272708693
Ni 5.828166859331955 4.4513687006038065 7.791861752453804 -0.236492896988554 0.535438918206007 -0.8746602420037388
Ni 6.4355713266091 3.701727551801044 10.028905192862817 0.4486050511398983 -0.5910405667307111 -0.161203026006303
Ni 1.19030659444133 0.5942612172712955 5.048922620798419 -0.8082450478032984 -0.20560572049139428 -0.4233622174127096
Ni 4.024493285902454 7.825782839879776 1.97717807060583 0.310947159443387 -0.9253932495822321 -0.13924374812639245
Ni 4.591868995822208 7.268338524658976 11.291041219602295 1.195777142891276 0.2908341907435959 0.7049520067399021
Ni 2.6620088301724265 2.332821222903053 4.248186697140681 0.31274796009755174 0.5843189317361613 -1.1562749710315958
Ni 8.16241210275151 4.083383424681631 7.863477122313019 -0.21641180996796278 -1.2229421333418422 0.1708354068897445
Ni 2.4090568502961283 5.992691758748102 7.632037039465025 0.08122937639513753 2.566443551026696 -0.6130049868169443
Ni 7.4164917817499285 0.4542166086181748 2.3255081885086346 -0.5348082266005434 -1.5282475211184197 -0.22991755776388145
P 2.9439465179813777 8.319734214522903 6.774140932274931 0.41629091238822497 -0.8570602695337884 0.720331831630082
Ni 3.0252902447755794 1.6230618357914615 12.457156920998468 -0.9994186520297627 -0.765383729663398 -2.4448450267858925
P 6.661953839816229 8.371311318907662 7.381879814692725 0.32826251079338303 -0.0355077059883066 0.022340572478729264
Ni 6.076304731139567 2.541454009414181 2.119871357419643 -0.0621571902550349 -0.363347013201342 1.216991829295678
P 5.1870728228031355 2.5923788205300893 11.439315748117878 -0.584965821291541 -1.0132972097840678 -0.13457102524107148
P 0.2636440771479377 7.270543459652268 10.908423443830884 0.12012348235717377 0.1305163955557236 -0.9359707679877622
P 2.4141098263224223 1.952469936560164 10.046304886128635 0.31212061092619797 -0.8779381414240622 0.5039832707998869
Ni 0.7219379780578752 4.878437047117073 6.684735411911506 0.42072349423828187 -0.3988246372826615 -0.33684948113144564
