# total energy = -381168.40090624493 ev
CRYSTAL
PRIMVEC
9.27671090122507 0.00000000000000 0.00000000000000
0.00000000000000 9.27671090122507 0.00000000000000
0.00000000000000 0.00000000000000 13.57740410824616
PRIMCOORD
 96 1
Ni 5.762906167939298 7.045151700292263 2.0381583190568273 1.7008125091047612 -0.3242600745022093 -0.7593835462159051
Ni 3.9668236195032884 5.272195992099889 11.955379710255587 -1.2427769086795821 -0.6379212904426498 1.4243405006201084
Ni 4.544697770845789 2.5184414718581905 1.8165349129306532 -1.3610360841345077 0.8375851915283123 1.9714028619976565
Ni 6.027069787184303 6.689955717103894 8.460406713356523 -0.5218750634786431 -0.38923442249106516 -0.08416506198469376
Ni 8.911236309088673 0.5336177467094018 8.733556682438676 0.6552245576077876 1.2068231162927927 0.599649905666277
Ni 7.460470046745376 5.209847218222039 0.8377018359184822 1.3497687387508044 1.1812763781719398 -0.45262882758731077
Ni 5.818084044300771 2.103781771878121 5.031215801034938 0.08756251770201695 2.4567674892550917 -1.2629682960257929
Ni 4.82888053218697 3.3560820814848125 6.771472031018408 0.41619321046809615 -0.2334245424758754 -0.6785169524768251
Ni 2.8226062684519957 3.088402588813278 5.620895494653433 -0.29157364001278174 0.176299001107477 -0.6744427824074514
Ni 1.7424446060819356 7.416758185041398 4.426817677921636 -0.42227309811358893 2.557911859406601 3.670709990201485
Ni 1.2709650519132283 6.3486376934038855 2.703138930294916 -1.7409623418507694 -0.36287007356492346 0.02484379851655721
Ni 3.456660180931867 6.253523576669827 8.841863209726474 0.1837821968583996 1.217497051066871 0.6334023195263737
Ni 6.701264027676294 4.172339872514731 7.732535568324729 -0.26616831256579965 1.168902172877303 0.15310225127603957
Ni 2.8471617221723755 3.2652909120245353 10.641847542761953 0.7173400959916097 1.224243111541453 -0.5326631552330827
Ni 2.16073150001919 0.141697120457853 9.969683974283331 -0.550908988817148 0.7909739194276765 0.5894683371475847
Ni 2.2478954755222826 4.126114022160121 3.0672173641584877 1.0960365950658286 -0.4498972875887606 -0.4933569014342922
Ni 6.617003662681127 4.358412139505049 2.6801521683856873 -0.6772972211371109 -0.5841939761225229 1.5415414100138485
Ni 5.841878807728339 5.033970056497567 5.195095392568035 -0.21135624982192636 0.00573818803535786 0.009224603922061533
Ni 1.663017407459386 7.722509299197042 8.56541444225257 -1.176993948746502 -0.16699289321520272 -0.9872048835723902
Ni 3.654300506399448 7.72157235139736 6.352690688390827 -0.8573667450306138 0.7279888339547075 -0.6004934846134949
Ni 3.3101901927221684 4.088821644390599 8.293920366063915 -0.7969031404279179 0.17578812290932952 -0.06704948535032969
Ni 0.7611578390399044 4.900969852497159 9.405393710694042 1.3234331861800692 -0.16257213843968776 -0.5715292361706609
Ni 3.2860614677026345 1.683120039953554 7.700288793607157 -0.4766429311137211 0.41045476532242214 0.9048568201917772
Ni -0.49739868438961415 3.2489175173073193 11.282157669064652 0.26001771958337155 0.9727534840337505 -2.3087282543242558
P 4.641843487264307 2.877366692823511 9.386738245098394 1.2754890542006228 -1.266962247676534 0.16631489331157162
Ni 7.5554542895270025 9.330979646635335 3.41615620585294 -0.4874665040917863 -0.35239334240331566 -1.2555766315474117
P 6.650548249251921 7.2395173468164 13.71765885188703 -0.0987766412502815 -0.07468437618776816 -1.4471271594973205
Ni 1.2545638270633488 2.442159078226653 9.363589140748624 -0.79582379132081 -1.0027531157196345 -0.4722748839530125
P 4.314997132549485 3.5942245266891426 4.02574093802369 0.41837222039728594 0.13055290522061389 0.12522480813948111
P 3.507403789488904 9.12024988210487 4.456918749410827 0.3455022717104372 -0.9868796390224877 -0.29100645465540204
P 3.256190458643465 3.9218779552512144 0.6617003662681127 0.15960791360504123 1.0376147034835097 -0.5062787517022829
Ni 4.1713658178714965 7.8978020281355725 0.13290187086499625 1.4198415843084902 -0.4731925106712754 -0.7092174668844754
Ni 3.108069215895713 0.30728362679433135 12.233824825912578 0.7367172149666409 -0.8657745094783347 0.5924582730138442
Ni 8.041238531884915 3.852321177013434 5.614419422782561 -0.14287903088613457 -1.3196639489456239 1.0062238478770542
Ni 3.7151835599570036 7.420793554277653 11.147808631301135 -0.8585252841150892 0.04616904235689468 -0.9823125884770951
Ni 9.04582283065092 5.526275826609702 7.158414774207488 -2.19569047516927 0.06557598612859673 0.27034275565846344
Ni 5.07883223035165 4.997113684139778 10.078900546909239 0.5455950328034023 0.12442210973252765 -2.3440575257531697
Ni 2.5283026155320716 6.436209844186047 0.8538637216274528 0.3816018456464718 -1.1211315903612433 -1.7871450110544187
Ni 0.07607552297873678 7.261410384511941 0.7148716900645234 0.141000325806183 0.4772389128265071 -1.018380023623614
Ni 7.99368611187333 7.595882195576649 5.083258149116286 1.2996353124295228 -1.386134678974348 0.16416030886241406
Ni 4.805892842606653 0.5958793195049057 6.166625842769219 -1.980076221401938 -1.6006112195928113 0.8332963343449713
Ni 1.638211482545032 7.845741126632449 12.316158418056318 -0.47831003440349884 -0.6599646433959343 -0.09236508129698287
Ni 1.3170517516045186 1.6691771434889788 11.784480431593584 -0.4831143977706777 0.18460212165653367 -0.6019163331029505
Ni 1.6372467046126862 2.4751656155659463 1.18320551157113 1.0828643193499288 0.529668848491449 -0.12472421435397874
Ni 6.732916165225948 -0.3015617515186494 9.663174025177055 0.30165647817008046 0.454034963906218 0.29136615198766597
Ni 0.6853634004010724 4.928855645426309 1.182786204238995 -0.09853341489122386 -1.1540769349390125 -3.023102839929639
Ni 3.7943510106746916 2.422780029181744 12.498692547513976 0.21672034234731707 1.2074684631862753 1.2352492328439695
Ni 7.148048977461303 2.296375566622662 9.891898753487949 -0.834151483256415 -0.6456703382604493 -0.02593214648472953
Ni 3.3183815284362206 7.335967309918321 2.8090696919243126 0.9736016909666587 2.720096275489567 0.08387067067272652
Ni 4.502813421186737 5.5456919824981625 2.864099140911578 -0.2980438211181577 -3.505435108118653 0.92320575501261
Ni 6.798298423564156 6.429604826033834 10.949660869747985 -0.1322050961120562 0.6302843427226822 1.271839116152861
Ni 7.829701693507199 4.908660245823262 9.662739875107498 -0.7628411657472023 -0.3209112126346344 -0.09709205445900698
Ni 0.24447380038535 5.812082012356273 12.361154176547187 -0.9877268175141313 -0.25104508377111606 -0.5109836133771198
Ni 7.120886767981411 1.134486081329842 12.204022464513978 -0.7875391827145146 2.0263892455358645 -0.370267137359943
Ni 7.69670148950679 2.3896714480226833 3.7172077382727524 -0.8038523180522414 -0.8088981080062648 -0.06720529420190362
Ni 7.066553072310742 0.20975570988723125 5.718952184081146 0.6565962411443337 1.0739845003617956 0.2200776888553242
P 8.67648914006933 1.712276742274352 6.171392216823443 0.6639105154175599 -0.24302324190790403 -0.509060171102162
Ni 4.9040497205119555 0.9097753858201614 0.2768606534373292 0.6884275267223176 -1.01286603578392 -1.3931910716004974
P 0.7143670369922195 8.74870833433195 2.10952127290449 -0.25896228173566366 0.22682837731559646 0.45100440461001035
Ni 6.475459607952925 1.5754081498336723 7.668870429171879 -0.5422369149644468 0.42288502066597494 0.15506914519442327
P 0.5306621866205038 7.553524733662311 6.440441879693125 0.008529377627249826 0.10452228548480709 0.4537647409639669
P 4.476671649904519 5.881583130328726 6.898203961471835 0.5610147097925822 -1.864877944260524 0.16633623346781032
P 6.512900413096654 1.4510538403808246 1.9539239288521464 0.2910751031098084 1.8994366560719997 0.9487334669700692
Ni 8.097733701192475 6.945074543233156 2.5917766544406295 -0.2831311656723834 -0.4210695647237909 1.6372075306596061
Ni 6.200182489064167 3.0915845006478415 0.37971247472301856 1.2454241164944422 0.20909882124631732 -1.0576664799280624
Ni 5.620675636605388 8.546030754852218 11.569265377348799 0.3935857574812254 -0.7935357666175817 2.7519512152166348
Ni 1.6898178252146472 3.9463220884409385 12.655484731928686 0.49978800177161664 0.33654429118620105 0.10108369211690334
Ni 8.170574435084587 7.843004496920505 8.16864116853554 0.5884977457041993 -2.428454758353327 -1.915140697070818
Ni 3.212404383252384 5.8036402054482465 4.82441843424987 2.344550663339504 -1.4555308101799835 0.6004086382091725
Ni 7.267802038313731 -0.016629431937722823 0.7001569712540717 0.5029725701471854 -0.5217786471100949 0.9696362785610075
Ni 1.9292497332324015 5.891824619149013 6.908346189485621 2.0541147364755914 0.4714827270690203 0.42244356225318214
Ni 5.177592094464668 -0.22186460060926053 2.388332818641553 -1.9040404733925982 3.1094674806688127 -0.0657572489014674
Ni 4.543250603947271 0.7454653549018636 10.344053991205984 -0.2888454424483412 2.1311125912878843 -0.46989995596293266
Ni 1.1708044044561305 0.30456833351743107 6.959600944812583 0.3960121075345309 0.758877553113764 -0.6267472761037013
Ni 1.275065358125698 3.6147075043297163 7.329734287872714 -0.5382627608080472 -0.6027563125057426 -1.047110558789087
Ni 3.864464391565748 8.78191895931078 8.509067700319218 1.0188507926124455 -0.6292808411588324 -0.38108942478642754
Ni 8.822300481805986 2.7813898419768748 -0.21945451112057346 -0.0944301913561277 0.27324810223071655 2.4128191086985997
Ni 5.735679021483191 3.3879383066740014 11.496911670778305 0.4909164103135997 -0.5303931282519834 0.863165611100578
Ni 2.679308915365973 -0.0472787570403907 1.3375699807464663 -0.21781923183845067 0.6120973874010104 -0.03231079631756371
Ni 5.054332436896598 5.460429732727097 0.5432479002821732 -0.8545750412180895 -1.1581616465313473 -0.6108791987231932
Ni 2.9615806742642383 1.7565823134751575 3.5127592346845122 -0.16055305112712995 -0.7131008610992815 0.061117436136610866
Ni 9.088783278772976 3.9728442048695616 2.9094205119546133 -0.7047483753695282 1.064333607535593 0.4923333452657843
Ni 0.5110827606204158 0.5993126302045326 0.06932114978122703 0.31731166820883416 -2.085575268977718 -1.0069381003352595
Ni 5.89634237735144 7.872365286880839 4.120524803850136 -1.2097796278179553 -1.0907442363186375 2.22421866451595
Ni 8.479192052904605 2.7705917505033115 8.053124781545632 1.1697213263444888 1.1333610425478997 -0.309411439525151
Ni 0.4245950573410541 0.04513027079874359 4.198676454725595 0.4874096827119218 0.715726985868219 0.3405415852710522
Ni 9.146586464315735 7.191927819961264 10.188348109636252 0.33231225538272446 0.1065727402559326 0.8538674736281038
Ni 1.0492702151132172 5.051289675725354 4.910471987459677 0.0410286358065358 -1.3870024262912821 0.28116812840874156
P 8.389300724400456 5.5735870521382 4.570873865958292 -1.950617292710873 0.7604292138716 -1.8860612632063583
Ni 0.7303842060113382 2.449404189430134 4.365827942188869 0.30696683463940033 -0.3131012296719124 1.1465315184915867
P 6.255638666752278 8.681860355673448 7.565193908288252 -1.2231105405989062 -0.16576390590410808 -0.09437105598341812
Ni 8.07207431887643 8.380691936696447 12.364303619893642 1.4133096967272434 -2.3174095841483378 -1.5604127929970546
P 1.9897709950653275 5.809837048321391 10.871794013896787 0.3665953449353106 0.8127403645704906 1.0821168996609427
P 8.746927205841466 0.6595722887904191 10.817185727583835 0.28470725191025154 0.28473604826565796 0.6731950260432794
P 7.416275796075226 4.628930305708293 12.416644678065582 0.03400618174211563 -0.7483334590493305 -1.6130790130425188
Ni 8.962425199768333 1.5041166266598467 1.8794792516475096 -1.1952084148719995 0.33770334449130873 1.9843373106711373
