# total energy = -381173.00876810914 ev
CRYSTAL
PRIMVEC
9.16386148374708 0.00000000000000 0.00000000000000
0.00000000000000 9.16386148374708 0.00000000000000
0.00000000000000 0.00000000000000 13.41223757877388
PRIMCOORD
 96 1
Ni 4.8642325093870395 3.1319236792739704 4.6332839629787035 1.0033897208623688 -0.047141433572493 1.0848592382927704
Ni 5.720412061524791 8.153811256786643 0.34711240016798234 0.5472366821718834 -0.3203666529850741 -1.206188053811955
Ni 5.705099249455625 8.612141774823352 8.58202107943727 0.8763497138910199 0.1602046666487757 -0.009904146487589393
Ni 3.5038298223110944 5.563838329021038 3.5586553711126543 -1.3229667880666118 -0.5782914945951588 1.0657803672844484
Ni 5.048994278949293 5.256784831713111 8.021697702604266 0.6591051236091164 -1.0379103803470577 -0.8907337505268337
Ni 2.8190786216861436 7.825076063873901 4.2872217413045135 1.1816653860802424 0.46074939981191615 -1.9037483960734758
Ni 1.4689669507404635 3.5415666027424684 12.958903871518046 0.8587122033149146 -0.11791824717573886 2.9858699237201094
Ni 1.9411623907763624 8.925490844777308 6.050327559760399 -0.7604716370737613 1.5571693463590923 0.9386729974102737
Ni 1.9554488503908627 6.5675560465170015 5.984808701321789 -2.027255450190902 -1.4664456573202744 0.34356057460303413
Ni 7.015522237533825 7.8635367893402615 3.94311692038315 0.45716168246065786 -0.6212245465132591 -0.26044940780415143
Ni 6.711181243141801 8.632815445695906 6.420746408124378 -0.8165291421889614 0.8362271348385212 -1.6495503684956752
Ni 3.6692191892915305 4.9021067477364495 5.831895931368385 -0.952811750804501 0.03147493067982966 0.7335172199721044
Ni 1.268690764162592 6.710887999583325 9.7522525696832 0.08106379735155071 0.5295852876387073 0.6385684371083454
Ni 0.1064950638050223 8.57306707065643 4.237944910460991 0.36623641893399506 0.7676259887303555 -0.4511458152838811
Ni 7.173479713079137 3.7557810222091503 3.8850821873885195 -0.7954892907995267 0.6633854961520252 0.4275052930468057
Ni 1.1791964956602126 4.028882413762283 6.997539992696408 0.07360528419097646 0.516464176875717 0.8160141502257559
Ni 8.51538056438749 3.608307003879354 12.526157937572243 -0.8364464499381788 0.48951207376690536 0.7391150257748562
Ni 3.7379481483093313 5.428900472816089 10.461692128773466 0.8044701541418985 -1.465154963533309 -1.4609658651526258
Ni 0.27175338757026435 3.782979362257794 3.3596584595586343 1.3330192872066076 2.8154644052789317 0.00011827074541915116
Ni 5.383612670753959 4.901327819534248 2.4957895114859716 0.2963044698295478 0.08427201987620325 -0.08363541473346887
Ni 4.316251937207512 3.0501270541815853 7.231999214331373 0.49130567533221836 -0.18984948609840208 -0.31516428284852815
Ni 0.4521000088052142 6.761041811943914 11.879111443864458 -1.5866421590072286 -0.5133693400004772 0.42233377614819523
Ni 2.625794461205683 6.5382041990858 12.046643321594008 0.9895307034920893 1.32215534790891 0.7931292752077824
Ni 0.6716514610361582 2.2500944796307762 10.517339675924879 2.366476516878318 0.9946741953662419 -1.1907058990159558
P 4.278964185975055 7.154556339696235 8.70920905822337 -1.3717966650851214 -1.5796742123298277 0.42439837198670777
Ni 4.053294940005406 0.7663865417601746 7.929355306040189 -0.7967311336264278 0.3291852797179685 -0.9649296171139575
P 1.580967662355872 4.609156432818974 4.933624015569772 0.3344460138962756 1.516175420445234 -1.0134285931556095
Ni 4.823957339402608 1.1218948715617716 10.306003625261862 1.380837435131151 -2.228476154240723 -0.1843164720953148
P 7.463845819137541 6.85565867885842 11.618055031475725 0.09440113789040516 0.3947640940600427 0.032704432211556576
P 5.034973571309662 8.04411067433303 4.615552807938232 0.16921355501560537 -1.1203507463311608 0.19220333104255932
P 1.9280030860897541 8.879882307573096 11.406209470129856 -1.0156775370907865 -2.7216240249880026 -1.8970789544731006
Ni 8.533442534817368 0.9898436316355702 6.425199128282611 2.1205430433021544 -1.631717196968996 -0.01174968433676041
Ni 5.944706728314083 4.062257196261328 0.4329172981502859 -0.6394832356131308 2.639930050251621 0.3537591124025908
Ni 8.349276416233268 5.04597020475251 10.685810849427673 0.048964345713844705 -0.07883773623450938 -0.642404523024984
Ni 8.997995314610487 9.070417309692845 10.461719620357073 1.04580469549347 -0.37013446843682063 1.584777594994664
Ni 6.440462455501284 2.089681089283229 13.23035393528251 1.374329458809304 -2.167474931967003 -0.9139137881877228
Ni 2.2051915597391463 1.1186691924185361 3.703829260280654 0.009098619867158524 0.0297818592481229 0.48616269767869824
Ni 0.9615364643814387 8.77523101264199 8.398072144363667 -0.5297081863698168 -0.803119810761591 -0.8342502136178083
Ni 5.5958935155069405 5.860719940394331 4.811961845088701 1.0175714116793895 -0.3024360366485824 0.3354780547052158
Ni 1.65964857463945 1.6616096409367582 7.566969498406211 0.13598101821472064 0.8840967048262903 -0.1519200580424803
Ni 3.5618187359997138 2.819729255831512 2.8878964701576075 -0.4659725958840685 -0.0006785141242633476 -0.9050077439473446
Ni 6.878064319498224 1.182742909945531 4.429364225186768 -2.2111613171113595 -0.3518806644329553 1.5804689403169812
Ni 7.070606207221292 0.26777077349171285 2.073786372027712 -0.11927450409331715 -0.010794262402026572 -0.8239740285027809
Ni 4.630187494278422 0.6680940501173969 5.606180866092726 -0.07803709471008495 1.1251445681753784 0.5758700296378598
Ni 4.715787121769792 0.4843311414262021 3.1518624084780944 -0.07075058835100073 1.2845989869216907 -0.1480721450512998
Ni 2.6250155330034812 7.002573701654872 1.8134282458625994 1.3276150854719009 -0.34678010998159636 -2.1573108469498075
Ni 8.888771252939398 7.781446920689401 1.886967315625526 -1.1189482095566794 -0.010449477468098132 -0.44641729945996017
Ni 8.522656670182174 8.502111293366454 12.974515425462409 -1.9982076408953262 0.868370295229969 0.1593122367414934
Ni 7.729295386586694 7.218987447810123 9.282823699344299 1.4784527090834794 1.3259161005029227 0.535065079806356
Ni 0.9965699057581123 1.1976433482605906 12.524575338742594 -0.9657122609162528 0.3431671958193574 2.1062945038029404
Ni 8.283544039828644 3.4551788831876937 1.3970856234690463 -2.079559401800941 -0.23870558836915662 0.3606175300853208
Ni 2.6432149613513944 4.526599207246792 1.5756562884029761 -0.5017618376685359 0.5964758788136695 -0.46546454589939834
Ni 4.3681468831965535 7.690193190836165 10.811027681669144 -1.5319103146819877 2.5263325419384235 -1.5918524995635748
Ni 8.565158658438783 2.501468356273082 8.589116657166269 -0.11780768973980357 -0.26370185330317814 -1.219320734539171
Ni 0.257929702946484 6.285464907124339 7.728412906752904 0.7270971753783736 1.4638264745298726 -1.4415555789468142
Ni 8.200272033082676 3.1418756325397483 5.861871837747469 -1.4740923752322548 1.416540030739083 1.3100958456412146
P 1.504385274287637 8.681044847203996 2.516618967998966 0.408665020411851 0.03498654337751393 -0.3926480761583044
Ni 6.095049035200222 5.86388147250915 10.009538969573278 -0.0630179955934334 -0.4498252967002447 -1.1554964409943584
P 8.509405726883543 1.3255708506457238 0.6518886779671197 -0.08658215606661863 0.25790581544669133 0.3693898769613122
Ni 1.547427930355185 4.567350898013747 11.133444392282849 0.5616610851273295 1.3939598314457218 -0.7483990221799434
P 5.11512070138562 0.8634409957545118 0.9501952697573812 -0.9205395210343565 0.9996256258342461 0.757531837719147
P 8.819730722640717 7.904224333078799 6.152099569501718 0.34925556810528235 -1.0329059851539306 1.5414861312958805
P 6.410899839262428 4.036076044806147 6.408769241532876 -1.8564483254359319 1.0791189933748835 0.20260961397754781
Ni 6.283311399741782 3.174279045751341 9.221463401119324 -0.3823464371219802 0.3031721434836585 -0.7192769080030064
Ni 7.809506663691068 4.966986885049254 8.365521192986716 -0.8725177417394393 -2.959438469001458 0.18262082956044678
Ni 8.532480329391118 1.7290006762190124 3.287312524524256 2.0898281307168007 -0.18728172537122584 -1.240103218502161
Ni 6.895521475088746 6.595982343966765 7.1515790011915845 -0.21321258630437476 -0.770910315908582 -0.976995032918924
Ni 5.411186729111901 6.3053871413783 12.070248511665202 0.5934725732109715 -0.7924073094400934 3.122716632369235
Ni 1.5494897991257188 8.020293799068062 0.052250503803692915 0.20061932302039642 1.06829130663176 1.0620651232163902
Ni 2.957938610485708 0.6909991211927292 1.3022103356686334 -0.8778013587358817 -1.0308593870375473 1.3025959377197436
Ni 3.6630610745635357 2.690143094568749 0.45657838777481413 0.7858052307425434 -0.546246293234156 0.06741895287460647
Ni 7.366681398808776 6.316988589660505 0.38267276356379254 -1.3089594180439261 0.033336409368600654 -0.6459706431096874
Ni 0.13584416207786373 5.528456660918674 1.0037681187325767 2.5523819307273077 -0.5872361053829563 -0.09453432103415976
Ni 6.3294972602017445 4.086834672006093 11.598580910034562 -0.925333342878574 -0.7531259953419674 -0.5950646002884397
Ni 3.975924459873767 7.494663884361123 6.4969411648637525 1.373201515852448 0.09343260332954877 0.8264841965191444
Ni 6.4542998859168685 8.748243441401002 11.243531689679203 0.7326019072466866 0.32443850906160254 0.021697025357459408
Ni 2.7619327832281426 2.384619962081618 11.502294387608982 1.931440462672106 1.6524580290607733 0.0027302544469694915
Ni 4.719810056837634 7.414672539925605 2.4598717575032687 1.6664381453899493 -0.394596715244243 0.7606212752777481
Ni 3.6887015582077765 4.628721276486043 12.688392187140701 0.7043827644999934 -0.2517822190474567 0.3740854826647686
Ni 1.1823580277750316 2.4581141289246533 1.6046397486138428 0.7676614699539811 -0.9908411947733968 0.007824124030109106
Ni 3.452218956019327 0.4502809823565431 12.46529340423832 2.7486617458320852 -0.5057671021731871 0.8172968735929215
Ni 2.789864232172977 3.36496983351153 9.059872454607273 0.7099049798698032 -0.9969383088100702 0.6609779151517972
Ni 2.722069986997818 5.585089323149343 8.365990382680279 -0.4698220515371456 0.8875964904494326 -2.135393735161742
Ni 8.427691576541978 5.7973518401799184 5.1647439261825925 0.48849700223882964 0.18460803519380464 0.18427199201062458
Ni 1.1311228797925617 6.373639579613577 3.210527615123449 -1.93158830110388 -1.8661118166676247 2.108290451187046
Ni 7.797859396102852 2.2580945304604483 10.922818540863018 -3.401256836236826 -1.6837954057214743 -0.46440268029378734
Ni 2.6497213028050797 0.9558915258807766 9.71611946496224 -1.563814876700068 -1.321069828154215 -0.4381874553510002
Ni 7.694518533323686 5.809576431023885 2.7656029096396932 -0.10266517767141028 -0.12243798942296333 0.3034966167026128
P 2.9480782958319547 2.057690049825743 5.783785660055925 0.21132308259114574 -0.3815223985587881 0.06093231670899829
Ni 6.5348044065797195 1.7730055377128098 7.067283391149312 -1.0825768700164968 0.4669881816327764 0.7916999989604236
P 4.619529923700061 6.2365940353320815 0.6579908931417802 -0.4332388530964732 -1.3626643637665499 0.2360776638280063
Ni 0.8905586938245754 2.5207949395488876 5.151613029465711 2.7071888233992794 -1.8492674914167764 -0.38646842971015377
P 0.8277789134993554 4.3000960499077285 9.234754665407248 -1.4135503519831398 0.09820097125246958 -1.7051959828844374
P 7.458283355387701 0.41276321820790596 9.196784206515213 -0.003886479538599759 1.614695465600019 -0.2904858062652417
P 4.623827774603975 3.054544035281129 10.533407590157122 -0.7669230491260599 3.5875754263638338 0.892049898235096
Ni 5.994072448611269 2.543649609387607 2.354678878375103 -0.37169255695255987 -0.6321216530417372 -0.4594427651853507
