# total energy = -340892.7588649424 ev
CRYSTAL
PRIMVEC
9.05803219015509 0.00000000000000 0.00000000000000

0.00000000000000 9.05803219015509 0.00000000000000

0.00000000000000 0.00000000000000 13.25734571022139

PRIMCOORD
 96 1
Ni 6.256853796619518 2.064434214443313 11.36141268334017 0.3962607332102272 -1.45008521368438 0.635012601436287
Ni 4.314721131736621 -0.09133213777349121 5.895595019352949 1.0360530154233447 1.5058154173671485 0.23031813563640977
Ni 2.5061038601673467 1.7628560933453647 4.698854157492668 1.1024576681008238 -1.0742858336522982 0.10285235398155189
Ni 3.227494595505898 4.269349448893477 4.8050722652370945 1.0518740416160013 -0.2905009757738932 -0.15604179352033773
Ni 5.440054809057601 4.742948657808184 2.7397231895505882 -0.7270447248738834 -0.6049039549763646 -0.11683915517894718
Ni 7.3727490044810144 6.23667250107659 2.5903526168301694 0.2689834134170916 -0.21798249688919236 -0.2920608640618454
Ni 5.22723634461367 4.358652587474142 11.685793494473922 -0.5889212063948632 -0.04163233082880572 -0.3793523874906628
Ni 5.413714051679311 8.292266076179734 12.351285302050123 1.363530568421587 -2.4481820615789256 -0.12963810671582834
Ni 1.8856467766397658 6.6556246022666645 0.42384706174276604 1.951911071821632 -0.10692421005808037 0.3229734944803019
Ni 2.7585059249356036 1.7965882049260926 0.34931395032201873 -0.2546474564103937 -0.7004404920227937 0.8861705566361835
Ni 0.5792656825035851 9.200333795290364 4.647150004400843 0.1868425809512782 0.6197651883589133 -0.05961308367694249
Ni 8.83411755704954 2.379708080092836 1.149831125164719 0.055249150281291945 -0.17433262140972558 -0.3617968951054027
Ni 6.681059556433873 0.7463818459323293 4.716698480751001 0.5057275071845032 -0.9975407182807594 0.02563389851802037
Ni 0.9643905627757673 7.560322733432067 2.741367222378704 0.8599992975574544 -0.5485294328413779 0.06645196097564685
Ni 7.6294264604055835 3.7342190278499072 3.724690883872526 0.04079749363233619 0.22129716308472208 -0.887941275383361
Ni 7.7580142842509145 3.8664934707643472 12.625036242700395 0.048018179750491496 -0.05178664565398823 -0.9154356241488879
Ni 7.80165588296089 8.755240213428438 7.202053106762071 0.37189850231577887 -0.8365724339930819 -1.2522799630740111
Ni 6.885888836556054 0.8903402444665273 0.1945103699415249 0.3938025014777218 -0.35561262067156174 0.696866144407974
Ni 1.7652927039831778 6.349345362503195 9.2941949356292 0.8267001691846922 0.7137168974167256 0.29270363985216685
Ni 9.15658350019506 4.749796530083971 1.557446193364879 0.08452450220664152 -0.11546258654639469 0.19182435043658577
Ni 6.458775448434124 2.013002708118025 6.932093858353395 -0.4028527846054481 -0.3390981679563063 -0.1546549404751401
Ni 3.503184860831097 4.510356509266311 0.8996899452113252 0.7211916085272161 0.6975485151869792 -1.1994270809390375
Ni 6.4451068779788825 5.726415436209358 4.7496959859275405 -0.6362529016012913 0.9182946908642379 -0.8148191014763903
Ni 5.2557872618270025 2.897392731290948 9.203169865144266 0.28466122916366454 -0.9116175359543784 0.8131535408485092
P 0.3077656628328561 5.4419298217045435 12.701796724217193 0.5764045619850912 -0.7970836318698401 -1.5510349513265804
P 4.197111642809614 6.0299953824038 12.508292701643184 -0.8464272152999744 1.232935239998812 1.093238206385085
P 2.5574629022357485 8.558979831683102 1.5547151966834638 0.004426668312785925 -0.4016538792013405 -1.1141533592711974
P 6.451945692222558 7.809608835154199 5.699094599756674 -0.45596303416686634 -0.44220660381272225 0.31502312928497356
P 4.5814982934647634 1.1352341064181175 12.603506206176164 0.7951103101935532 1.5624460213769993 -0.4319049647763981
P 4.144547882470472 6.148356687996005 8.355348929209182 -1.258838333017819 -0.05785522044557133 -1.8897484822499584
P 4.6356290933590785 0.9843001173553699 3.7084507381010208 -0.8943808603611176 -2.257613180815996 -0.037982649891360395
P 0.255277989963445 5.677791919838427 3.7119244934155233 -0.7944544217771092 -0.10982312887243022 0.23834126305120246
Ni 1.4605714457427714 1.0983316835985992 2.5526222898757216 0.04641766803259102 0.5748310468503842 -0.3838505324713325
Ni 2.102233382441804 6.378693386542282 5.051592043952579 -0.736099378876984 0.41082243307448607 -0.07286532070115839
Ni 5.96314710542588 5.602429092676328 9.360905530519036 0.7555238061501827 -0.2626356168221929 0.5469623454645741
Ni 8.66666171741664 2.483177980894838 10.109083584218942 -0.9365266404912322 0.07446248998494918 -0.12904701009904873
Ni 2.4208043717796683 5.142933239758181 7.117047098614783 0.5390911702466135 -0.13666827408973237 0.11230321498180659
Ni 0.4963303404968327 9.141094265285542 9.178537452622077 -0.27761820627395417 -1.423524432476716 -0.2243979134972329
Ni 1.3547736306882858 1.2481696507759366 11.043700395446415 0.37010078698540777 -1.3974842996592125 2.040303798734428
Ni 4.236867345744044 6.888470375707641 1.58804422583526 -0.35830507990206034 0.006553741958117746 -0.319572696328869
Ni 5.607456300497837 7.81770671586128 8.042502616165363 -0.1067545172494355 0.6986877709977452 0.41406176594739014
Ni 5.088340480226214 2.6606067138817613 4.78081123203145 0.2512116912559674 1.7924893060854679 1.3809721609368022
Ni 0.8978873968212701 7.159459522367318 7.184367299065677 -0.6042933179755593 0.890498494587576 -0.28870094645067695
Ni 5.182226983054959 4.230282156399471 7.337635543003385 -0.38749172876834553 0.8834894102595945 -1.3193124791434763
Ni 8.00200143718821 7.1301296143924535 9.053229542204075 0.8776962006165853 -0.06025123148157365 0.39513638979779686
Ni 4.402602159275886 0.5972404414243148 10.4750000015969 0.23611520193416108 -1.0264088074653612 -1.3214758053433824
Ni 8.52902491949259 7.256996412136727 5.138918719926662 -0.6347830019239842 -0.38615706911732206 -0.36539386842804167
Ni 7.010889679685498 5.9375491066806765 7.051966949504898 0.673462163661737 0.3694335857150541 0.18020502103010252
Ni 2.2159207434648214 5.475915558184375 2.7748284987993177 0.32184503730281344 -0.8049146978784847 -0.9401560097137034
Ni 2.488069318234686 5.168467832278608 11.461120783406546 -0.35454304175646684 0.05745284280083009 0.7791324467080581
Ni 1.017135483757126 3.43789456537624 3.7487136908336565 -0.39661246012269114 0.14140630299535 -0.4885085722030555
Ni 3.9108597120431883 2.694058026467054 2.6072422235040222 -1.0172739350436288 0.41998764451352183 -0.1473679198954236
Ni 1.1113752498381932 3.363473773553667 8.25147775758467 -0.9295278405758959 0.5867098005658411 -0.4621933313472943
Ni 3.484615895003897 2.5994287650052206 6.889299185645782 0.0011181727648432354 0.5613674651463106 -0.22582796107554012
Ni 4.559441985274894 6.5470731454504865 6.169266249320644 -0.5930930783843656 -0.4690602336704567 -0.4924919823308357
Ni 0.6953108492850518 7.323029466224673 11.631650013334651 0.7268770889477676 0.10724971171829915 -1.22756060595046
P 0.06163175628529322 5.385498281654077 8.177647549455724 -0.23018572382360358 0.45542233117204795 -0.1390884534954508
P 8.443037020664487 1.5074105297878695 8.00184201582306 -0.5367895186966304 2.398135795654812 -0.03420492801648303
P 1.8144597022807587 3.305792225071906 10.321307841756404 -0.6212399731322268 0.5172082541305931 -0.339729373782402
P 3.9995921946008717 6.156889354244406 3.7793642598902806 0.7851580840768477 0.12237602583677631 0.6017119304016282
P 6.852944773768969 3.8253700049811825 10.467708285747683 1.385252019259079 1.7207735256077206 -1.496202576867733
P 6.346492082388284 7.762760693076989 10.284213388656136 -1.084672576203261 0.25238385718719764 -0.08032563363394553
P 2.2166906761942418 8.38822686836186 5.901932018617685 -0.5630780200795141 0.7301760714140134 0.6899992420848118
P 6.9907899064315675 3.8537397615522995 1.3709159497129948 0.132336736593914 0.5174620220126119 1.8020589520517738
Ni 5.310008642042427 2.945934725372882 0.4467167812161877 -0.5162055238976916 -0.38303472143825645 -0.35319938324437883
Ni 1.3195107116808276 1.1886674378398994 7.147751110060861 0.26838151816703454 -0.6081887963752235 -1.9555882635629027
Ni 6.681693618681631 0.8179384880014581 9.170450441553527 -0.33378755437667035 -0.4544049456511271 0.3220535537691937
Ni 2.592245745541333 1.5991683950705695 9.114094083169581 1.364187485279296 0.06538366761213255 -0.5877891496729489
Ni 6.2306489097228885 1.8988715035215764 2.5768697360332 1.4293829481400222 0.25632073034775854 -0.951562451778432
Ni 4.0751271243730764 6.883588096399904 10.408421653975882 0.10587828529206927 1.0755724136742058 0.48941822850151845
Ni 8.649940590140048 7.03984820834382 0.5541269259864008 -1.7628807391904158 1.0488239419357677 0.7424985975351084
Ni 7.518900352589244 3.8410041684044733 8.239878041663543 0.5736097728487733 -0.574523028691662 0.3996623026926085
Ni 3.031125517375231 8.660620009998716 12.323988922284139 -1.1746159354326287 -0.787767753785553 0.44264446268108926
Ni 0.17242507604890103 4.948683741141449 10.439907373593124 -0.8274398755641944 -0.6867763642721398 0.14811096870903526
Ni 8.463408534881742 2.144344173725049 5.517534498324003 0.8149214313822094 0.8971378542809646 0.2848077820438579
Ni 3.462976256291126 2.6437225420271755 11.46271227964842 0.9215219395522839 0.6269043705068559 -0.10193344171170832
Ni 1.1563574373005714 3.239704822791296 12.439645499488053 -0.5332442245475332 0.9639443703825528 0.6448272735338637
Ni 3.0896222887469666 8.348842544743974 8.031339497391976 0.018787565020148292 -0.07910898761802504 0.5342798649008992
Ni 5.43621420344261 7.887969870944982 3.5522920761167462 0.7777759326801638 0.1477661837751068 0.1735533200415398
Ni 3.028516804127312 8.359105295125543 3.8765143716885575 0.16372013600120192 0.40566762834642395 -1.0804431115029458
Ni 3.4943713955872604 4.330463991545242 9.291981152581315 -0.6659288313991694 -0.029069663672446712 0.32391143291353897
Ni 7.269288161711124 6.19515953991266 11.617385424366518 0.4730449293498177 0.04166472672863792 -0.5352473710204911
Ni 0.7545395096513421 0.1323152040589381 0.11351707001933418 -0.2081089465292222 -0.0479310193533239 0.294943327815963
Ni 4.686499001693496 0.3315828524650705 1.3334238490030614 -0.11297041625216028 -0.5542455093895486 1.0698002870771188
Ni 6.063446694989092 5.6585979497955785 0.3584852078342333 0.21808276991248246 0.6165723924532285 0.74696074707152
Ni 8.015153699813135 8.83697083716445 11.163122396598798 -0.10366765079399565 0.49251460803865493 0.3028774950613752
Ni 0.0837415068646163 4.957424742128398 5.9211549743632865 -0.2700851311217026 -1.0127927593438237 -0.12825896698011457
Ni 8.102835450645962 -0.5028367249620413 2.5072025994623908 -1.920937506258253 1.9834901321794935 0.014976675914490336
P 8.392076532008963 1.6249113223295462 3.0989837649335086 -0.11992267920027733 -0.6344333318940493 2.3338564168504514
P 1.9832651886981725 3.2965983224794146 1.6986500443341737 -1.351799396027588 0.047990154726033483 0.28235160719388147
P 4.618183323513621 1.1851710374451192 7.991235966024491 0.30710387443789694 -1.7827499673105167 0.6064175634074137
P 8.526153523313456 1.6475382865423975 12.224161256193902 0.12609178412546673 -0.06741998131587099 0.33392845082990874
P 6.613867074235741 7.847507641505908 1.022509614208481 -0.7502378751608951 -0.456280308296969 0.5589781389785277
P 1.5899292023175235 3.2850402735059965 5.926722946701814 -0.23495229197431147 -0.29165745797583964 0.617781325159665
P 6.773958733762537 3.9141115455709765 5.725290428621192 0.38277066914359237 -0.7570656967160059 1.5670207852318754
P 2.286663974250398 8.376695993484773 10.252382558015473 0.1415651971707175 0.07532843752967028 -0.15204912742117685
