# total energy = -381168.78057879274 ev
CRYSTAL
PRIMVEC
9.19279495884619 0.00000000000000 0.00000000000000
0.00000000000000 9.19279495884619 0.00000000000000
0.00000000000000 0.00000000000000 13.45458464422129
PRIMCOORD
 96 1
Ni 7.016207753826306 8.611065762643221 4.002416093137146 -0.5371271045417072 1.6816248804327167 -0.6089943229956544
Ni 3.667042706490881 1.3601475662489666 5.588146575774141 -1.2961337270341677 -1.3675216918588513 -0.44375826457055834
Ni 2.3103148599910632 2.4315586335704413 8.977074138708947 -0.8233788181209432 1.9908900241879903 -0.8637006576684416
Ni 2.36186805448899 0.4228759253673709 7.644720068937341 2.1921917179873924 1.602978434273407 -0.8740269792951142
Ni 8.56079955944874 3.9695408195701907 8.275229059127717 -1.1130177030048574 0.4058473484573978 0.8999647822067984
Ni 5.526938188661884 1.594830430431842 0.10311098539336525 -0.9272369876591902 -1.882627554934461 1.9870919905981392
Ni 0.5648797879507909 1.523696582531529 2.46860651679906 -0.4357503066644173 0.7474261167437127 -0.8590037664134045
Ni 5.0499884044008425 5.829004240375037 13.34300552190115 -0.13215547382104337 1.2514487254219675 -3.1857446552649975
Ni 3.7326976485565355 0.7418668320003057 9.970789541041555 0.5191576645474801 1.8023795686159862 -0.6387268170630805
Ni 7.275012512153717 5.776210018548791 12.59904824831225 -0.07724493782609278 -0.0962001387723569 -1.4180510680669707
Ni 1.0515546300683507 8.940737777815233 5.629546328167403 0.8349989188583747 2.498861333101348 -0.08849865636304112
Ni 7.85088596367442 6.690837966725804 3.182789246582799 0.7920944061853649 -1.084636323648687 0.4624463278983648
Ni 8.894599139586793 4.098249142709539 13.057835827443201 -0.1851363968934489 -1.88130600790956 -2.1604100547004212
Ni 6.9748585618056795 3.5316144501885534 6.262180692567466 0.7216844890032346 0.5291811102217531 -0.6641496280115594
Ni 5.572690729499291 7.576048970824116 11.176212254952066 0.71396963685748 -1.4063954861059134 -0.07155817185396064
Ni 0.5438292066239718 8.38479430590785 7.943950143385406 -3.651915226092485 -0.43374150376450465 0.9241254386134019
Ni 2.508189772895462 7.415551962489719 8.24674518374401 2.0547490276254807 -0.9241478072109052 0.8066915872732493
Ni 6.095439018572861 1.3892703408868823 5.704931843766591 0.7644612178491286 -0.20802898522090627 -0.2906966367244671
Ni 8.467281255663536 4.00199138600701 1.80672159791024 0.022168051456606986 -0.42698772998043877 1.8294358014028298
Ni 6.959230810263868 0.4817999029160173 1.7160788004087322 0.16056050732629767 -1.9982819457766878 -0.6228037180749209
Ni 0.2993587735784106 1.443176890911105 7.694152485623092 0.03609648861224106 0.9038301786994757 0.4650318292373539
Ni 0.04309122667778715 5.970030908847343 0.6922110303954555 0.5941189485457187 1.1782807858787254 0.9876345149106409
Ni 6.152958337041751 8.130733029813129 6.204043618272925 0.27273902380478193 -0.3330195658623942 1.7336133576848658
Ni 4.886954184639658 1.958901884585886 7.848409424694794 -0.677753077727607 0.7700050304854933 0.03152763829463603
P 5.757658958189158 5.19243995610196 10.564728673344591 -0.6195957526605844 0.07561845796626332 -0.2886785778531738
Ni 8.817793337156305 2.163680586553755 5.599703757679062 -1.1240189392113673 -4.655082546531402 2.7311003399095544
P 8.570121053603676 5.183761957598743 5.862000858836316 -0.49285476498689307 0.05726540938037235 0.43971109108437817
Ni 6.570495087058837 7.877949552226827 0.08688846001346316 -0.07558477651485046 0.1709369654646153 0.03979142096532502
P 8.499023976883462 7.9813225322783925 1.2837251033710044 -0.33352093097884494 0.5279945461128197 1.2836890735129118
P 0.04670215656344791 1.8113667172361674 12.051472977715758 0.1413152859434405 0.15719261929532927 0.4906122488096196
P 1.3691932765531676 4.4135528192581095 9.959486999558816 0.4536133029877671 -0.893181697846694 -1.3351070229735718
Ni 4.643777177854056 8.81526531852454 8.121389472950131 0.4941053495645426 -0.8302971425073314 0.08710974643531451
Ni 6.12994877109519 4.335708230989843 8.108943347766333 -1.0084463094496696 0.6716960729002497 1.8165144653554717
Ni 2.6263171889615022 4.944206912052832 8.098596856966152 -0.2940007613970356 -0.08715191252715958 0.7628869313834733
Ni 8.99429500162852 7.857192221061292 12.600810507118466 -1.3292063412184205 0.30791017238927615 -0.6323731069309109
Ni 2.0173956393273818 9.09203279833001 12.051312103802827 -2.556610624096675 0.2649678644997953 -1.9411546046360764
Ni 3.793342517333786 5.809910805108954 3.9918407017408524 1.617674345722685 -0.5239959664763879 0.20294205761630207
Ni 6.920189009794415 5.855709309921484 1.3599490018764353 -1.184843783808224 -0.34116070691228984 0.3734828160837632
Ni 0.519254107684723 8.111979727962956 3.357914749639834 -0.09319066252207175 0.6637498214699794 -1.2617267103092078
Ni 8.094973057167456 0.029721225594016774 10.276167756802069 1.5761661991765694 0.7992700979981977 -0.8551442834579983
Ni 7.203317903756904 1.2988316234349206 8.007281146868843 -0.19277283039278412 0.12307433745538159 -0.17944577426657482
Ni 6.431619532622285 5.826715234413913 5.213490537428779 0.7629321827991118 0.40240129889032633 -0.25630376106689406
Ni 4.7661792436065324 8.210259899570897 4.4004291850809985 -2.031557677110682 0.7273095484994958 -0.4820011101018409
Ni 0.4719415495316421 5.634723710325255 11.384529263724902 0.08227838648494216 0.6389445895008414 1.0534305874698437
Ni 2.3693877608191083 3.1270855051312685 11.490013828793616 -1.6448709607421348 0.17563539938154912 -0.35446230911720245
Ni 2.254974233943004 4.8806846984328836 0.05706703295367831 -2.3407431166679555 -0.007726936330612499 0.5886399277090185
Ni 7.556312039906311 6.519088977281304 7.662022747732632 0.3219234559492327 -1.4327300102353842 -1.1001092224733056
Ni 4.589245517768161 3.487571769225721 5.638479886372304 1.6060904975398276 0.9549280258165553 1.624366927251512
Ni 2.5160404198464663 4.698042246884238 5.552209182184494 0.4558265085890021 0.8770706512174444 0.4403397258073126
Ni 4.257578666075813 8.409890636324993 12.89063543297687 0.704314116045587 -1.2147865941142433 0.0805673173311064
Ni 1.9506927186289231 7.030465778909452 12.90230108986308 0.35737896854336515 -1.6114815866484116 -1.447143614557553
Ni 0.8243032213833577 5.639117866347011 4.23927029550483 -1.3547093705855313 -0.43026048719443966 -0.9602946894451073
Ni 5.227299034835222 1.3624641505951645 3.4670847062339094 -0.5683415824712986 0.29518089774806583 0.12794452106348933
Ni 3.4008469409636954 3.411951837353406 3.756815865583062 -1.0873688920885014 -0.7655955885638879 -2.2892238657427413
Ni 3.940969612633751 3.774285853247801 13.04261899383899 2.637412683146406 -2.292033053056762 -0.25848611343019356
Ni 4.5299519898595255 5.95216011531953 6.525191154618629 -0.7365027849629896 0.790147309761323 0.3736432529210275
P 5.594882136688662 6.772754963189967 3.057285531789024 0.43114828911603165 -0.5530026381213831 -0.39133578510478406
Ni 1.2957704226917306 -0.0213806026682021 0.729512634766753 -1.301812779696816 0.42676352978477466 1.2394540149539364
P 1.2913486882849006 1.7745495731626661 4.396730004363101 1.8985331704211241 -0.8349197288810073 -0.07213975538904349
Ni 6.340022522997225 3.6673460687266926 0.37023614249753733 0.6250570328854719 2.397436712705258 1.3454408007994119
P 2.943192833459278 7.868398238196273 0.9634113535340304 1.3781989690670393 0.894691192512685 2.9573736160526294
P 3.6135866034228634 8.247904395196612 6.341441890549023 -0.2674039847451137 -0.5051955459404331 -0.6076648055509535
P 3.047622984938673 3.049342037608272 7.015206658448127 0.09399516070123813 -0.5778716334489209 0.10886847826864475
Ni 4.3668350349431195 5.311983062601787 1.7979360437052347 -0.024395141014912823 -1.3400990768715242 1.4790420059280462
Ni 1.3662883533253958 2.5189177646891636 0.28676556367421846 -0.88580751686981 0.2099773671965287 -0.45852848090119736
Ni 2.110426724976279 6.166811879143814 2.0955785224525534 0.08856704770713135 1.1982937386655428 1.1393553124581215
Ni 1.1050475043164667 6.591564973255208 6.663733010595787 -0.5063435435019473 -2.2792670116403455 -0.9965665272929483
Ni 6.404142268293773 2.4156183269977944 9.80006370968329 0.3373246209956513 -0.997151710372457 -2.53611996034249
Ni 3.2688292116154924 1.9114394838739042 1.182119897802668 1.6961091900918208 -0.18862384122141707 1.2128214999680726
Ni 3.4145166271652676 7.824419906798613 10.525817410564487 -1.4749102431478598 -0.8267616185502472 -0.1855868541673062
Ni 8.48309286310584 7.585839297525309 5.419762149308642 -0.4803288646057404 -2.1648074124371686 0.3917803288413705
Ni 7.660788155360828 4.141850569511192 10.86172489860168 0.5192607657842477 0.631657568921125 -0.6158352571768878
Ni 2.2714753010121513 7.242764187207439 4.713786746922861 1.7830934666928648 1.475050111159834 0.3555306024807167
Ni 7.660916854491173 6.929960950905559 10.520677718866237 1.0141153348099892 -1.4985425378548192 -0.06175147017618397
Ni 8.768428027874231 3.5452381724150026 4.186218675417895 0.17067676982469315 4.063222569223189 -3.1033274292093456
Ni 7.258640144214914 0.5737416423545001 12.218659582989552 0.6214418047303878 0.4572133616341997 1.7737570197832873
Ni 2.57184987844078 0.3221054255872674 2.8899104742172255 0.6748587868989474 -0.5689293366539686 0.9168628435137176
Ni 0.36107644153503127 6.194004166826565 8.979146194707491 0.6990145582095446 -0.2416150487064678 0.5710798073380681
Ni 4.778203419498704 8.886298045679583 1.835017020995942 -0.6217729628175613 -1.0676595865850322 -0.07832660092604575
Ni 6.137781032456144 3.8043554857732507 3.9809288540466583 0.36701880562597433 -0.5222650998282101 -1.7181869958274667
Ni 7.596135227952855 1.7309757247460877 3.3239014080488336 0.014267051441975428 1.090126914449613 1.4766827616672504
Ni 0.913648915506895 3.6037686983365966 6.748725916275179 0.5425045668035366 0.4080469272118779 0.1710398095910667
Ni 1.3270902753405243 0.619071314620776 9.78695938037573 0.008940497022739441 -2.317002835628222 0.8175367575178694
Ni 9.017387302730302 2.2555717656196026 9.932348949366709 -0.5275605438991946 1.706212854184726 0.5471037561384449
Ni 3.378673919364373 5.587463551103815 11.30085552413154 0.4199837878587799 -0.840505707609217 -0.2431772509872651
Ni 4.149903457952736 3.328619150455456 9.964330683257273 1.7045557781972773 1.206476017366019 0.35241982476587697
Ni 3.5751515274250334 1.2329468614936512 12.270958313163971 1.8524561735574032 3.3363853323744213 0.17102104053798933
Ni 6.791563421810287 8.207998471994847 8.862763571137119 -1.6028280247384719 0.5050775323053301 -1.203174978017244
P 5.18869848852695 3.0099417181328594 2.0906943904559867 -0.6814739782226199 0.1483901905123509 -0.42768244205461825
Ni 4.6150221150171244 6.33222703281637 8.919676165134383 0.8330921887539653 -0.3043232263689662 0.7800212770709147
P 1.4831839348581408 4.139589141935141 2.17093737894617 -0.3207194083388025 -0.8970802615701517 -0.20390982084621012
Ni 5.985870094674719 2.797422682754282 11.793414674344342 -0.9954627527058083 0.8588073341318823 0.7392134990259335
P 8.004258555864757 0.23581909364791523 6.357358295854606 -0.08176545140426562 -0.23193278842169732 -0.21945188234586724
P 5.582903924771615 0.48979211891039987 11.038531763868713 -1.0587185753416606 1.0699440117438346 -0.6650379441537837
P 0.6933647261710422 7.82743514356668 10.555121283264388 0.1908696998328003 -0.45058120102966276 -0.4547577010048555
Ni 8.067872697434952 2.0047463533735392 0.5348322181334011 0.9017900083409954 0.20869644360157605 -0.516400413517317
