# total energy = -381168.6951607622 ev
CRYSTAL
PRIMVEC
9.24635217714294 0.00000000000000 0.00000000000000

0.00000000000000 9.24635217714294 0.00000000000000

0.00000000000000 0.00000000000000 13.53297104684833

PRIMCOORD
 96 1
Ni 7.385921246344371 3.9794449701007526 11.38852278037263 -0.5349408955236657 -0.5045761671888793 -1.1330561097129712
Ni 3.8074535767069055 0.3330961319529057 5.195294025222735 -2.52724194112657 0.9949562453830347 0.5390070951732394
Ni 2.422322309324585 4.576176788576036 7.6254905279032785 1.2955806827441754 1.2984631464982928 -2.3989770606091847
Ni 0.20211138500615108 1.7938015327025332 2.4555712664508116 0.013600621502570123 0.3758052935693527 -0.5235352247898855
Ni 4.240839340900391 0.7004934558886703 7.443986487580579 0.4523388071507177 -0.044563645542987765 0.34737197792932434
Ni 1.2534077369114451 0.9065234448688181 4.697280883784677 2.0847445455463065 0.05955909051055549 -0.1225428904319438
Ni 3.098313857070986 8.782739902643945 11.458325340826846 0.9577534110804924 0.4131179139768821 -0.627436588861242
Ni 3.06518417788545 2.5276290121557516 8.501601796436862 1.2536508752796087 0.23685670808587594 0.1921385392428949
Ni 3.1901856104585065 1.541810701878248 12.932282613250688 0.5733752882404641 -0.8102893319268367 -0.3839742025333903
Ni 5.106094467560758 5.134129406798977 6.647476138706599 1.553477756440118 -1.238181833109732 0.5329804293631853
Ni 3.764217634794662 5.9278362617491345 0.7782552761371655 0.653409615886236 0.0025556765423181793 0.7185906805692592
Ni 8.620355468969263 6.859618890988326 0.585556677458359 0.6320666314340857 1.1812174999095462 0.7458945105905348
Ni 2.085080113138692 0.5409328581121922 9.360065477559473 1.2063346066921483 0.7585260833116162 -1.8342874730681764
Ni 2.031127649268303 0.6212069121967772 1.1635036072277152 0.01868729199685814 0.2485439146158171 0.7987597340206823
Ni 4.944495973805353 7.683441114374791 5.591228365309858 0.6743970167711805 0.7528943389471355 -0.48217080291048564
Ni 4.414430353188767 9.106519410330218 0.8119230930086067 0.02896579110473076 -0.8427574797578712 1.759264739704383
Ni 5.184475793392682 2.569339305989397 11.303061522820816 0.23753933597519736 -1.3733087308542735 -0.45907252633012546
Ni 1.3163938866775269 6.178144256510967 1.922696604099209 0.08088664834373811 -0.8736441420343986 -0.7917663334219848
Ni 0.8354337922173877 6.426695444394415 11.974269932682015 -1.8360494500646056 1.7944222614421224 0.5206630454484129
Ni 8.613143314415895 4.873382280638744 13.067517908207932 0.6827117072844628 -0.916185357830719 0.11261406135400606
Ni 5.129913070290854 0.34732349376222316 3.491221866151292 1.3025548000691631 -0.8890746176568559 -2.531334108918073
Ni 5.493017312996967 6.372003272364707 8.912733440657211 -0.06498026152612679 0.6361567423430593 -2.9533580671353326
Ni 8.1046216939395 4.6074571973632725 6.6424960535239785 -1.876415512586478 0.19566892099365657 -0.5552454114089728
Ni 9.003320875753113 0.3058351123763733 0.5171845276572297 0.2140206840279669 -0.21220239987230552 0.2283687252195228
P 0.13797683832272517 5.495883682114331 10.250616773998177 -2.0124533521810632 0.07821218683536853 -0.25504803428292205
Ni 7.4898040109688475 8.539653308787472 12.575945775567153 -0.0015557745228940948 0.6380961254576172 0.039481345924073936
P 6.6411460861332205 3.1286973697150464 5.58086228009219 0.8757539892885499 0.05214402899340696 -0.7089073918432243
Ni 1.7393497658246035 3.1665796738242125 3.851930379056407 0.4711376850247757 -0.7512125803693385 -0.24352820656878058
P 6.631502141006088 6.730336397443206 6.538265626064622 0.31650768425030007 -0.19229846185952687 0.5513180513301086
P 4.684599512028337 4.142624590046703 9.2153979789357 0.4230362015318586 -0.2642685244399255 -0.10199643373915983
P 5.129062405907637 0.31950399452540423 9.369417237963672 0.4313210672484701 0.038258786370882494 0.8169670010573284
Ni 4.8401046598213435 4.412553343734494 2.832397095512306 -0.026757984820134563 0.17932981751400082 -1.0798671843948178
Ni 5.713376373658338 7.777818629152007 10.639120745624933 -1.115208282898273 1.2191073329767843 0.8961477224535533
Ni 1.6494382390592803 4.282984213277637 9.54286863033698 0.7148857209138463 -0.9262550833618952 2.518465737595837
Ni 8.79480639199285 6.984259715833715 5.85411972049692 -0.42618528868380146 -0.8718700808531114 0.7573582882557602
Ni 7.642526006812414 0.5794772010239493 3.490586641769476 -0.29867528405456945 0.8298911653181643 0.2916628572924784
Ni 1.0020456580225818 3.880342569455881 5.879507429159975 -0.7169518594142555 0.48322084144155486 1.1400531098560946
Ni 0.8120969244260468 2.66665716069991 13.494631871845586 0.22112772738639339 -0.35276075304506344 0.4125448150822315
Ni 2.969484434773449 6.544346027134231 11.963646798878983 0.5172596761938189 -0.8551463403405274 -0.8644017975005241
Ni 3.524885059846737 7.860536494067945 9.135851612752846 0.1432415564318759 3.0251602366793 -0.378155024748452
Ni 3.6485827567889926 6.729587442931894 7.088597400976172 -2.2822515481899663 -0.031860339043706415 0.6840157708078671
Ni 3.4663741444445404 5.880208302640931 9.847117068711611 -1.0274429051568303 -1.9061582910665495 -0.4796583209012772
Ni 0.2218070393832402 8.36990877892756 2.813558577964829 0.006697980845465884 -0.3941226038213019 -0.25690771319948014
Ni 7.865020974783822 1.7822158536571866 7.031176630473773 0.9215579349965418 0.41756926488001633 0.6864459775159145
Ni 2.0141236079559386 4.764793122850596 13.079358786568246 -1.611164055407993 -0.8123999505119364 0.948802886755424
Ni 6.210192112513498 0.6885776820772272 5.772597408893483 -0.5675180581287387 0.27016586376096696 -1.2526584294593521
Ni 7.1532460448303254 4.966141683817448 9.186478163811893 -0.3773962922055565 0.30911833376476444 0.660663726345488
Ni 5.568680211343392 5.368478198023485 11.078739475695887 -0.742715855752237 1.2258338530673405 -1.5185624326201719
Ni 2.657743677380106 2.0986075261022528 10.734785352599367 0.08906018529346597 1.2308184507661253 0.9887490881310583
Ni 1.1015179127471135 0.5809954520209532 11.861770492636662 -1.197176337231648 0.4507979450261591 0.16689673395697063
Ni 5.001906573320562 2.605899381763779 4.222259721208676 -0.541247554467984 -0.2506956708514973 1.4524076911699697
Ni 9.162126971207085 4.271074911912589 1.8643151376248932 1.1841755540966057 -1.3564775182295477 0.3950296890166035
Ni 5.811997963999652 5.863703564336107 4.4139809804819805 -0.38523327175147204 -1.3388875730619265 0.7658251880761908
Ni 7.073209621991921 5.13556259135766 1.8843445853088754 -1.4609658651526258 1.0369714134725563 0.037943569123308846
Ni 8.818671226482905 3.7813696177388905 8.615318981039495 1.6888391387929689 -2.7927217122657777 0.07637436229568138
Ni 4.630397396654178 2.2350097106808255 1.7539136948464114 -1.0410566392855232 -0.12406498350342504 0.024637596043022084
P 3.6262158313215602 3.3955285954856858 0.10012227326953387 0.5432959523565803 1.287454711202931 0.5071716958301976
Ni 8.838929983696277 2.3512918333259 4.761359027720954 -2.178505478749551 1.0560510558118263 0.3390254057368419
P 8.435317472915413 0.04005519682716776 10.808120944149533 0.4607244601112517 0.342668658916384 1.083445131554063
Ni 0.21141136583919942 6.0532075484018515 8.065163811450983 -0.13516932094670267 0.6912099745634612 1.2352947413699242
P 8.861657516891377 9.077162242757213 5.40766701166905 -1.0071535587801752 0.778292467305266 0.24726530501370964
P 8.605062002775327 6.312993053954969 3.0206944306431596 0.3599667838751994 0.8476055518787919 -0.7450031091245168
P 3.6722164324792606 6.1240161119527405 3.2270313985094248 -0.2191484921728355 -0.8133702848450057 0.6677833681094048
Ni 7.979758956646316 4.772865188139174 4.264104087146198 0.17549784536242033 -1.0419732375625217 0.47766083085527405
Ni 5.659830749275575 2.8422176459624753 7.459874494207569 -1.12657101620926 0.004302741140411945 0.1765864504409088
Ni 2.2870111942810083 8.728713467957624 7.055414092949085 -0.35464845698607955 0.04619835293293334 0.23142550976797563
Ni 1.7956692958048155 7.8461214313132 4.87975948960728 0.3196817111029075 -0.1967989208330417 -0.1533033115432521
Ni 7.909625376790806 1.9395147937365442 12.547959841994485 -0.26050288674990624 -0.9685803264926673 -0.506669045162166
Ni 3.559170533031211 4.19557844790201 11.478462970829128 -0.8863803586541444 -0.39742749982481873 -0.12338621226884557
Ni 1.1785677638922631 5.599091463043428 4.2575946553441835 -0.028115270178977386 -0.188851640961507 -0.580761039181574
Ni 7.784975305593426 7.93187209968235 9.382760648522604 0.10397978271777575 -2.4130132269872764 1.1754656850274339
Ni -0.046615483565135334 8.747048983956764 7.75809985889494 -0.051513337387943545 0.7470905877811649 -1.928147136632815
Ni 7.209593313866512 7.71219726906835 4.386645065454317 -0.22467610685928402 0.4707167954372732 -0.9651903269745119
Ni 6.707137300296538 9.032973926589845 7.898992072000584 -1.2086599123912152 0.5841903765780971 -1.04199792015287
Ni 0.9471408198970689 8.078408286043604 9.766514769131328 -0.6808553708020145 -2.623367260796934 1.449792879254942
Ni 2.5053268111522593 4.0343128228183 1.8834375181785092 0.10038126673324002 -0.010208307991569516 -0.27514351948121646
Ni 5.657519161277701 7.109177931238847 2.5464721528792245 -2.1618704412960317 -0.30024519964485064 -0.16175838428914077
Ni 2.9891329327553815 2.671724161591251 6.105629741017647 0.9727529698131182 -1.6111144331169802 -0.04981718063244324
Ni 2.748672302864494 7.827388322178426 2.499458151543256 1.074403333066769 2.3996468329826994 0.3387289575423457
Ni 1.0630715811664664 1.8790621444161328 7.322568941039426 0.09565326512995138 -0.15225455856376358 -0.460643213251355
Ni 6.802800058000574 1.313777169063933 1.2498478913947184 0.03740955099670976 0.8299811539288093 -0.5931640408316171
Ni 5.570816118653428 4.246331673983341 12.908329013781515 -0.38865232473535 -1.7636147891429625 2.891030155630389
Ni 6.37980719344553 6.322988360457778 -0.12146377830110955 -0.686698716956669 1.011361683324252 0.8148106168359579
Ni 5.378325562894431 0.22642374293259498 12.433362404682264 0.05693193730035357 0.9647576103124674 -1.1535254333109166
Ni 6.958277466737606 2.9876442700847505 2.923108431724893 0.40532515740534064 -0.5191329819571318 -0.05107445007831204
Ni 6.985212090088838 8.374578186683264 1.4653230289341812 0.7054891101902947 0.10986246675079789 -0.21808148436090183
Ni 3.3187191494923147 4.678450687953991 5.129835400934127 0.19930034709865677 1.3495813053303467 -1.2670069848715406
Ni 7.578948090518876 6.549681172233326 11.49822057576456 1.7932917473821053 -1.0690382121001136 -1.346996575322306
P 1.3997127644729122 7.90736002055289 0.5793819635984367 -0.5310559586469628 -0.2435899130446515 -0.5666225428976628
Ni 6.658177866501559 2.2608532644970616 9.477693869054509 0.6437142429753431 -0.5527373002751383 0.12952343551483503
P 2.935762989060457 1.070755299671401 3.158081351708827 0.5922903799774122 0.16982316357514624 -0.022217930857935927
Ni 0.2167233950583148 3.0960762398890433 11.06499015028453 0.9529153662619009 -0.05696870407555995 0.18098843616334637
P 1.4698925760883792 6.234232627691392 6.378291716354124 2.267963413702068 -0.46082421891390957 -0.06231531309945397
P 4.569084836598557 7.341418554209294 12.83669937417378 1.9537733218413513 2.1847103220086828 0.5523063833853068
P 7.339217922435316 3.4123107243502537 0.4934815043270255 -0.02364155067833993 -0.5871409745659888 0.7784888995867882
Ni 9.165770033891734 1.381090611562036 9.340023084982704 -0.9100370788411359 0.5872908698802918 0.12503454650554593
