# total energy = -340888.36928790156 ev
CRYSTAL
PRIMVEC
9.09142451139736 0.00000000000000 0.00000000000000
0.00000000000000 9.09142451139736 0.00000000000000
0.00000000000000 0.00000000000000 13.30621874770825
PRIMCOORD
 96 1
Ni 6.491495109417989 2.024687454977304 11.51605255023516 0.9348034871525384 0.23412851052143552 -0.5616166050426392
Ni 4.997228619518573 0.6856515793096873 5.78175125584307 -1.2680364545773195 -1.2326079385663804 -0.5157848914205052
Ni 2.954612875918236 1.803693114283248 4.513030273617776 -0.2933651846955657 0.34650628749491935 0.4543632937799143
Ni 3.6127865345716086 4.370156723227977 4.910233690002885 1.1159654727792718 0.42640768910725274 -0.7419172711103417
Ni 3.6424518519027216 2.710171752080772 2.2295236073500027 0.12377264907398683 0.2886420681882835 1.2706900901500824
Ni 5.114526175205372 4.435996817653942 2.858841085430603 0.876026012003014 -0.33172655808258356 -0.02319289317669554
Ni 5.679621832376691 3.0773834690041557 0.38627279700809464 -0.25154413489472166 -1.0956221332362293 -0.6908518198930941
Ni 5.651256588713475 8.59994185602004 12.460528795689868 -0.13733521824976994 -1.8410083367317776 -0.8777427375838044
Ni 2.1452397405459718 6.519687616020436 0.014798111253402772 -0.118144504253932 0.30133766137808105 -0.48926627630468644
Ni 1.0421954190169114 0.1141073749171122 13.087091572222405 -1.1538555629568257 -0.08544984223438831 1.321513086339221
Ni 8.267768488160128 9.059804277485677 6.854937521846895 -0.29914939547751057 -0.4794336064849808 0.708397027865709
Ni 8.605296704903896 2.7818030837546437 1.22039188004924 0.869595940106954 -0.42070755339868193 -0.10534529560673471
Ni 7.3445161726194526 0.5438171787117816 4.853749580273655 -0.7356710330903137 1.3211297348578732 -1.4358094204916563
Ni 1.0648603396747311 7.791823337194417 2.3149629941763394 -0.2491848906339257 -1.3136869054265827 0.8706534348371909
Ni 8.226011576575145 3.916149178980003 3.5982411649123844 -1.0421167051189213 0.6270069575229911 -0.4571290294505094
Ni 7.713664362908305 4.026073589599216 12.617235857220034 0.2756790802697123 0.2101951396342896 -1.1893308730453
Ni 8.235521206341723 7.325160530389009 9.140560671680309 0.459315495578867 0.2668583966542888 0.2662485309844318
Ni 7.320551178293735 0.7419856805387745 0.27114172772031636 0.8248841990218762 1.469274127908005 0.14159605040865292
Ni 2.15184011455222 6.555753296024274 9.186719650887643 0.6791036782182305 -0.1473020996544947 -0.7564710005548004
Ni 0.04860275404601046 5.171883970805125 1.0110081972661755 0.6226085713449793 0.24311194496696842 0.4847953850175264
Ni 6.525978881602149 2.0717628497491414 6.742486604428321 1.4268735514546071 0.6428290121569123 2.2238486827710413
Ni 4.092095512510201 4.699475383873064 0.6208897277998948 -1.0487707201003291 0.5912855928619817 -0.581026891248451
Ni 6.011767925963849 5.838048991375152 4.783651971870934 0.7503000958573982 -0.8287174567250373 -0.3335373860390772
Ni 5.338929799993564 2.947721576335955 9.327033965350775 1.1801579482967803 -0.5359161149527415 0.07980035725809483
P 0.30557913364079575 5.8500951285077685 12.125983475242862 0.7540747324084819 0.11168974976752379 2.126187128961809
P 4.40343133598675 6.45948420463011 12.544689928266509 -0.5580818524165033 0.7467643147899978 -0.007250768025142351
P 2.633585594190089 8.750714035799135 1.4145174255117994 1.023657212862153 0.9275498909139188 -1.0690279276874686
P 6.512114459619327 7.890228913287574 5.824358215595526 0.8334282319371452 0.22947815623361772 -0.0437635182391956
P 4.618679896554154 1.3546403962520857 12.504173086949367 -0.7840882480514367 0.7776738598846608 -0.4556182492329379
P 4.388712320124331 6.221743460465655 8.126533212420366 -0.8625290059578435 0.9687371637855058 -1.359587267503123
P 4.995146683365087 1.3977064729292183 3.6992487066261863 -0.24639472948329824 0.07985152221100442 -0.36007888397303145
P 0.25267704506647287 5.865114161370472 3.3836253674728516 1.7718099233592455 0.1295720293645833 -0.4506066549509594
Ni 1.0755427631696923 9.084214751599694 4.542370117960702 -0.8022878017785989 0.5019726681277613 -0.45586996023242776
Ni 2.286047719345936 6.52959726845406 4.779513555551865 -0.2308642379478669 0.3095083701143315 -3.243224751759337
Ni 6.118173955397913 5.6338374198485 9.287620822937706 0.08298698251619256 1.6995794080286084 0.6931514145605481
Ni 8.964453419940867 2.7508467841798843 9.856940355816056 -0.22544383826324396 -1.2255104082896506 1.419045056549124
Ni 2.5960016463363282 5.629364439116993 6.747476887199711 -0.19316878027962214 -0.9612760795217703 2.4037508278487443
Ni 0.5840994612832486 0.23671068579681265 9.24738308834507 -0.266594858580257 0.8706693756767909 -0.4569174276603357
Ni 1.5998542911508873 1.4143983278541108 11.211314373337585 0.3343372562325532 0.8849009458951405 -0.33922955132784804
Ni 4.449497582666723 7.290976775205132 1.2783460730798606 -0.6320465768294276 0.4768023395097208 0.7806679095159781
Ni 6.13295661123009 8.037019049244716 8.110086825950251 -1.5045944004758538 -0.2927440061717991 -0.3500775497859455
Ni 5.945736911628612 3.2349469426987696 4.908557231370994 -1.5887514920407477 -0.5204216188615682 -1.7917961366731854
Ni 1.0126755644738146 7.750420991155223 7.45504879952106 0.894851115129317 0.982862033222662 -1.2156103755671193
Ni 5.691849797994327 4.628098612078222 7.300855516796302 -0.1934279474782798 -0.6201410836410932 -1.8701039685461534
Ni 0.9859831428727883 7.616477037664787 11.053449064357835 0.034859016660714164 -0.4005413628634521 0.48601614479850497
Ni 4.6361990710858905 0.762338652009557 10.335684756308659 -0.2669542988022048 -0.9646061723362679 -0.7003515318534133
Ni 8.173954081313742 7.451167670508295 4.378730845439124 1.4216339003222227 -0.483926866369644 1.2586406151847165
Ni 7.915639444069205 6.517269297169661 6.9270443350090956 -1.2878789432245432 -0.8603672224198344 -0.706511637917538
Ni 2.331523023449592 5.589253075321444 2.173104955875381 -0.18047215864856017 0.3023612175465889 0.7837925711878888
Ni 3.0610825453220576 5.45981846825952 11.150597296477075 -1.4277605820452508 -0.5161705568946983 1.043901564933486
Ni 1.5777075816753765 3.8329899213558245 3.68419876292103 -0.2948623380663825 -0.5823844337176098 0.08201613396249102
Ni 1.2581531106758963 1.333175543595402 2.256455133408831 0.5364357349016374 -0.21913743642924197 0.5237311428507755
Ni 1.1163178009355652 3.6268327850394506 7.9705580105424065 0.2619357625416908 0.34597201225800417 -0.8127694180362132
Ni 3.857045829924052 2.9268113005585845 6.90273386656184 1.1258979014016353 -0.3793202487011467 -0.10147115736330911
Ni 4.551867019733329 7.155305451107001 5.928798679106516 -1.7908921368016768 0.34953350435701735 0.8883320830638765
Ni 8.618924749856191 7.530981284008093 0.32530752426553255 -0.6693697387599181 -0.48729681128314145 -0.3934443468073547
P 0.5873851020075712 5.790773585269793 7.937691602732505 -0.43691115974173783 -1.081038064774467 -0.5759199090391888
P 8.568967373596777 1.8995349087376145 7.730433494939332 0.5540177096494587 0.5498568934035498 1.0498886357548565
P 2.003077139532604 3.797360629716035 10.23391898981232 0.3506061685959059 -2.1967423134725523 -0.4321571899965202
P 4.096777595999482 6.219925175615449 3.365980731286451 0.2919333373450456 1.089819153401207 1.0807714413766418
P 7.01100636539464 4.052084154381415 10.44681832635326 1.4414527348203627 -1.1645503236665107 -0.4076378646989173
P 6.484240152865667 8.06482062460437 10.373102331098625 -0.4886286427206875 0.5949183045185624 -0.7615612705935142
P 2.5055147007658185 8.297106514218205 5.864835054645965 0.12039961883669588 0.9451118110570819 -0.5466571555193295
P 6.904382141778551 4.262441528701764 1.5652241470362862 1.2675505160798364 0.09238976388733121 0.3323423372897115
Ni 2.6442498348365486 1.815475600112584 0.2726309030126352 0.7231075946030062 -0.5045481421644213 -1.0430183909975843
Ni 1.4489366485837767 1.1745301904149152 6.9154009479708005 0.019736044976346654 0.41312125641099173 -0.769838680110958
Ni 7.074764523667119 0.9849467205081708 9.04820180185651 -0.33355564087152234 -0.06649926927381451 0.8052078036388713
Ni 2.667760257949714 2.0181870866378167 8.858854708980294 0.5529774413104025 -1.1258680766049642 1.4574300840852255
Ni 6.779111407023598 2.0053227213226084 2.5687391924347622 -1.525914759220185 0.15218616721967337 -0.016956682458996602
Ni 4.166399722913876 7.127412961504837 10.096864860085606 2.5032314371445854 1.9970146490284895 0.5740000663086565
Ni 7.562464886189413 6.386734627773362 11.240401476086332 -0.8302130674339572 -0.6023721896934465 0.6780803791600387
Ni 7.883483076493309 4.2983799287660895 8.428092118257355 -0.5972364111287779 -0.14118467390284717 -1.8242565711947356
Ni 3.0611461852918147 8.566749066079526 12.137240476750488 1.4896390647176023 0.040954588035490756 -0.0662868961526923
Ni 0.33088056733141435 5.154692087546426 10.007886181798344 -0.24520945092594543 0.2587686776676189 1.219680688981751
Ni 8.690365161620791 2.489050131447202 5.508627597636029 0.9164807775839506 0.6850274999018331 1.51981841651446
Ni 3.829316985958408 3.048700025492154 11.438770898389274 -0.5488364225588354 -0.31247490894182317 -0.193766304654305
Ni 1.4002429802952558 3.86681911099391 12.452664713712727 -0.707625182696691 -0.03558252509030001 -0.548793485136042
Ni 3.452113793783142 8.780643004433527 7.642426689904504 0.11076132441598342 -0.3911288113003006 2.0643922071421996
Ni 6.024841394036831 7.972251742880373 3.4819309378992473 -1.6738884310204076 0.32802442664064796 -0.6053526124780091
Ni 3.6358332950479717 8.669782177116458 3.740750149189717 -0.5937492239111257 -0.6965648111174713 -0.4368365977500606
Ni 3.6777083951482195 4.35721962651876 8.93246433457119 -1.0274503613559982 0.8402645381326884 0.04912195433763153
Ni 5.39842408029231 4.865312053636117 11.47574844824549 -0.17066674252236413 -0.3322976000947051 1.0170373935527905
Ni 8.13777021279464 8.859047447174415 2.427945759913599 -0.149696053807968 1.2456508877932677 0.3271844472378559
Ni 4.862884643361092 0.9581088361191279 1.2610478201574244 0.0013580566897912095 -1.8698196045365154 1.1187425213037767
Ni 6.451211008561672 6.005094820563592 0.2198706406566284 -0.3165987013022096 0.6466800104718863 0.08044416148968081
Ni 8.216056467020266 8.990227607692539 11.369019673250515 -0.650586287504828 0.7758686883551219 -0.2785173210494558
Ni 0.32612393416327506 5.287772355733014 5.476240307884157 0.00880757098930096 -1.3518382196853236 0.8367565249794299
Ni 7.351516569292746 6.110818993178829 2.632888281950035 -0.6265269325627791 -0.13075036594340061 -1.2397633186642392
P 8.647980941762485 1.7659091550959642 3.5281171913793337 1.3393951088259641 -0.8518877241939136 -1.0356912612085518
P 1.9596110401884255 3.6270782534942287 1.2269677072100102 -0.5845762991626061 0.3111255940027803 0.947798870970942
P 4.933625015458362 1.2240057211890247 7.986166167696576 0.46257179773263557 0.6318881968746924 0.6574357063264936
P 8.77440628739732 1.9397190039271703 12.318590752855501 0.14018142944931342 -0.1675755051915501 -0.06816431568106325
P 6.525251567662066 8.110650494253814 1.2020981161713158 0.25506680333599946 -1.1859421590787256 0.5909536634438596
P 1.997504096466722 3.303168990278505 5.988131132053594 -0.8097401442915861 0.07253441972430089 -1.3976887023605347
P 7.361980798605683 4.394094443280941 5.867150640402702 0.877695686395953 0.7124920238706891 0.7104911913905764
P 2.5458897158646465 8.681764674279316 9.921422191458914 0.27928402401215124 0.986798906383223 -0.23751902426022317
