# total energy = -340891.90101137187 ev
CRYSTAL
PRIMVEC
9.04847188331575 0.00000000000000 0.00000000000000
0.00000000000000 9.04847188331575 0.00000000000000
0.00000000000000 0.00000000000000 13.24335323479198
PRIMCOORD
 96 1
Ni 6.215558286124584 2.0022911254983544 11.318802387411912 -0.06934599469399023 0.3024051834106469 0.6255614833257162
Ni 4.527303429697996 0.17193816000907056 6.0325592739483564 0.1013577717138964 0.522258672070307 -0.3726410369087582
Ni 2.505558089409568 1.4199495648194873 4.918144033913775 1.4867907966355296 0.06797071161301843 -1.2225055600250558
Ni 3.3756410595416186 4.561370926760613 4.930103399350072 -1.2741117142371219 0.5111047123360165 0.07357545939430556
Ni 5.438801256152915 4.55398737361238 2.823244512084272 -1.7864382147953815 -0.5722257480170532 -1.0743745367113626
Ni 7.23918477754629 6.197072257838016 2.5163031499040858 0.8610133406442655 -0.7873226958283345 -0.9538394207380668
Ni 5.331812123279506 4.4471339678189015 11.822421336883748 -1.2126857457211568 -0.4635848123781823 -1.6102150612311623
Ni 5.468634068321693 7.910092782115968 12.22964058025837 0.5214552023324053 0.29885680393775627 0.6950936258885836
Ni 1.9315320744944582 6.395740508968648 0.24451957327283674 0.9176945953863936 0.7134520737911132 0.4685791802689801
Ni 3.2889386008818575 1.802075585656512 0.5590136950275698 -2.491979004159218 -1.8724979226996268 0.5518083607029658
Ni 0.29470330380643106 0.2602928696551886 4.994611765899558 0.4131636796131529 -0.41304669441931446 -0.8788387988614605
Ni 8.400601400513692 2.2646334740604974 1.2445775096881688 1.2169157246421043 1.5194695178154733 0.6526120596856051
Ni 6.811970220756272 0.5013848817361742 4.874931246205423 0.4932486579912022 1.2965397042233349 0.17142058996925316
Ni 1.0616572192183018 7.446982936920264 2.33396920041952 0.33210785268140225 -1.2051688685188213 1.471796894329859
Ni 7.537096669522284 3.985888107854247 3.850624309689664 1.4552173927046228 -0.5255766806999465 -0.08610753042304525
Ni 7.547710527172869 3.8651633944918453 12.586390161384342 1.5336596932729265 -0.5939934787114479 -0.30515909200670027
Ni 7.886820112143842 8.893770269678058 7.293300069161879 0.25676887362877066 0.0406653389298461 -0.6420497107887265
Ni 6.740116304640935 0.9679783886501003 0.3390218147926181 -0.7113527680599233 -1.898387645982195 -0.28387961380263366
Ni 1.6978643336856845 6.369708055037931 9.3764003835094 0.4765470289658051 1.158549111777753 -1.2039229119268622
Ni 0.3626030376597861 4.797707966808026 1.1255448605889038 -0.8090791136688195 -0.7545997516740165 1.1198961752922454
Ni 6.442086782529 2.0516143463451875 6.948681774440116 -1.3661669776031697 -1.7755308238542584 0.8633003369062293
Ni 3.5687625973390804 4.371307772497591 0.4089773614833241 -0.4872029660177544 0.27783392182918604 -0.09283147941044012
Ni 6.1715374698670455 5.827469322242602 4.580081357152666 -0.05707926151149524 -0.2108029484216176 3.0184995368296725
Ni 5.405131891858095 3.032631583140635 9.21761236785122 -0.2620095532024197 -0.11708469553084996 -0.33927557407443504
P 0.2997957838454327 5.624611628578108 12.341600038798841 -0.47295339807727577 -0.6576434514619254 -0.615621598504185
P 3.976658666418956 6.251815513410084 12.536078847395611 -0.21718982578456789 -0.5015528069815234 -0.6390034677632349
P 2.7813736127728363 8.621447456505006 1.3855065561690614 -0.6748207345721604 -0.27571173327986065 0.06737575834149687
P 6.669574416964927 7.6372994483991565 5.936531460050154 -0.45071078462899156 -0.18272778745195625 -0.49186489026979807
P 4.708390499741599 0.9801938258438676 12.526808687836342 1.1487125853033056 0.015097003542438517 0.02654098371332203
P 3.905990100135014 6.056413760669785 8.190060649277918 -0.27440946952866935 0.377377266042163 0.10938732688659225
P 4.721610317326853 1.1240554820984638 3.8866064634265047 0.3449592547227736 -0.001508723335042563 1.2347974900185317
P 0.09655986405153145 5.480188967059798 3.4860478002876847 1.530557657308835 0.8166461273828001 -0.1210583354666173
Ni 1.4742222998477952 1.1319186042624518 2.478029923058014 0.7843795540396105 -0.11011880573597808 -0.011713431782186279
Ni 1.8448205673627018 6.451479096460209 4.668110321806951 -0.45369943494367027 0.8391931594453805 -0.2612194532009566
Ni 5.731754585475438 5.6704511877067185 9.34858899998439 1.244357880013457 -1.091347417120275 -0.1070620211875253
Ni 8.393561689301283 2.3280089719161605 10.371187584987423 1.1686844004395422 -0.02929206409589794 -0.33334121086787105
Ni 2.1496635888871594 5.398381731749539 6.991510906935863 -0.06552636383758392 -0.8000915654582286 -0.003408768571232839
Ni 0.6502729641842058 9.043024815241901 9.119240999706212 -1.1745028068935321 0.5772995629955348 -0.6115484568760758
Ni 1.3259359407874567 1.0784421347697375 11.295812029766045 0.6204866399059701 -0.0189207481639029 -0.059010159985620945
Ni 4.062012902751405 6.599123014008874 1.5700257116405127 0.17248914044308358 1.5716361725166998 0.1986514006607482
Ni 5.715394948107787 7.9106809327956675 7.9609641965212115 -0.6786437078626765 -0.46920678655065 0.16447064101398126
Ni 4.828771371168176 2.990076619346348 5.166934485968432 1.717523651211855 -2.0527561655651683 -0.28005715473274995
Ni 0.6928089261873024 7.434188397518792 6.923903438727959 -0.5202205585943557 0.17843790182735075 -0.046098337019959315
Ni 4.898164102900768 4.430710991147281 7.14689488742938 -0.10326141649451248 -0.33396316072258614 -0.08060871209200311
Ni 8.252079781181472 7.171303140636926 9.384505099875666 -0.3209927166048472 -0.49557499213153366 -1.1201188328260128
Ni 4.475935254180206 0.38919649685421703 10.463004240018973 0.6461632187364679 -0.8796762071610915 -0.34406245394011714
Ni 8.352255414642359 7.361972542523639 4.3870068714095805 -0.41302715403528867 -0.8168775266673157 0.2719784914896735
Ni 6.895379035609713 5.725683060766537 7.1303542806218205 0.686848869381288 1.4928215762106418 -0.5820067386632171
Ni 2.478702224527271 5.083739215054081 2.5139858362260683 -0.9700983057990905 0.13827547067585216 0.597228697819294
Ni 2.2912359817269237 5.1711293575854915 11.351195917155385 -0.0023574444885830366 -0.018489831274071382 1.071240104847439
Ni 1.2685957737527138 3.2643267570544157 3.7982200841284026 -1.0345898006142569 0.849159269519157 -0.7162604897741858
Ni 3.6893968259815284 2.895547232410581 3.0182924695695514 -0.03978910697247986 -0.5599554152901325 -0.6046769265672232
Ni 1.2135177247168167 3.3792333029237853 8.19693386860561 -0.22527697366807653 -0.23800393431644176 0.39227243798644057
Ni 3.3360992369217946 2.5965585722671363 7.14060438969819 0.5634773124004618 0.4643731126074325 -0.6795109409589781
Ni 3.9450342567950925 6.75192456059491 6.0360022175426 0.8782214769924359 0.1974319264313503 -0.8150708124758802
Ni 0.7614488250498795 7.560224563942484 11.455434314542199 0.34294710938875134 -0.3667228716521103 -0.4512800268689003
P 0.1023400279621822 5.618693927893127 7.899236425415906 -0.24418563764712137 -0.4953754745262178 0.94090471495427
P 8.515164104447237 1.761076959045431 8.065903850487667 0.3951129927590292 -1.3945506709521853 0.5865488495079447
P 1.7220147054413621 3.2024804509659717 10.50868002180447 -0.49911822939810174 -0.7094128707247331 -0.7799587992640955
P 4.167291874417688 6.169266303396204 3.7102580781668837 -0.48472596523217165 0.30936798788172526 0.5935623047113002
P 7.01174238547034 4.0091064869944 10.385861492022336 -0.8891936597332234 0.537120676783804 -0.45220382423475025
P 6.23671361364979 7.679510570257619 10.16203577420294 0.28294296092097726 0.5029473733362048 0.09597850967985405
P 2.229769711462286 8.449218840544884 5.835564085289672 1.1841611559189027 -0.285085975405909 -1.3424963734591073
P 6.947317264863213 4.103771601010099 1.3477101837971466 0.3048824413065459 0.18447948003574036 1.0401274426030345
Ni 5.248656665641934 2.8413649821022267 0.6754177630121759 1.5981396181238672 0.5757777270343697 -0.2972300669676107
Ni 1.4131722592949454 1.1043479100925193 6.946363555914899 -0.8807079908597154 -0.06847310517073368 1.7872699666680574
Ni 6.697127014190869 0.8070829838641953 9.214287959240117 0.1662688705649846 -0.27842604688723016 0.08812764617686758
Ni 2.892905078587929 1.5419139188452564 9.192953471969401 -1.1670910878104932 0.48556311642148636 0.19114455076074177
Ni 6.422315871219088 2.240890283544612 2.7774221450524528 -0.03259901698194386 -1.1765211228751415 0.01544615935174114
Ni 4.001750079262154 6.867772147551799 10.33205384845459 -0.6333215868871094 0.7972615522086012 0.3717936013067984
Ni 8.288744189706765 7.060567940357428 0.490314076249823 0.03956927765218992 -0.31527946827015374 -0.7302516618469553
Ni 7.880468084803083 3.7344039256865638 7.880153197977644 -0.36570342924866045 0.993740884918695 1.0366788219328018
Ni 2.899094233432771 8.427267247484085 12.350380676023162 0.937311855396689 -0.05605570534298733 0.15563453077959002
Ni 0.10820977174558723 4.764599607776919 10.100957683386905 -0.7902964337446776 -0.3189373767377152 0.3091980379627643
Ni 8.554742120955042 2.300320647610288 5.757137359116888 -0.23788900600513227 0.9846633480974589 -0.3284417166837247
Ni 3.5095584450732886 2.6648473904162926 11.582875708666773 0.8276195956751682 0.36097799874853315 -0.5404733953061207
Ni 1.2267103968860853 3.013367386262465 12.74761493055088 -0.6142265179288712 0.5868681805205763 -0.13420387170963985
Ni 3.095364639484626 8.12508447672627 7.865002436468574 -0.10793645337267863 0.5115487418519706 0.9551797368160454
Ni 5.893740331136788 7.887173002551663 3.6133299413051403 -0.8381109821247953 0.55106891143378 -1.2227770685188877
Ni 3.4360034162228192 8.341496781439849 3.515765696862122 -0.9476523180907485 -0.6103552078989231 0.9298929372247985
Ni 3.2808402184459893 4.261947939961391 9.344404081686529 0.6376065874157083 -0.11590378784887137 -0.6377654815910759
Ni 7.374215125133393 6.123915361755343 11.451262968952326 -0.1697005219543529 -0.08987548210590975 -0.3432029341532992
Ni 0.7971893845844434 8.705064386214342 0.448027852073799 0.21390087062065094 2.1867954866724855 -1.3558041463116068
Ni 4.816673564110348 0.4450798598977032 1.8608372676417295 0.6462025566148355 -0.492502523853797 -1.0182165014625564
Ni 5.954880856409592 5.817896038871487 0.2813930015012225 0.7608087086982058 0.8205431484443609 1.1260490822675189
Ni 7.88935368430255 8.876912966350659 11.214789296977784 -0.43504248196411527 0.2866147533456096 0.2365047240630959
Ni 0.0073536931906478635 4.842841745120997 5.7053556684289095 -0.3108152618512131 0.32955114769781957 0.0007962706490502416
Ni 8.268719921180983 8.953752590535451 2.3704146359225233 -1.2058149867432524 -0.19184183393808252 0.04011203752953737
P 8.640204938951436 1.7651668683873443 3.398429636261991 -1.1771474436052307 -0.2308866065453701 1.7841000535805083
P 1.9765301257274985 3.0933830241176374 1.574687484412534 -0.7222976971072012 1.505681977113078 0.4473539523416167
P 4.749090526776833 0.9947618657564344 8.181876306358093 0.26594976879709037 0.393942883710328 -0.7573801426326311
P 8.627356108717992 1.4237046806975713 12.538992455378127 -0.14564939454242012 -0.27418475511237295 -0.6378811812333337
P 6.4875553543058 7.91487037532953 1.2970686005805858 -0.8153927145916732 0.1648285385740323 0.07777201397415638
P 1.5214100813037184 3.220197359132932 5.923924224018987 1.696297909063859 0.047978070541175435 1.015121150366684
P 6.742233647087854 3.80882760784859 5.893093365389118 0.16752562579022115 1.8358046810436512 -0.3894830481667615
P 2.4294423429844056 8.569853069187332 10.021272314759562 0.2940907500076806 -0.9863479348887335 1.3366301444863173
