# total energy = -340851.9247190348 ev
CRYSTAL
PRIMVEC
9.44046304056796 0.00000000000000 0.00000000000000
0.00000000000000 9.44046304056796 0.00000000000000
0.00000000000000 0.00000000000000 13.81707191649498
PRIMCOORD
 96 1
Ni 7.2956843559583495 0.885050032155568 5.271116606427228 -1.63853884787652 1.3352923995115002 1.877437011872457
Ni 9.107734062489612 0.24826246876681965 12.057951500160613 -0.11322187014133404 1.8463204929733108 2.4578442672590377
Ni 5.427426131608507 4.265125744422478 11.216726930260537 -0.8860240037559902 -3.472867972815909 0.8285040551626505
Ni 3.051544761201761 7.948369659354905 6.0829379096834115 2.2014857416948086 -1.7773753332621647 0.05840852184588005
Ni 6.425434137941879 6.238324157564951 11.588295064905015 1.4274067982502578 0.9794391235840422 0.302397212990847
Ni 4.295259702917087 1.7661501745134716 9.158148968050002 -1.894663145942756 -0.8512372350941082 1.1327802303437653
Ni 3.1211870581362016 5.3116388506134 1.226545571316157 0.582190572539249 0.4324400113442617 2.152704201415731
Ni 0.29174146602332746 8.652486606197149 2.0516835919446765 0.027562997219933178 -0.8994191941159736 -0.8402128589591464
Ni 6.928506980742393 0.4477517285215623 11.145085143222975 1.4977377825653369 -1.8588515355607858 -2.24506491183734
Ni 8.093951042169872 6.197343106867864 6.1803351683892025 -0.8312839319006329 -0.6615942085795573 0.3037627258798059
Ni 5.450092683721778 1.2908889362634344 12.545735512828912 -2.3123277987500566 0.634164908724011 0.8663198404588435
Ni 3.9174146042992155 3.871656679229237 7.855323510132249 0.7020080936202298 -1.1625836868584427 -1.2513394535376128
Ni 2.181303983648478 0.13610032563572513 11.287138624944758 -0.09455463274913394 1.1877295899964513 -0.2649179850984663
Ni 7.702993140184515 4.0860873600708905 10.65184359878596 -1.3734925647303056 2.370307974809266 1.263237233416463
Ni 8.755312131235772 3.9819307297228246 1.9085661700216572 -0.43970260644394593 1.9414176284894757 1.4247763026059461
Ni 1.1160043557143622 6.041537702420799 5.767204450515284 2.0129495750911914 2.8449061075788165 -0.985719043055483
Ni 9.044539601912259 6.157409947584594 11.207676358202646 0.08586044740924567 -0.38300103998684365 0.0015496038753070084
Ni 1.8182237694559105 6.414662569444903 3.2541833594758653 -1.2723469090272153 0.4663808870660806 -0.6639938191599855
Ni 0.8516723305097219 6.503289637849474 1.0148969949758704 1.4588465048167778 0.07329366648782862 -1.3788155196051157
Ni 8.12687937776799 7.005418434331234 13.563901740206628 0.12862123541553977 -0.7415717148454648 -0.8201459130059423
Ni 8.207887992380222 5.578143126397491 4.004768154219789 0.31474853546734827 -0.16017227074894352 -1.9459630817683131
Ni 5.6138091963199965 8.082178784575017 10.12030020710448 -0.5644540744914344 -0.26451689300530573 -0.3801406877199131
Ni 8.723507210756969 3.2886042323039337 8.973718191125695 1.084942799145512 -1.5583209434650325 -2.6867264417798697
Ni 6.461676076118823 3.853257216476733 3.2209529290557444 0.7028349603968993 0.5135426323535478 -1.3091820755776935
P 4.28590420389824 4.003709878296466 2.761369468021245 1.4876284620454767 3.27350669057233 0.7549172829144353
P 8.08250920078658 5.779866943788724 8.982837678564854 -0.16501802887701902 -0.09641842543075008 -0.15501900868277818
P 3.4124819902507584 3.0429539397011047 11.985370387035893 0.3196788828894301 0.2500860622919564 0.70368033911633
P 3.412312061913383 7.71729544191363 0.582923112579634 -0.8940964963514795 -0.6270180132665847 0.4721303879553481
P 4.38510459107285 0.6405184344404617 5.247088739522315 -0.1760873993173032 -1.259999957426088 0.7486831290792655
P 8.215997350258315 1.9415917423906082 3.5944421979588874 0.8568430113166597 0.38881301868293033 0.3518690944687295
P 8.424508860681383 6.378939856743274 1.8327790755984508 -1.283473872178312 0.38030318143970626 1.0345401783232442
P 3.601357337243756 8.921917425569376 9.39846917513715 0.30568565393413166 0.8839889756038325 1.037509288253897
Ni 5.809236224765143 5.414596542136648 9.192387639938552 0.17038777782936462 -0.19232340156019137 0.11882764636388567
Ni 8.565124559859706 3.3951209784488827 5.315938981595322 0.6421808370499521 -1.1002007537458471 -2.756787974483646
Ni 5.292984495354832 7.84758327436479 5.510925140409611 1.542792765922446 1.0903557426309674 -1.372572109798565
Ni 9.322599004637892 2.0598901865936 0.8870136484985751 -0.672034430076275 -1.1253906227479133 0.13369607883528586
Ni 1.9359652263308378 8.664787529730505 4.2879905462626855 -1.0848114157739703 0.040064986341685836 -0.7347366942015024
Ni 4.9974507952690725 0.8950125529573728 0.9936399040164995 1.8628357170195142 -0.8091068815829613 0.8795563937537755
Ni 2.147167268762354 7.2723286500323905 10.623878114685528 -1.9631624763657352 -0.021499307524356522 1.8144179878377589
Ni 5.647596614068182 2.4698800623650254 4.714855249981828 -1.5217709122551404 -1.413722615894946 -0.640743076162161
Ni 0.13476638818732656 4.503752332413781 6.816196622339254 -1.30459188510385 -0.7565435056639487 3.9713344275626254
Ni 8.284025327987687 8.485296003145917 6.305020085938561 -0.6255306300877808 0.46679354912346704 0.8501527437806777
Ni 4.693014738397467 5.8745170277069425 6.6462881099363305 -1.8357257481765998 -0.24358939882401923 1.24714701272282
Ni 7.28381769373162 8.459646264665386 2.3245016495085915 -0.3369404981833552 -0.875932423847943 0.12519909710786825
Ni 3.6313780101801147 5.777251935485777 4.312404528111967 1.2695906864383166 -0.9643611462049972 0.4211880925795263
Ni 4.84569534952946 5.604359292669274 13.44363779156799 0.7083880290046445 -0.045720641965566425 -0.07253004884892669
Ni 3.874658746522873 7.9593772394315705 3.052674784645309 -0.11712300496795311 -0.6265698699855725 -1.0618730618102423
Ni 8.863839696039665 9.206056486587782 4.2675273982573865 2.0866425338999677 -0.06283467593803373 -2.331931431913597
Ni 1.1596381765671457 1.3353629583399083 5.073988406515687 -0.6681880597469911 0.2422675946888021 0.6592650462257484
Ni 7.363768976466846 -0.21749788733128303 0.219144304111189 0.11972701824970348 1.5005060893390931 -1.8056656955664256
Ni 9.238465596710586 4.3398942128677485 13.309529403664836 -1.3550582692845181 0.13992380491255255 -0.6468196213735441
Ni 2.0791676124225447 3.5820799114148114 6.201599811719124 -0.44082566430479564 1.2027918836462126 0.3880900244739768
Ni 5.816580905125045 6.239428691757891 2.669678969312319 -0.11714151691071438 0.06072534290451477 -0.6401059567987945
Ni 0.8977181897069202 1.1113596478260954 7.530953915240166 -2.0450891359382135 2.676646431836048 -0.8208838196132314
Ni 1.835320448288535 2.560130890437853 9.260989597829726 0.39349191221583846 -0.46545297593517254 0.03240078492820872
Ni 4.095962084565051 6.029689921120443 11.269315030446695 -0.263585639440288 2.7579987069622955 1.5433969751653485
P 4.292956229899328 3.8205082496791767 5.655175417915134 -0.13306410167824181 1.2576761943889179 0.19751497306345983
P 1.3834998801331455 3.6237595563877747 0.9996723599933338 0.4758404898170837 0.7151780553432845 -0.14004258987860396
P 7.533989968201277 2.096538064687608 7.479927267665225 1.7489479311594072 -2.317691377054815 0.9109467351395989
P 7.288887222463326 7.657660035957976 4.251291689667465 -0.8046784134979625 -0.7674660661137235 2.2334473822030696
P 0.6346625151252343 0.9807130777738089 10.220875125719196 -1.3035593300742776 1.8578223229653232 -1.2110201850932756
P 2.429389915753691 5.570590755847465 7.5672647687983785 0.1351505518936253 -0.41103763440908564 -0.19958265422576596
P 7.012951923954886 1.2319049222677203 1.9223964485913947 -0.37465061113961934 -0.9734412541293945 0.3021377886818732
P 0.3127257275965786 3.94473530476394 11.061768335361391 1.498272057802252 -0.3786921281988446 1.2117799460774357
Ni 3.0184276163398907 1.695988652103717 6.766606813261455 -0.003602372639277667 -1.7567627992181358 0.05215302785447147
Ni 1.0672443633507478 4.774334888294888 9.178556417322495 0.11177948126785264 1.8980328337459378 -0.10567876768675348
Ni 3.447175692464947 4.633785272358877 9.833955853885467 -1.4977205561741562 -2.6035957345969614 0.8238372458146005
Ni 2.057577273112654 5.001699003703463 13.152885686086718 0.532375963009967 -0.8152114518188025 -2.1237772339687355
Ni 6.473080155649365 2.2791166227345205 9.367822599491456 0.18395086122577997 0.1846723127728368 0.24590442011044103
Ni 3.497096861800628 2.3389785998066754 2.141286804242839 -1.2593947197419213 -2.7647789631089226 -2.130851624317014
Ni 9.215836806450067 8.433779395531541 10.254699361273811 -1.556932290647622 -1.5871296401666086 -1.5241661519601943
Ni 5.484994076126092 7.601413756286647 0.6667072233690006 0.5681338373358668 1.0697825464653061 0.08943299525185243
Ni 1.4971252950583078 8.92086953415556 8.814919215801863 1.9634249859985025 -1.5358500160560258 1.5271748568795314
Ni 6.669951574962204 3.468539460658337 6.388336893800145 -2.012999197382204 3.8449875900035586 0.39462268338617196
Ni 4.744351977211279 3.377646681088757 14.097005640453006 -0.3397563703655955 -0.5504803859201616 -0.5806643657027096
Ni 6.069368187897649 5.6717925212178315 4.901219433766942 0.3136707290221372 -0.719736107027612 0.03170838684687442
Ni 5.215449971195613 1.6475307545621036 7.083405156677136 2.331665836957036 1.2842071507999109 -0.8070106611755651
Ni 7.1281350153059915 2.562217232802298 0.3114116151208738 -0.616945459521931 0.34261183753651964 -1.750574411019237
Ni 4.849650903605036 8.93595539432924 7.577489734476797 -0.31083017424954856 -0.6553865371069487 0.950454306315918
Ni 5.335240008582236 0.3828929142842457 3.290287466890271 0.21033012255025713 0.16726003083366034 0.6754853647393527
Ni 1.4855607276535783 1.0540371553513874 2.7139358607354795 0.2810562854212256 1.0663467813108796 1.2184079929169145
Ni 3.5473767687374353 6.752801079896005 9.051163030884632 1.5996609398644 0.6342618393131916 -2.549270895902151
Ni 6.413850689610775 7.110717360724991 7.726949259569202 0.9077750222798365 0.22714745121791202 -0.1523730864194989
Ni 2.606011541529269 2.986802064661651 4.101666956469278 -0.042171491161727366 0.9620980612024334 -0.016324191081320272
Ni 1.1447033638044664 2.2043953566051866 12.686725054349463 1.108917821903871 0.9443235108278317 -0.8944600503384854
Ni 9.3451617116561 7.306285996117951 7.8806362240769845 0.6417193240325012 -1.0241413515874234 1.7877553909449082
Ni 3.1043735931992025 1.0723233325456412 13.784684908727172 1.8541045077941034 0.7316680825785077 -2.8810136519346514
Ni 3.797624566912593 8.509473029369193 12.21711015713189 2.452822645674731 -1.579722806179576 1.5755373073433188
P 6.991163334918057 2.4488278294568238 11.6703685637648 -0.17940592216757492 0.45950447166122155 0.7329762598669699
P 0.6417957291097353 7.837189324395315 12.41644931352195 0.2014492751208595 -1.592309127485019 -0.31382036722612405
P 7.294749750102784 8.830684789325046 8.715270406625844 0.36150661755849356 0.2969791272990692 0.5602762889646609
P 6.087314508417152 8.285403635613067 12.388442291383493 -0.10215069992883696 -0.026010308020832627 0.293241771743824
P 0.7095367167582061 4.6646083846661766 4.126786140918669 1.264254618937384 -1.0885068623476868 0.20422580942473215
P 1.3353629583399083 8.670650057369965 6.704954924368943 -3.0572851422383027 0.4948797658367219 -1.1520197952996678
P 7.108111792885231 4.706231386860016 0.3715785191539859 -0.6211450994255755 1.0788294871589226 0.07783783421508529
P 1.3658934162883942 0.6321183102961938 0.6712207088189607 -2.2327213026703223 -1.8721299978372468 0.2899582158965458
