# total energy = -381169.88245140045 ev
CRYSTAL
PRIMVEC
9.21571303318224 0.00000000000000 0.00000000000000

0.00000000000000 9.21571303318224 0.00000000000000

0.00000000000000 0.00000000000000 13.48812756260930

PRIMCOORD
 96 1
Ni 1.0258471104400384 5.224415437719887 10.972429912784696 0.7499743370868631 0.8603579664484539 -1.9498508468584936
Ni 8.074881596769934 8.38811447137575 11.24563249413607 -0.4867023722322521 -1.089695483339149 0.20544734053665908
Ni 5.501559579589924 1.9308209270694356 12.927790440857407 -0.32397288227909365 0.42979100375718876 0.36853652782208146
Ni 1.3926140627941026 4.7601646715560495 8.540816995299474 -2.638340080056682 -0.7197386781307734 -1.2351420178421437
Ni 6.001576528528927 4.324980264699836 12.57102990985281 0.9724012429006544 -0.23554056037761373 1.8320035621300061
Ni 1.9261669919234783 2.7382095570442977 10.397337156585216 1.4890032309058163 -0.643820172425588 -0.3431905928581251
Ni 1.7747251775600847 2.786324795454282 7.217402801054833 -1.030875070766831 -0.6231582732008623 -0.4183179701205828
Ni 1.0499738474937332 6.390912762412594 13.524006533191637 0.46518558120639886 0.2349965149486856 -0.05929735220873658
Ni 2.084133531204372 4.377353162589885 12.710429551829623 2.09332945900184 0.48369006776848955 0.7692283002204687
Ni 1.8911288504879753 5.762649949134699 6.352597513377284 -2.0459375999814373 0.7830551788012321 0.6806198577524407
Ni 1.5257258236816373 0.17340746668099521 7.980749537836568 1.7490800858618973 -2.187828298812374 0.010380057682743412
Ni 8.946817081719615 0.47817570874906595 3.374406177781903 -1.4904929280774655 -0.4406693412325895 1.3231956162479663
Ni 2.5287087497709435 5.16826409743411 1.6239432082589695 0.7667397294706602 0.011345764030122395 -0.15418519992757318
Ni 3.336853068224951 1.5078842030032746 8.736422350269711 0.3785859416382835 0.08923064943305922 2.8569393845942668
Ni 1.596530147892308 9.034099101060923 13.513620424459964 -1.0106219769447498 -0.024283555137713016 -1.0979880623652443
Ni 8.622193585647654 5.692103664892517 6.64396887322421 -0.9593757771752638 0.7237161747212826 1.4882583823199917
Ni 8.017661233757561 8.014288282740887 5.724928192026915 -0.2749010644531072 0.9283811285659624 0.7674868920493298
Ni 0.5759221703839065 7.38260643988052 4.320139250576725 1.4169647769813274 0.15825037113588228 0.36554813461771885
Ni 4.873223040606748 5.812341074495098 8.34843621836403 0.06449946523496633 0.8443960438025586 0.990985433660745
Ni 1.7870742331949019 3.416430751364238 3.1223131089955394 0.3799727946834811 -0.43848930286213517 0.7138907039904286
Ni 6.1506499046101215 4.7622197755908005 2.4530449800108407 0.07111054279358076 -0.044068193963807976 0.1517637349702741
Ni 7.9207119313110885 5.77626155747248 0.8337999423209979 -0.36639916976410447 -1.2115063807010746 1.1662004576754237
Ni 5.991503754044708 7.651207615650948 4.0596432945307885 -0.23529836245982058 -0.5267748147731057 0.04335676971908017
Ni 5.006067545812633 3.068473069570369 5.529013189094491 0.7080293601136451 0.17660779059714746 -1.1719712987209299
P 3.779317888477811 6.424070898363393 6.42490768511835 2.492605324889307 1.023103140130896 -0.19604584471710107
Ni 0.8873478436389859 8.212039055734845 2.0391894196928506 -0.24345364457710325 -0.39106376239032004 0.6051314976061385
P 2.924284021464141 8.662143702197604 9.558753337562703 0.39454632162228176 0.10955753391586939 1.1873207845938067
Ni 6.98785136665859 0.24090887929501045 7.419724567776305 -0.7429750229508947 -1.4842893703699145 -0.6651495300309835
P 3.555145665853242 5.612479903187429 11.713832193389099 0.2109461588677012 0.6877623823344929 0.07821501504884594
P 4.067235199032253 3.9730506105338725 2.752117911345839 0.41401394342859016 0.20628063507123184 -0.15662954770300766
P 7.949612407781824 6.204589473737423 4.579435320769188 -0.9281389306481693 -1.0061310310529317 -0.8226717647515897
Ni 3.546667209745756 8.311163266487151 3.4504920272047483 0.07726884908549272 0.22838800849323246 0.6713644005924437
Ni 2.8267264819490863 8.322793496495466 5.913235623745501 -1.1405647593851906 -0.5332007729041075 -0.31055403777002644
Ni 3.0956133448274854 4.596733214371092 9.779230059209988 2.6834446857048047 1.2872068568581831 -0.21408907537205707
Ni 3.0071701456279794 7.4684600236819785 1.3190394952074422 -0.7003260779321164 0.5850961762218181 -1.1000038072436926
Ni 5.414111677411731 2.3241567804646768 1.8466464462057854 0.2418809007733447 -0.06806429976808924 0.5901602210082868
Ni 8.663931550550704 8.906323238093208 9.16094786328471 -0.740680313379447 0.38676770611812744 -0.9690176711404022
Ni 7.753962817388419 4.105600212918628 8.679286771818415 -0.27804783761220503 0.22736959453104713 0.4342914627307037
Ni 7.07846947416393 4.076662873595251 4.715462933300645 0.8388265201345811 0.5880249198328389 -0.03437050706006984
Ni 7.079289672635197 1.5950095552208567 5.440085243382752 0.46970815166710067 -0.14416201136361623 -1.0481451707011884
Ni 0.7692862639135555 0.7893000281838033 11.055085644119528 0.10127292530957396 -0.494262186857381 0.0170852376170609
Ni 7.026290106250248 0.17706426166300668 1.9731514623286928 -0.9446690670927086 0.4712857805668657 -0.5250182370933152
Ni 4.0679171618061165 3.485935660019305 11.507746729412956 0.39757405270501206 -1.5606701604234994 0.41328786389584304
Ni 2.716451258272803 6.744584186365856 8.552633382713626 0.0464678045442361 0.6968874845642128 -0.18788439195223128
Ni 9.225758287655914 0.87526327897187 6.537398366238372 -0.729025502749338 0.07034538249278208 -1.5600191571030617
Ni 3.7744427762160067 1.542599794478167 6.623318303174584 -1.1735561267095467 -0.34193255208130785 -0.6833033181218748
Ni 3.968258439690511 1.445162059234197 3.779454281032584 -1.6887800034202594 2.176241879526355 -0.5318776832173098
Ni 0.5946070288164372 3.920576339799061 0.8932809197715942 -0.496893453832641 0.79022521418711 0.09210514276737686
Ni 6.01855187217022 9.088379651575156 11.971886907018868 -1.1854847598263325 -0.31404842407653005 0.5990410684376845
Ni 7.3060607263709745 6.687981276135225 8.425251030697856 -0.46678943535840894 0.4325932490926743 0.18915760223770003
Ni 4.007793849148246 3.804688746808148 0.4808114027129149 0.5838633322559815 -1.4854551085432417 0.20350564342925595
Ni 8.547113170530599 7.9146111291989625 0.24224976555983574 -0.781703549869344 0.8801526325768777 -0.14715966053935947
Ni 4.871140289432517 5.901807217855398 0.25621894356823544 -1.3972508434921678 1.236140377199671 0.3004105215781213
Ni 5.045234326743955 0.03475245432753344 5.576558896431169 0.07262106590083622 -0.7381048393427869 1.4442475239566805
Ni 1.8370326142369486 0.5988554725833407 4.303333476057581 -0.7160712565815152 1.0663586083854213 0.9482740108351475
Ni 2.3296493455082223 1.955270214083741 -0.16757668496446634 0.40538403566773407 1.738856608361676 1.958691070857943
P 0.7323146658570191 7.504032676480779 6.955355840484017 -0.5575182666035495 1.148943727477505 0.22866028831801266
Ni 4.905505683807318 7.057936865242755 10.749241928325649 -0.34517882693274743 -0.6341584809661078 -0.1844026040512179
P 9.210607655220363 3.4404653312863296 10.058177716145497 -0.884258170104819 0.8309208921342593 1.1861427051253055
Ni 5.990941595541928 8.723142507605703 9.582532642230253 0.5618112375519485 0.38099686507262126 -0.48519210623531284
P 6.143885571150453 2.264982686262319 7.259431982493748 0.7482509266378533 -0.3951549017405582 -0.7331261551812729
P 5.823501303132234 0.6683428713834031 3.880466791411439 3.149717843548427 0.09839200421735314 -3.4570428328581944
P 5.087912294389357 1.6945853359180187 10.493965752213711 0.8171788599578185 -0.18286071348539476 -0.01781028870854352
Ni 8.156265559688642 0.9082085319486662 12.82619826212077 0.15398362543972838 -0.158409779531882 0.8980310555191954
Ni 7.271603174864571 2.6865831319202345 11.522665125876866 0.8485712582261707 0.29923424188183306 -1.3475254512425825
Ni 7.839438556950304 7.321893321580389 2.6778788908403204 0.7147283694003754 -0.5615176175709297 -0.13770519999467898
Ni 8.459527032655002 3.2540867483321967 6.68247673066457 0.3628780439847234 -0.48908372798023514 0.0079328816938315
Ni 5.118149049268338 3.3815031984866586 8.595768449731779 -0.941498639784527 -0.053486144843598205 1.4851861711525711
Ni 3.2056581756747615 7.704935223375562 12.47364562574517 0.47873503775605947 -0.9567583941570749 -0.5379290316177123
Ni 3.4047913056427648 0.8583423080382225 11.796379179308637 0.693574875251212 -0.9259298388119924 -2.450477799591638
Ni 0.6133398089574018 2.79661874705435 12.27300941296072 -3.285171014284136 -0.4401808316319451 -0.5876084011207106
Ni 0.4357585457861017 6.878460851445697 9.202504278638502 -0.4861644974509111 -1.0143739877880145 -0.5834321582558339
Ni 5.081442863750818 5.365830556164861 4.94857808397598 -0.1548392885718043 0.5850861489194892 -1.323426758422166
Ni 3.515167902163812 4.307654723958451 6.9256277929714845 0.7937504537315492 -0.9445240568744121 0.272977107957517
Ni 0.520677656273105 5.763193676211158 2.479711567611517 0.5221437437589975 1.5488137753055453 0.4427411361599537
Ni 8.565019301201085 4.930636933595486 12.31153109397082 -1.8213147149575921 -0.32686408778395964 0.09737050493137424
Ni 5.817520305291192 7.204604940189109 6.50019821849546 0.9763471149222798 -0.5100932403523667 -0.2326490977624316
Ni 6.127794935972549 4.664256744696692 10.350950785964107 -0.7425222516841922 0.22100817108939358 -0.48069833213001734
Ni 9.064298993087263 2.546808410417795 4.532442556222129 0.9410199003758956 -0.8250379509909209 -0.0498716880194625
Ni 6.602192202325887 6.707103880942871 12.623295905470199 0.9261656089718825 1.0240094539952493 -1.1467757732919088
Ni 3.943606406986679 0.3824244490134328 0.6593953354760569 1.038436428053857 -0.0612858433936751 0.22785373325631725
Ni 2.9192983206444123 6.061976312581607 4.148327945415095 -1.0735486983759575 -0.3069349529602004 0.08694005362666964
Ni 4.473943052223106 6.369633680725435 2.466520195793848 1.786752917822323 -0.4503253762651147 1.3093911062647061
Ni 8.482382001292573 4.021128986091216 2.8473844245692397 -0.8994904136735412 -1.1559109028239576 -0.5238234454542656
Ni 0.25995222896947745 1.6827339287938587 1.4431355239102444 0.377683227318356 -0.9020378626857434 -0.021223171044834416
Ni 7.078635357000816 1.6048150740234277 9.21851473711191 -0.6726741205428027 1.4767953759857146 1.1829411674688723
Ni 0.5198648303723656 4.834332731070234 4.92629633269698 -0.1797918447520839 -1.5005006900224545 -2.5827476875033586
Ni 4.3675660752136345 8.473627073790277 7.715438371664369 -0.5382352500042215 0.48511163070636454 1.7758547828525801
P 7.434251296430903 6.289217367688559 10.553084552137108 0.7778818621304087 1.0654543514035972 0.3700236538905692
Ni 6.29482973700319 4.80576402027327 6.896803806919979 0.5608316472474987 -0.8701564405961143 0.03141399553490719
P 2.3607339459979517 0.6556574422182347 2.1793309265790706 -0.19561724182011472 0.08213697581107145 -0.443427620704017
Ni 1.0462506993769674 7.701626782351011 11.291154430862742 1.0639528271574061 -0.2766712689796525 0.539190157718323
P 7.962016757695603 2.8932915781060142 0.28328272840612123 -0.7416305931078582 0.4269723033614711 -0.43775422446832357
P 2.573349664319491 3.0083681883388196 5.185658756024197 -0.046536710108958566 -0.4923050631310102 0.35058817087377686
P 5.6601251402262385 8.10318305188525 0.6960545208564588 0.13283630193815188 -0.17880762646194365 -0.39732748391184475
Ni 0.2362042577266716 1.8024091798936597 8.784210430862505 -0.3792143192509017 1.0739883570165376 -0.21550858142740306
