# total energy = -340870.7584639443 ev
CRYSTAL
PRIMVEC
9.25630678042245 0.00000000000000 0.00000000000000

0.00000000000000 9.25630678042245 0.00000000000000

0.00000000000000 0.00000000000000 13.54754061497421

PRIMCOORD
 96 1
Ni 2.7183736898903565 2.8964094962883546 8.761560047663849 0.7781073478776535 -0.20780452791492598 -1.082555529860258
Ni 0.8989308701385427 7.423613650100469 6.93932089760566 -0.7853953968986345 -0.6530015818145399 2.7874815469127605
Ni 0.10637255295545117 7.711734714140735 4.976377552399538 -1.6688382701910098 -0.6302401197483081 -0.6237413993978418
Ni 3.8730702033941 1.5893078901183413 12.735609153998421 0.3515939864304719 0.3648079140175846 1.1904071368286144
Ni 1.8723472416852527 3.3141929070075817 2.1902041915554844 0.2142849934329471 -0.11843401046989281 0.023329675864875946
Ni 6.346938547230432 6.159202131229383 8.84388841788563 -0.09456980225778552 0.1636635717316536 0.7479891883360344
Ni 6.080181039453377 2.8279220817339827 11.675893456581354 1.6841509892886801 -2.920207034304661 -4.050596395818746
Ni 5.108888990334052 0.7484871888986917 1.2287793655629287 -0.33229502899154384 -0.6308286452619265 -1.564552526197041
Ni 3.0433533678994706 1.154807589186221 4.941898734927775 0.25561624808156624 -0.12272415320481443 0.30806366724800494
Ni 0.508748840884335 5.192788155832205 5.848012499199875 0.9865482238249977 -0.25515113551968965 0.40428488906628435
Ni 1.9124825882871928 8.181529313180143 3.3475026529212677 0.01269765007232652 0.3354466872466481 1.9197321730962424
Ni 9.27833688349926 4.910294926370809 2.2488104985227775 -0.4147526213668276 1.0246864254576158 -0.12778434133654124
Ni 3.0310980175994318 0.9939977698791392 2.4234788604803263 -1.4663145310590489 -0.8494549463827048 -1.119407665691601
Ni 7.8253836499291625 1.5603819311397753 10.136459473526186 0.4036948208907693 0.29755454018656496 -0.16080861878136177
Ni 3.0377625585480934 6.51424629396246 5.832690534432764 0.29453477952363466 0.27958124353759595 -0.20330535449299184
Ni 3.830722599449479 5.994273255363754 8.847601122572447 0.24636541890725958 -1.0163820193569786 0.003348604757258749
Ni 6.049459356941421 2.6618361675092106 8.763836173523956 -0.10903328598128319 -0.17935578565592983 0.3838271354325648
Ni 5.187391728925164 6.275868623058455 11.101952446389488 0.4866519786102909 -0.29825388024643473 -1.241762608482455
Ni 4.302831275207172 4.359109620995871 2.8604681823306346 -1.2322775518101552 -0.6038516024524504 -0.49164660361140483
Ni 6.433910806610467 3.5069925228682393 3.6671562519555763 1.7716165764015164 0.9248168082534718 0.4241533458554373
Ni 4.614093106430291 8.70236318831805 4.095299321327222 0.10417621499929801 -0.4288805761277775 -0.9934254105608052
Ni 7.638119305578643 6.80273761027765 11.818142529346414 -0.6087372126795259 -0.6262569667308441 1.4290595033623323
Ni 3.962560178243629 2.3583218651389113 10.578556425509092 0.748722209847317 0.140750414578906 -0.8644087394790597
Ni 7.669387110196114 6.2209694669938544 6.933563474730566 2.1679457009558343 2.234914710777215 -0.8582560896141024
P 8.202272696882853 3.638524643535576 5.908692218906753 -0.7688045824194888 0.04080520694182005 -0.43100199334615447
P 7.221650290435401 7.902303560044965 10.150792864719245 -0.4985165912583608 0.7339967307116843 -1.7368323788427957
P 0.22583074693746205 1.279962114417963 8.629038427791775 0.12377007797082556 1.2429496868120207 0.25380824833855
P 2.8488320789604087 6.9111845016033735 10.68968672019734 0.3326426421389497 0.883846022268065 0.4990588369150759
P 9.142065533712877 6.85436003370916 3.1155146106517924 0.1107394700391125 -0.033605089648955026 -1.0765455762207525
P 8.678824399939652 6.1689305097530545 9.37017055524907 -0.9649874669350865 -0.8945667511196788 -0.1105695201201515
P 5.3646129803183245 0.7049242318616274 11.291522536782105 -0.7419928615432835 0.25511719695796065 -0.21043630911081823
P 3.6323321742374444 6.6346986153026455 3.3876167100173995 0.3575576602130745 0.7456016619404643 0.9070245172670572
Ni 4.961491559686153 4.189173083111871 12.76721573944745 -2.121162422053708 2.7742164543727386 1.2566942900916227
Ni 6.537100115632245 7.543288441663311 5.090745703232009 1.3249053998502214 0.6575781454416288 0.24187190191228025
Ni 0.3312711897907879 8.516107781416704 9.469852649596614 -1.684058172464558 0.3638614909439153 -0.07858448257312273
Ni 0.37720746391012566 4.903880305707722 11.555496673082407 -0.3037804664916187 0.3327786534961817 0.9478495217032192
Ni 1.514081884160323 6.578059273545895 9.008843211410504 0.15656886966840133 -1.3482607867467102 0.5442747713300821
Ni 4.370578185211692 8.597322617921645 9.87206602652453 0.7917817600409525 -0.8074932572389384 0.7068438244459763
Ni 8.216231207647548 4.151425863683202 8.089954818022782 -1.3456359475293536 0.41964208824864496 -0.6798107315875841
Ni 6.620193982432434 0.13760425797611686 8.535289626149915 -0.606488268744349 -1.3404086376921431 0.17679856645171485
Ni 8.42265610722547 9.022418511070654 2.9367679198859373 0.8251904174083853 -0.7094856329441975 0.27874100702448773
Ni 0.6145326927226544 3.626880209489164 9.454977764451476 -0.30802124404584375 -0.9250168400794198 0.9009538855929452
Ni 3.1329451621246043 8.212075125861508 7.825479915520643 0.7607660283857285 -0.4724954846042507 -0.479756022821406
Ni 6.131794206578012 4.712163677751222 6.811459828244212 -1.0714815314342838 -1.75655531119302 -0.5405703258953013
Ni 5.317961193677693 5.7142144346099935 4.469740075112966 -0.7084517923630445 -0.1947374103183227 0.8275216366447232
Ni 5.208977436553329 2.0433760237802825 6.653305643379035 -0.46897024505981166 0.21152002909330023 1.2555915439457475
Ni 9.138788801079784 3.321255469151789 3.8825218183422647 -0.2913394125147886 -1.0925830892995894 1.038532844422405
Ni 7.417236054664874 4.512606957873171 10.522157747731043 -0.04878591115445147 0.16228186089277857 -0.8810041819438957
Ni 4.88195211472525 1.8915077969126548 3.2130973746005087 0.33584675089854416 0.20921889176394934 1.1821698365204867
Ni 6.329333051557718 5.457712914848378 2.113375918877725 1.906449597054723 -0.40555218581448227 0.10007222013325345
Ni 6.981726816283582 0.32486119728113766 12.595825961384367 0.21847692002710764 0.8581735572026252 0.2399397178865739
Ni 3.457378718028203 6.295473481015767 12.68178558079248 -1.7819868638922471 -0.3231583567975983 0.7445408247761177
Ni 4.4023180614796935 6.400569589253413 1.4268948784608315 0.5238260165574269 0.3206165642123511 -0.8451997706507766
Ni 0.24848370674810047 3.6893417682691205 0.3057459979574138 0.035877430622899505 -1.4371870175654733 -0.689705879214109
Ni 0.8906474011177687 9.108900186186412 1.239871198089014 0.945040077278882 -0.7815017182711831 -0.1487167206138342
Ni 8.18729599236211 6.322751817370914 0.6229401962555285 0.7206254516111009 0.32574231547469057 0.053897778459720075
P 7.573269619625415 3.553570259053886 1.4978028172625295 1.0047758025766178 0.4239265745566118 2.373926031177828
P 1.2715296188565313 1.542535771488359 3.472410960390184 -0.49705646177306656 0.5271023733158534 0.028971704642001717
P 4.285697851184988 1.074499870754848 8.550029369214704 -0.49497541087432173 -0.03628135092953752 -0.6932748275122899
P 3.982489006941502 2.8778598573145797 1.162937403512901 0.7696481613667068 -0.45253575365287224 0.8660465321927988
P 6.46379942150384 0.39167044339940876 2.8023496827355556 -0.7634266059370272 -0.22811701422003294 1.4072154109040473
P 1.2307370744665982 5.5483229028295575 0.1023090342381422 0.4045471415887355 1.2767512087424981 -0.41346655556555245
P 5.047917696960671 6.762870696575032 7.128987253589759 0.06288378400841428 0.6541848034893636 -1.2379710026505066
P 5.7407522664152895 6.220904672845743 13.23392891392879 1.0928993349884275 -0.19177858480031487 0.4632531400703764
Ni 2.233417260192744 7.0342471014817844 1.449519143720163 -0.8752014592191895 -0.37144367416654744 -1.4269522272113426
Ni 8.442168402114051 1.3948699079411375 1.012747345081374 -0.8676804682517959 0.7661614883696869 -0.5088493406429365
Ni 7.760006354484165 5.555228107756921 4.422011779982989 0.6437834056503816 -0.3762300398115972 -0.2374838001469136
Ni 0.9411164887128837 2.8642253172904426 6.933969826602297 -1.4506133182737082 0.7134448747022616 -0.6142164906265422
Ni 2.3239439414120646 3.3945746758939395 4.534633265708498 0.5653459901780844 -0.7077187708517618 1.2710636714394175
Ni 1.9442132082483208 5.406618100908639 3.720032904968395 -1.1184000503626932 1.3342526453930763 -0.3672250080995095
Ni 7.411099123207982 4.311495178440432 13.004487281680115 -0.2890583297900957 2.0517200109911697 -0.8024600656904051
Ni 0.6173530894269006 7.602658393947639 11.662116369431372 0.6931053918139612 -1.1907249251793492 0.3858840179615935
Ni 5.437765573536759 9.098736761239703 6.322163116253783 -0.8205742587926126 -1.734555409883161 1.5265742471810548
Ni 6.814872628588339 1.2353004337550566 5.0652084781996995 0.04002050625699559 -0.15972567012982813 -2.17851884848599
Ni 6.235094591282268 2.571966684077883 0.2812482561869583 -1.1690489828678123 -2.0426339895295014 1.9288459624720522
Ni 3.8051011420246246 4.11331764828648 6.632157759065969 -1.4739517358893326 0.9069759234173089 1.0327152092993632
Ni 2.033268136674812 0.9734857938482584 7.362139739263877 0.8439281030272046 -0.39012145308170876 -0.8429156026022903
Ni 2.6879296965845954 3.8594541759837093 13.373617692212738 -0.5888062780835537 1.1581999559684504 -1.3035012231428325
Ni 9.249086953780134 0.7437229677510859 5.105689085048008 0.5489454373328739 1.6994320838174668 0.5270350104130279
Ni 2.207462575720456 0.6681822473593808 9.655169466981024 -0.08058145839849347 0.6874854745240225 -0.040962558455290746
Ni 4.966591784773254 8.332879186862874 12.884645876593556 -0.8867904496083695 -0.29400153272798396 -0.7728522701263013
Ni 2.4675277736282304 4.357591586668676 10.717459343339511 2.1738368696292882 2.058471213672074 0.14698482552439204
Ni 7.594040772248745 1.811672150131812 7.198133717193499 2.2034336094497986 0.4243639192043465 -0.41635339019504425
Ni 1.5771265902732876 2.3818143719829434 11.52527205424954 -0.02672353203777333 0.023882463044552417 -0.03941732545535792
Ni 6.537479624214044 8.061863777924174 1.1197595088417593 1.0192297732184188 -0.41155519747545244 0.44927096685867146
Ni 1.745443274454487 1.8040727221889632 0.30289320417911164 -0.23145816277812395 -1.413772752406591 -0.17021911346198426
Ni 2.5552497938649896 9.08649992355341 11.704533395677542 0.265769020244852 -0.8276841303645165 1.2391722220474592
Ni 9.269450828901045 0.64165644875302 11.834115212486706 0.694470647592604 0.27062917655063073 0.5813765612783858
P 1.805905470949845 4.623682640350865 7.845691987208834 0.5648999037796012 1.581443902635741 -0.7678432469474841
P 4.647628706231681 3.153882928271649 5.002998690966693 -0.3458938507219011 0.7190565644620842 -2.0185147278837947
P 5.150801547855636 4.2301600099461405 9.720793905819534 -0.5528954231195574 1.6065229570915558 1.3687542787143718
P 8.231652214898203 8.883897878714096 6.810010290587877 -1.105631180732799 -0.9259419229968506 -0.1929648917989322
P 8.514811898454463 2.8096038504320364 11.89980722236539 0.5683449249054082 -0.25265022347470684 -0.7671037976782982
P 8.596795008429876 8.42928362294664 13.412905161105098 0.42872322461430684 -0.40917641283063083 0.3567750164107791
P 3.217557063251988 8.963770550722431 0.4569912753724788 -1.560253641711371 -0.26581298610890997 0.3450991227347476
P 1.9786929513507718 8.758641534106749 5.793903831742241 1.060335027899161 -0.44228013736313504 -0.972774567079673
