# total energy = -381172.7638116397 ev
CRYSTAL
PRIMVEC
9.20952470243048 0.00000000000000 0.00000000000000

0.00000000000000 9.20952470243048 0.00000000000000

0.00000000000000 0.00000000000000 13.47907031502792

PRIMCOORD
 96 1
Ni 6.8392599200500035 4.163883862779891 6.104617076993247 -0.30090854426046243 1.017804096515486 -1.3391732226231452
Ni 3.7637852833187444 7.067757430753681 12.63033321201189 -0.03481093703159811 -0.5132315288710323 0.14272579313772193
Ni 4.69371701292673 0.11706871173317987 13.333401200550588 -2.127807438174052 -0.38788947842739646 1.0081097520458573
Ni 4.013519957364595 2.4719376625482465 10.665678258084183 -0.4818491579050089 0.8493585300141566 -1.42712706222631
Ni 8.812658396474268 6.789169316659682 1.9035276564570456 -0.9249669606780908 1.9698769122714335 -1.2528502337551843
Ni 4.046711083420621 4.9632521645032295 9.77522407591009 -1.050185855280301 -0.12990601566523435 1.0656068178210616
Ni 3.0078306797719065 2.172701794675776 12.655148275596229 -0.6892963024805162 -0.9864695480682624 0.5077296252161966
Ni 6.26035842372489 7.661808594770848 0.5075028162544845 0.19296643446082898 0.054993325516744 0.4060514940484039
Ni 5.192799560992252 8.109815120331731 8.926688886097047 1.2808199794952329 -0.6100181362744784 -0.18950932915016394
Ni 7.947110452176402 8.92471068024887 3.278837513352776 2.3903237558095607 0.5150588118877582 1.860675733253718
Ni 5.621024028071352 7.817900824383384 11.53897325433497 0.7955872498299718 0.08138338547449855 -0.6094548075718407
Ni 4.34323935110983 7.440816846479953 1.8865443724504096 0.05491439264969252 -0.24843824227588826 -0.2777776146699539
Ni 5.155473358465872 3.073172255623045 13.088230766813664 0.2345044058036155 0.4209294396015008 -0.19166417070963765
Ni 1.375792435976012 1.6094841184598216 10.482322152340611 0.8842504567953352 -2.0852340835882153 -1.066615461591234
Ni 7.876878618851416 8.985097531955129 12.06326871744033 -0.34935635534920484 0.18135893212888768 0.5486122223631714
Ni 8.738245439056763 3.487315359844303 4.6132386627177455 -0.25806290984984587 -0.15499818274717175 -1.6588724172275497
Ni 1.3284554803911144 6.761927543387283 6.847380878694899 0.2654998257438653 0.5975883951515579 -0.3290407837203043
Ni 5.519378506905881 1.4586044796762847 9.113469093024756 0.4142849377017898 -2.1179883952011007 0.2936662608757523
Ni 5.7765176385957515 6.338934086186047 5.111047533554202 0.13696857893897055 -0.12555185246159667 1.962015507245486
Ni 2.316738756805698 3.055259730601133 5.826678234371764 -0.04957961070034042 -0.7903527409039098 -2.144973665540693
Ni 4.263033602824057 5.17643423607506 0.705706517288713 -1.891441296571349 0.7025858205005706 -0.8753402987898988
Ni 6.965126490473894 8.411463883605611 5.374334022803005 -0.15030052016118634 0.5685722104248659 -1.2476337225512513
Ni 8.544108664012086 5.2367289925369915 8.22510363099204 -1.8911721020703622 1.3655267729160097 -2.452167014368603
Ni 3.1994256260731153 6.66941787045921 5.312923992932254 0.49827490756119996 0.8598293476384933 0.18449182133091452
P 2.379492456291203 0.6519293412679167 0.5469803636883799 -2.006567839934564 0.3289554230953496 -3.1290214915413403
Ni 6.0239959791555515 3.433402803814343 9.957096527267531 -0.44309697683747556 1.5261975805679262 0.1509144995961014
P 1.309750936267977 8.717496380509532 9.258732763809137 0.6053729241929832 -0.3435929705028663 1.158449095864779
Ni 6.8267441763457475 2.184489985949836 4.028665020294432 -1.429320213222887 -0.17880839779289207 -0.6523336092132379
P 3.485473454957731 3.513175704451772 3.8782523043996417 -0.48179825006241545 -0.228059164398904 0.32953546396853567
P 4.7314760631014545 8.142573398739412 4.403072710397675 0.9618160111856403 -0.6584744320036531 -1.8184551340216102
P 0.12058951292386205 7.400571224708357 13.05446588738547 0.3573936238313845 0.7425363927515792 0.8078493550267764
Ni 7.496064783552677 6.338114438511522 12.510949225836288 0.8994199654469219 -0.6564106074960889 -0.6623128319131368
Ni 5.899308227859066 2.6556032083127628 1.8353771756538855 1.0730244504413715 1.242826530970595 -0.2969701284380047
Ni 4.303951519879251 3.0451016251516894 7.833415189242979 0.12086447428825635 0.02567606460986546 0.735083793128276
Ni 8.662570776791956 4.407208707820472 0.23791793324604857 -0.19455460488355528 0.6943356646766364 0.41673468479386294
Ni 6.379465203215061 5.242291545294438 1.0902529728400905 1.9450367132993018 0.005801437173125492 0.876740007350903
Ni -0.003184653548882809 2.545309943704838 6.576491927026771 -0.5187887112438355 -0.6171421489137695 1.471131749942034
Ni 3.3541732651184533 0.3018016413794649 2.1025325861169333 1.8961780399253858 -1.458350796127282 2.333310314538995
Ni 4.277833308587662 4.701453013450333 6.1199831685094725 0.16715692959689277 0.31555920429410167 -0.7150114478584332
Ni 0.39762398024603796 1.0911260357563257 4.747476690851104 -0.24663281363603334 -0.82267639273728 -0.3131418531018607
Ni 3.4019614874005613 7.286492845558526 10.12675807017944 0.24717634484432913 -0.10067282983172986 0.39769720854643764
Ni 5.593855930994416 5.205959971406807 8.279019870831771 2.782900869520614 0.20403297668763568 -1.9772595778887496
Ni 1.081336311284196 2.5008279406941267 0.8200252650262411 -0.05291176039736694 -1.1011245511116972 2.2754946890821066
Ni 8.941711462351927 1.0680101294298483 8.575896258544542 -0.5876240848499945 -2.3133115028195643 -0.05565332769824609
Ni 0.7345544316222021 3.3272077775790407 11.909687925140634 -0.5565885557004285 -0.47850775223660175 0.9870076799599194
Ni 1.9616471232479353 3.7343240146580268 10.01281967580099 0.15853422092488825 1.9825383097891855 -0.39433369139084345
Ni 4.4687467500808395 1.4732199949512328 3.5022393941877517 0.9170765021864206 1.8451287866580548 0.30360923102107706
Ni 1.6245877385297112 5.2683637089638635 4.363957097273991 -0.1454082250658915 -1.1055437632253153 0.5165443952943491
Ni 0.8421400960468666 0.8653784890483008 12.568639528788607 -0.4752360234638654 -0.37662496125717077 0.43635914389300984
Ni 1.9925542872446116 2.4493282800655765 8.182078574746606 -1.0682722804683666 -1.4627435258783388 0.2616837944318848
Ni 5.842144709704308 1.2673318667302262 11.656686632778449 1.1961232133767852 0.46407152220661374 -0.8803066416562388
Ni 8.835700626605282 7.32309149565471 10.690479507381873 0.7162193521236052 0.19519403823976705 -0.63481051272781
Ni 0.6023931512484522 4.9136957135300126 2.290417935976586 1.1386084069897682 -1.7684155529657155 -0.39506157069580344
Ni 3.36485631346057 0.2663081342152245 8.813235833656208 -1.35892932220415 0.6010452433519067 -0.8714085678356607
Ni 3.7296916238682987 6.342295562604041 7.810905269624184 -0.7870745843732703 1.4133935146903012 -0.2048690994356859
Ni 2.9787193730396377 0.06849123320717597 4.561532708741899 -1.8079146395016026 0.18620031938158899 1.2316198636214983
P 7.577209903330601 4.15302583347355 2.6076068507784727 0.43047003210208445 -0.15849642570841735 -0.05549829017762055
Ni 3.6433062846880766 5.544253432399035 3.0832566848770258 0.20365579585387505 -0.6839638345240092 -0.26364014682730724
P 6.539959585506504 1.016851221205314 0.26397720358126775 -0.19074063045410375 0.892807859447043 -0.6013774298803448
Ni 6.018525521642433 0.3784525132341544 2.209462532401978 -0.6406515448896193 -1.3274795883353008 0.4004655153201942
P 7.024279265906151 7.008116550526482 6.998494439399031 -0.27046822549273425 -0.8887817690067855 0.9974111346814307
P 7.156537246286446 1.7184788401227138 5.9316806271930105 0.5841217281236908 -0.5167230869640584 2.669795984573118
P 2.116330295622243 4.109814744834574 0.27138902884483307 0.3814820322391559 2.9405408607660064 0.04408104947961441
Ni 7.0806507649596835 3.0249511856925926 7.989813175066685 0.33490032782487483 -1.269535150610033 0.19493975613711587
Ni 8.304614981135575 2.1404868782096336 13.344184632709025 -2.2060396796140784 -0.0995384591169705 -0.7277936872247659
Ni 6.772969763182281 0.06088692888296389 7.470882259943465 0.5876166286508268 0.7476276912315576 1.3052248907021584
Ni 4.565419128052565 8.509821604548549 6.4706680446261124 -0.3529394447147728 0.6985772135618098 1.1812660937592947
Ni 0.9458642068768331 5.5972542455101415 12.07642452309267 0.8146974882968615 1.1386091783207164 -0.07554903818090859
Ni 1.2675897334143462 2.780373845329143 3.2824633031219927 1.966457602177239 -0.18345900919102598 -0.07900485793999297
Ni 1.386438646220398 9.259071674308265 7.025951715543159 -0.0738251135112664 -0.0827715240712768 -0.8346885867068077
Ni 6.508334078604064 7.298953332116185 3.1475787663734462 -1.1031197271648552 -1.0273462316779662 -1.1423604178330324
Ni 3.2744924597253533 4.409124288902507 12.001750015181273 0.5252750902991277 1.3894735135395941 -0.4840579926308696
Ni 1.5959461175435181 6.127243957572339 9.48900955463324 -0.8023765048376633 0.030370384761741243 -0.8443921871478166
Ni 2.249896028472004 4.5893086344314025 7.428477004692365 -0.2718897884306092 1.6210386342092278 1.2734290863478004
Ni 1.789815816379643 8.209047746095791 11.736442035319454 -0.21865226926270728 -1.0706569786504594 -0.49532276691141147
Ni 6.769516191519959 6.373736879017822 9.983448660479715 -0.026895281728947226 -0.38962394461999994 0.022411534925980758
Ni 5.627222038014666 4.459399082781487 3.8504846672821267 0.6377353996840888 -0.8755084489366471 -0.7522109397268658
Ni 8.799986090854654 4.882521473324783 10.206499658433799 0.057390364994010845 -1.5679106440359964 3.930720510696005
Ni 8.460246734526468 5.7364101596906485 4.052819760976936 -1.2959709762040583 0.8389936418400648 0.45948698815972483
Ni 8.872593981483318 7.821050481739421 8.196662777638483 -1.0067213563387631 -0.8463585668455682 0.0329959953100464
Ni 2.191710253105198 7.354247316811073 3.108259622759796 -1.0230589171565219 0.09887614294262326 0.5647240403233694
Ni 0.1553094200357423 4.87584456811096 6.280545701281717 0.3824217704446059 0.017329492417383057 -1.3003037992514572
Ni 3.6474505706828637 3.0916465616353612 1.6303611893966707 -1.5254241927370116 -0.743857682666164 0.6368997911566708
Ni 8.062993898115073 1.9814752293518818 10.736268341909607 0.4025655923823325 -0.39095886138133956 -0.3726037559129196
Ni 8.16665630513134 9.114343997845879 1.0972070847393427 1.3103696681278918 -0.6919705068785695 -1.5454263468905514
Ni 7.090670727542634 3.8189042870494085 11.870599019637806 1.1129940488557735 0.7993749990071781 0.9624073649127359
Ni 4.849450071086384 2.49143422577261 5.522442515684694 0.16481491172727744 -0.5118922412343184 1.0238117361621464
Ni 8.320298801244736 1.9693094475760744 2.4157595635078035 1.3611350716062172 0.37250039756583586 -0.9564830290085012
P 6.986520215731428 8.979185017269232 9.964873970651082 0.3398964954878856 0.15846840068395934 -0.152803231978382
Ni 1.9965328017996071 6.5461483859253855 0.7926950803192873 -0.2555707395556115 -0.5715076389041059 -0.022598711236122372
P 9.103043911366761 3.0422098344797712 8.893624851478195 0.5097883075174381 2.5678872254517584 1.032482524463267
Ni 1.0734897964673997 0.10106071636398353 2.5012303969118426 -0.9591595473993997 0.9340061880622237 -0.22294806842458376
P 0.913830718042018 8.122837387879795 4.94909620449748 0.49381430068668497 -0.1851911613907843 0.026101325072742147
P 3.1226642399252316 1.2762466863812343 6.815759055602233 2.26917131796724 -0.47271994191023103 -1.0757863294572245
P 5.613997160929079 5.358267086477437 12.205729008987346 -2.1364586860911463 0.2039131632803198 0.16952928648381124
Ni 3.8267323828173394 0.18503500204768286 11.0702526664197 -0.48165066874095763 -0.0319644687217385 0.47036429719386086
