# total energy = -340866.54946940206 ev
CRYSTAL
PRIMVEC
9.30602939839361 0.00000000000000 0.00000000000000

0.00000000000000 9.30602939839361 0.00000000000000

0.00000000000000 0.00000000000000 13.62031469241558

PRIMCOORD
 96 1
Ni 0.31432696397781407 3.5792664242279115 6.043959941216145 1.8457497080715053 0.8521857150503066 0.36972129215880195
Ni 1.9512044949385894 9.025555001243069 10.754191843510574 -1.2052560289159888 -1.0280710256591328 -0.2769749162630004
Ni 1.425683707449251 7.305037669646251 3.618972459962727 -1.5316190086938137 -0.7273229182359344 -1.6615198821527255
Ni 3.0618046582180183 5.056719573351707 6.424702175972835 0.28120875183868993 0.09051157302801185 0.4648729350619864
Ni 2.328042850352754 9.211238206300084 2.410141572516514 0.2792020058213062 -0.47260424226797315 -0.07044102753038191
Ni 2.3591994368575846 9.069311951585277 5.056078387924531 -0.43474217711487717 -0.7525554675504782 -1.9033406191120963
Ni 6.728975836366071 1.2514283065224416 12.55945546264171 0.9695339486551882 0.8642138498594343 -0.11469974023844116
Ni 2.8421358337118856 2.5097523808465794 1.19198418238358 -0.3779295390012072 0.29452449511098955 -0.21954187095651223
Ni 2.842982682389287 1.849982812915577 3.573970362883856 0.4919973020826043 0.5566680027881123 0.05655372802532841
Ni 2.6150780218446905 7.685942759917826 7.092574503721567 0.8944345964171886 0.7758424631028767 0.08316567418590194
Ni 5.680809824478789 1.8023824724220854 4.401908257896742 0.17949282545442635 -2.692507824348337 -0.45049712595628866
Ni 6.6940782260336 3.9088022320900877 2.916354210161102 0.541585654533693 -0.13932036700059877 0.28557988432319203
Ni 8.549905225426189 5.7804587875294855 6.129768046707512 0.29808341610684147 -1.379016065651696 -0.0831114239091988
Ni 4.994164443577073 2.5567292173687974 2.2889212332656395 -0.741620051584897 -0.4992514125418563 -0.4802185642801214
Ni 1.259236065207493 3.9376788413865307 13.642106827758068 0.7968815431613631 1.7018172962201916 -0.8250628906915856
Ni 2.9514165372143437 7.706397412587365 12.679178461758584 -0.19516421344309615 -0.9882940028715108 -0.6926803884614006
Ni 7.49942201221283 8.216870350501342 7.993966750168124 0.14912861134027222 -0.4661250623015327 -0.7733770322815197
Ni 0.587099714777605 6.112488611276756 9.394816387501844 -2.6786320948075093 -1.3601217998503543 0.33173838515712545
Ni 6.56031335912188 9.069740028938687 10.223176776250492 -0.9049558076634867 2.5865040692219967 -1.6320810080663182
Ni 3.9642010252392095 0.588911598706067 6.465617995532511 0.48829311375813966 -0.6852483576633875 0.6455973189306687
Ni 3.9416245978614555 7.199795782912937 2.413574566770287 1.5101996624777732 -0.13188705065100512 1.3542460577958677
Ni 4.833830862665564 1.2403541315102702 0.38679673749863847 -0.03203671672057063 -0.3686761387237392 -0.778142314880647
Ni -0.16761275712539134 5.376781843262295 2.1159435501784696 0.45471913445743617 2.327365409809469 -0.81416295594963
Ni 0.44214341688299663 7.6794378453518535 5.8173181088641135 0.08989785070341291 0.465509797315037 -1.3375266881586578
P 8.83173832647123 8.152118997783118 2.1914405750702683 -0.8451226375559382 -0.32795886351003517 -0.6310150502411198
P 6.19629871225122 5.772139197226224 11.410759206717469 -0.23524025552837552 0.35184055522363916 -0.30634797010847886
P 2.3437048978699675 7.325073550991801 1.2066113994290677 -1.4866622414774655 -0.178392393301396 -1.5745631163555076
P 5.4312965636163275 3.648987196657479 5.117847158213007 -1.6233816805201076 1.9741452006294837 -1.0191207584443802
P 2.5854104000473783 0.1914296782250967 8.67823816296429 -0.1116540114335819 -0.9597282754186761 -0.7691275129765465
P 2.4883112890583083 1.7773120291592375 5.653847465434451 -0.9022754326178462 2.2775212325938323 -0.044309877660968854
P 0.3855264644825365 3.251629046367822 8.435320085153194 -0.0992381542677323 -0.5605408554799571 0.18530197593703573
P 2.469131562419582 6.027003425006333 8.405600349591118 0.7448329020952398 0.585395966850424 0.5333516966596751
Ni 3.6943913142073805 4.158147984422955 3.666125180441021 1.9106947454843224 0.3008499231083851 0.9303320816447461
Ni 0.16422629301872826 3.7036042833351535 10.847559236701425 -0.2765095465908077 0.02709402800331463 -0.5169627137786903
Ni 7.732044829674377 1.5564055027399797 2.512716351217484 -0.29813535239069944 0.30295205705305245 0.2886806347357028
Ni 2.5633085801701463 3.917652266070403 8.62732487599657 -1.379251835811586 0.5015178399785298 -0.5933303912061524
Ni 4.927886902033643 8.63926171993616 4.542878783389911 0.5423487579519627 0.23884391371923383 -0.6748716424147538
Ni 0.45009076600937825 1.286660933914105 4.236394941008952 0.9087461279438541 -0.4678253328220911 -0.3548292055383179
Ni 2.6970641410524445 3.55945388758849 11.453621847632224 0.8850711529244177 1.7180748957296348 0.6274489301564161
Ni 6.8100034345433595 3.9611765656770617 6.577318266684686 0.7304504081213227 -0.05893816909710495 1.269513553343478
Ni 7.636564967804734 6.879575310502176 0.5560715514787976 -0.6392479796738733 -0.40372490279775625 0.7602865176461486
Ni 4.877169041683783 5.58403642451949 7.846581578594376 -0.16836894762712293 -1.042931744821049 -0.04140684508156095
Ni 1.6382334194475598 1.875974553091202 9.789192885964699 -0.3953593044418804 0.8511284774303858 -0.5650829663246849
Ni 8.288759427786234 1.951790774792175 7.099330681081933 0.3681362070598692 1.0012575050107144 1.3003961018549475
Ni 5.828812916406159 6.942344478953515 9.427028277743132 1.8146421880334231 -1.3778557267950078 1.3866869519333926
Ni 1.614093579126911 4.079679544336714 3.1677314687167906 -2.2691692610847114 -0.22737062297231164 -0.4383466066366838
Ni 4.069656950649228 8.240135424056323 10.040759987520595 0.34909975925370845 1.0143842722006593 0.15103019923835925
Ni 7.553303922566166 9.040640074936118 4.094143905867317 -0.0004311740001476445 0.8925564055578693 0.03059689895025053
Ni 0.9613128392918253 0.6641108306563618 6.797367707794178 0.764356316840148 0.5553595683893339 0.6282241177595438
Ni 8.387533624071262 5.784218423415971 11.63383310738911 -0.0820791259899425 -0.24268077096682078 0.23925888976946535
Ni 8.330757538567687 6.75521883933609 3.8269817602060456 0.2930867342231985 -0.5411837911095841 0.7039590466990133
Ni 4.651665336730061 1.0078709044900538 8.629341492572316 -0.15968607514114433 0.3005961552263662 1.5845161138031614
Ni 6.837549281632457 7.2218789907313266 5.584165778328455 -0.7832202436241866 0.8224069411259772 0.6153174370002048
Ni 3.2910493869993815 5.107288537230814 1.1695873613736707 -0.05787810326370677 0.5509886930151477 0.7567067707146904
Ni 7.394114983273563 7.937010127693761 11.920376920527564 0.5630620792399141 -0.8029508892838946 1.9818574816720773
Ni 0.5104720073110344 6.66899847674133 13.541167118426541 1.5686223253910405 0.26021363764426153 -0.32726415143585574
P 1.0080384130196496 1.5737612476119958 1.9900646125989458 0.1178017762025326 0.7285444493478613 1.5132379350834648
P 7.11690697885125 5.774354032228659 7.790602089209322 0.19132324243045112 0.6003165927159985 0.629184167679968
P 8.28024441086511 0.030224122356747242 6.092707715137369 -0.6259474059102252 -0.15073683636765653 0.1171561721987337
P 3.8536360896765163 2.7624948339184736 9.765343393762016 0.8690436671479097 -0.4124671677667607 0.37779815562966546
P 8.469780312102833 3.2539183296056318 12.953858948589883 0.7370938815797693 -1.0762023339487208 -0.8736600828739985
P 5.940001355940125 5.638299882079128 1.8015458603770482 -0.8195866980683626 0.43250454603360994 -0.6244448532227698
P 1.3050868721696502 5.297159455527727 11.844511376870656 -0.28121723647912217 0.6567849601163721 0.28032994877816236
P 4.213332738895371 3.710090585842282 13.463068127708354 0.39275297716728486 -1.2003668191444874 -0.6204491017998154
Ni 4.362601450824131 4.966237049281673 10.203509413670053 0.16995891782206213 0.05225792886345194 -1.177784048747965
Ni 7.953221230946872 2.5048481033411893 4.929641088579688 -1.9950842647749962 0.27523633630533884 -1.5491004533080288
Ni 8.777958782441535 0.7741685876155561 9.084355148145928 -0.13304636106642892 -0.04699539491293196 0.04314645348048698
Ni 4.160251147072325 5.655274079744842 12.358555968876793 0.38859781734833077 -0.3378046459558634 0.7982943643484897
Ni 5.1290739521076985 7.430501558313553 0.20836944358194967 0.31041854063342667 0.19679994927430622 -0.24830068825675947
Ni 5.968580172295064 3.5161715447468023 11.711046164106321 -0.8105420713675913 0.4955587941816175 0.3486163918593867
Ni 1.4250043673014456 1.9539776917063432 12.362069925586537 -0.586329534408287 -0.681759884894155 0.855121914860495
Ni 6.208806015794378 1.0475238958571638 6.9197875942375475 0.6797693368266873 0.14648346040794125 -0.9840359989261053
Ni 5.337501093072064 8.181814537668696 7.536705688489101 -1.1297445288412349 1.600471094470521 1.1681406121209301
Ni 4.161553991191404 3.0294475939177503 6.94682347091432 0.3000901621242251 -0.5537351454120334 -0.9668312050120446
Ni 7.253752141501651 4.485878422577265 9.660549127043899 1.8504939076247098 1.8385202802026013 1.226829127101074
Ni 2.6788150173559173 0.3296456190093559 0.023220404613755685 -1.0461206840719919 0.7973096318377172 0.7710409279491753
Ni 2.3681890612792293 6.660790558791132 10.572714963752297 1.8080946167228924 -0.36168582344883515 0.5706602033021463
Ni 3.5041109306158997 1.2943849383343589 11.377771193622388 2.1045376690128337 -0.5019744678999742 0.36020203981445703
Ni 6.82205474264484 9.150795545204243 1.0430802668081625 1.0358452702879128 -0.09207094709533176 -1.0151633164585292
Ni 0.4803055823367035 8.053102844733118 8.06314498108239 1.2524285728367333 -0.12086755961204991 1.5674025940513263
Ni 6.367129494350737 7.475561352774841 2.7240218470820725 -0.17236701304292248 0.9150152487820177 -0.07175871790054093
Ni 9.028532930658105 0.9192784349956273 0.45874165096006253 -0.6293065521904452 0.03546836810993892 -0.824270219586961
Ni 8.74570408446491 1.410561409638513 11.29704324959249 -0.7341602528727421 0.006492549702879141 0.5220203308072557
Ni 6.903352215675366 4.279377629703251 0.3548872932135684 -0.5283074493675483 0.07473245581688419 0.10784800742393037
Ni 9.040761053318604 3.349063174416083 1.5098800086447282 -1.2545222221409686 -2.7475173478149975 0.27346253223436773
Ni 3.2788957125742595 6.929046162909488 4.761989246130724 0.04615850083393341 -1.4417939202098653 -0.5136236221031284
Ni 5.711715148189227 3.347723106179316 8.706527561804206 -1.380355610398726 -1.8819287290952236 -0.8598357753963966
Ni 5.463430283210466 5.701878675090181 4.032403053667108 0.24338113946795503 0.10124747138827725 0.893549622709074
P 0.6208796709764957 9.166857751986601 12.393832334606738 -0.06841756934244991 -1.040468113771905 0.9800320199730348
P 8.51180634097255 7.981576702595684 9.974837936301084 0.3894298263313229 -0.2523416910953525 -0.013045520330048502
P 5.316748647461021 9.101799300297452 12.08996348649336 -1.5598777464291909 -1.1778071886764168 0.34177674322973395
P 5.285982914191914 0.2651901980267515 2.3957311859565587 -0.5706555753164559 0.5014409639940074 1.3893665556480845
P 8.55150586248677 4.3610752619989235 3.9128168531827354 0.8960335654731924 0.17803423863102885 0.8107547015990295
P 4.702541399580094 6.891300907573886 6.18521616181257 0.3792338596349275 -1.0724726917029594 -1.8861119139386358
P 6.973910530752914 2.2823316338319266 10.113219524409054 0.7822581368212335 -1.1036588874977766 0.3166879185819062
P 1.6247955129622025 5.361240774127567 5.013106866465539 -1.4178471795862806 0.46225066694779093 -1.629227083557291
