# total energy = -381175.6454807282 ev
CRYSTAL
PRIMVEC
9.14086395754835 0.00000000000000 0.00000000000000
0.00000000000000 9.14086395754835 0.00000000000000
0.00000000000000 0.00000000000000 13.37857837456027
PRIMCOORD
 96 1
Ni 6.441255853030819 7.001673065005664 12.633404888779697 0.4419222398030841 -0.4331912876879894 -0.6277608049698801
Ni 3.555777693712032 1.5229592994034973 3.8182457114497557 -1.2913728153104147 1.686643673803547 2.404719362409601
Ni 2.898979214989029 7.94653672205771 1.1836577519188425 -1.8684360939254274 0.053972083341081244 0.5551806196093083
Ni 3.3185722809545695 3.5122306190925117 12.631477994713828 -0.9701116755355293 -1.670018920762672 1.087471479104637
Ni 3.965315809618489 0.7712713428865575 0.2562074401963912 -1.4571043253146907 -0.5434715587024962 0.4172900430767007
Ni 3.6327803294372285 6.646285425599214 10.214918830004969 -1.9681673857794943 0.7962102281259513 0.6005261376236432
Ni 1.7286195915665084 0.4740004007352397 9.149702905263911 -1.1378553308738275 0.25441348602271674 -0.2850463804172252
Ni 2.2358186951377337 4.3818466862478544 6.761707111413799 0.7941507744937614 -0.03399358333662533 -0.2975468268770811
Ni 1.5041656836567017 6.167861760924348 5.10691096318108 -0.4872050229002835 0.6081006075367914 -2.6299230596375804
Ni 5.186919114887574 6.69164239122937 8.739983800256391 1.7968267571185568 -0.3790554250755343 -1.1096009640138245
Ni 8.365233983381623 1.3282223393501262 2.707101517097914 -0.08461269104507363 -1.0119468664037605 0.9387976959135961
Ni 3.6750933874585883 8.807606081662833 8.86332147402658 2.0089846769061723 -1.7525464471439431 -0.48012626167663114
Ni 7.384848930029944 7.968712457369833 9.46787260406985 -0.889450770049352 -1.6111455434652318 -0.2917939835537039
Ni 4.304469275111364 -0.04559005765425209 2.537608880297425 1.8156174074624991 -0.6309739125905391 -0.35519121686342703
Ni 6.170923950260523 1.438415451133988 1.2467150859984601 -0.5157607230507891 -0.1337377307064987 0.3316733362471449
Ni 8.255050012461451 2.2979217230481073 11.629007700600559 0.6405155335323873 -0.13012661631647265 -1.1167049220484575
Ni 2.045798420748442 1.3832503387643815 2.2071447198283356 -0.6388530582282997 -1.3544193501489383 -1.5292163127895921
Ni 2.3592294958174445 3.898203588405954 1.4941866027662463 -1.2178325800294187 -0.32527694580249783 0.5060013296711803
Ni 0.9298909223277015 4.772463214315855 13.233232934554303 2.1944959406405364 -0.963528880111689 -0.6061180298891239
Ni 6.353613251970374 3.5009873567537184 10.802506345212194 -0.5977742859101189 0.5770218838541159 0.06322445517728466
Ni 8.541734920373292 4.143836877485666 9.937620675016467 -0.5906965531277311 0.2532397774295897 0.2003637553661646
Ni 3.62325554947217 5.82723661637737 5.504481860344491 1.7766942480347403 0.9113277726281014 0.9273493448673384
Ni -0.09591416861359435 6.2054855558726985 11.070037487347852 -1.2243585540733946 -0.7042333834063226 0.22734311216848588
Ni -0.04225181423463649 3.205956840292838 1.5386569046184642 1.1716545388114596 -0.2249486437943803 -1.0493810999908186
P 5.075071506775808 4.851403713143349 2.5172732008461134 -0.8746581851212097 0.3566343770678568 -0.52167271765985
Ni 5.788141142374917 2.256202821166602 3.3961517051786103 -0.7007227991499028 -0.7871933693393217 0.9360967520426653
P 4.592625862077308 8.076894579141879 6.713504594916923 -2.2250468168442 0.7946485400657862 0.32891917054077546
Ni 3.0627469288604234 0.9190498579912718 6.750870617509214 -1.7116661639898134 0.6009585971753715 0.37652983044020316
P 1.6356478669747494 2.039070745072546 13.645614773154744 0.9004988003333975 1.9759835393898033 -0.5977755714616995
P 2.08672206748891 2.5319643969688035 5.667981746909765 -0.10786703358732391 -0.0969375311590137 -0.6323584516428916
P 0.19376985667496077 1.8893068343743475 9.555355240015718 -0.5935031693385907 2.976917599622828 0.13597227646397228
Ni 3.794463926387286 3.1350420197852316 9.995724575062432 0.68148194864242 0.6456543974208494 0.5105066737407015
Ni 1.4816974407064958 3.257913509507228 10.951128562035503 -0.6889435471267877 -0.5303615036830994 -0.028648774084944206
Ni 0.4210373224285726 8.275827195628993 1.4735830960088157 0.4607725397403678 0.3637661030166316 0.35711363069712043
Ni 1.2618688098238675 7.050823489067201 12.7074815340377 1.0974113639261682 0.4938785782657172 0.9102679639050193
Ni 0.2625301756108165 4.180171810653716 5.589168306087565 0.049346925864244044 -0.3737615236664466 0.04214937967454031
Ni 5.2434005116285505 2.2103065445787324 12.601656841011327 0.5424140639722593 2.1214164470460433 -1.5175537888499995
Ni 2.538966298555401 5.270722553198187 11.498179089036352 -1.8308041425052664 0.3441807246855363 -0.5564278617528482
Ni 3.3114972524584507 5.713652244164491 0.2947032735407756 -0.03632583101422776 -0.24404602674546355 0.18050198344523108
Ni 8.035358494534174 4.653951916574025 12.519499672251296 -1.7144547824785439 0.23296508634095364 -1.1382145139854591
Ni 5.686092540138913 3.9962302106183247 8.42454447743468 -0.3525704914111283 -0.7288889771714737 0.13032870502494973
Ni 8.634670081510292 0.7073620803110249 7.894458479356242 0.7122930204860055 -0.8845867570888313 0.08189426367264606
Ni 4.610642504410447 3.32100375069613 6.229092750438689 -0.2122967593583247 0.25897976523716043 -0.25205578442381754
Ni 3.2572462264578523 3.904858137172329 4.048410830993121 0.35145308997723346 0.5680690455362023 -0.4439351564680548
Ni 7.3187879081417675 5.495304433199655 7.946473650098248 1.8844658936947802 0.837074570440481 1.0556800456256528
Ni 1.300123324366834 8.530665334444612 6.944164235185923 -0.05664525929787018 0.4791412720555426 -0.29060510545192536
Ni 4.8370891206046895 5.075162915412709 11.78394534014734 0.3327848241437688 1.278956958144565 -1.4725455995704253
Ni 7.055229385365817 4.005782413174454 2.118390589743177 -0.010600658333981744 -0.5488901586149064 0.945619603931436
Ni 6.65066389930676 2.0046828158704817 6.906169321171754 0.4898810270705498 1.9107703359172643 -1.9528155859137724
Ni 7.030549053402613 1.9690791517976372 9.12655823840064 0.31893891939961205 -0.5818349889720431 1.507791310146597
Ni 8.606964123665673 6.002960579955383 1.038142514663791 -0.6881375062857246 0.8362842133287016 0.3448245289171223
Ni 3.9870162200187282 7.804816771406777 12.575046872723147 -0.1993484267277728 -0.40304433179096394 -1.1777907336161844
Ni 1.0862179731553747 0.41320177407343983 4.255391063872979 -0.5730824395903937 1.5814151062803345 1.1102427113628814
Ni 6.469720502561714 9.006145641011274 7.531992155108198 -1.8550311333734308 -1.263968969376165 1.0367580119101694
Ni 5.014650397784409 6.991855777402524 1.274261078728503 1.0697979730842737 -0.3949067902854941 0.8257311204032037
Ni 8.842752702551174 9.281632990902773 10.55829354634992 -0.6734354241888596 -0.06651983809910479 1.5965293362139537
P 8.40355248397042 8.038274430051308 12.731897695040262 -0.5479388504452305 0.09629321270679546 0.27370601570374153
Ni 6.373421503586767 0.30421068586482325 12.261533529880934 1.0623554007632994 -0.5723167650689628 0.240421799729315
P 7.948520289478456 7.649266693992761 6.777561025397867 0.3092867410218286 0.3146929996390645 -0.07236858357039794
Ni 6.009148944673565 6.614356388729781 6.450240407951794 -0.7912983926466308 0.015206018316477039 0.17018543201057143
P 3.7226898646928124 4.819694057002476 8.488774584325732 -0.7205130944029527 -0.3932080624268325 0.38885055678908514
P 1.8653943349611097 8.275159912579618 10.922605410976992 1.480157607589728 -0.17082640802868 0.21781897472813455
P 6.860218199401744 4.124485669053776 6.2593819163621225 -0.2864805417605905 -0.47266980539858594 0.03300833660522057
Ni 4.678129501034275 1.6222747833961686 8.206405992248346 0.7656608945841846 0.8008035039235886 0.5757111354624924
Ni 1.668655525759612 6.006315276929641 2.1562383358519353 -1.201481135254589 0.1850618349017716 -0.41516605475516244
Ni 4.901715026893524 0.8019846448852116 5.490528331921589 2.223652507599835 0.15382293149214799 0.3201136564340036
Ni 5.281645885307827 8.238075428588981 10.68157728902434 -0.018961628704167347 -0.06002291752085147 -0.8788326282138736
Ni 2.8161172856384935 6.563971948070084 7.678032992025429 0.5667289865685401 1.9179902507044708 -0.06919301405589375
Ni 8.778172500580789 3.5462254911559024 7.687893241687914 -0.3527586961625344 -0.5976110208593772 0.5966725682055078
Ni 7.768426993056586 5.8836723087998966 5.243813678667342 1.937841738212759 0.7099993393558224 -0.6323270841843239
Ni 0.9807781104903526 0.37553958749759025 12.602941132359781 1.3993426930241901 -0.8739297915956175 -0.673970213646407
Ni 7.121811436484328 8.334575526565109 1.324807312675514 -0.2811755846079093 -0.8719834665025241 -0.13373721648586645
Ni 8.418726317695945 7.944425182545302 3.769400592235468 0.34871280822793493 -0.3725291939212423 -0.40256919192675833
Ni 7.100897140361435 6.2601387798756605 2.8380782106539 -1.2519747731287663 0.11019336772765538 -0.048807251310690136
Ni 5.55410760931791 7.8427513557205915 4.380079757296563 -0.2540982687751431 -1.260085575161359 -0.08010811830650075
Ni 7.355744420040743 0.14359291362102874 5.371673337705013 0.5241679732778779 0.793008433359202 -0.42096672059733947
Ni 0.5852300864615557 7.480700026684077 9.4224653636894 1.1690770078922705 -0.5615060476067039 -2.8191577949701188
Ni 5.666659063933811 5.197321417766879 4.601882814736247 -0.554132123740136 -1.3403104215513821 -0.9327476330647743
Ni -0.18676978326110086 1.8535843390735318 5.949694024974206 1.291371529758834 -0.247925821415844 -1.1265262790142534
Ni 0.4785379254709932 6.434445909581712 6.977169151711679 -0.9834055644309581 -1.6685616194908555 1.9257557535825027
Ni 5.924577673812985 4.875745833150019 0.32041195266911326 -0.5573498593464853 -0.3981391811798627 0.7402581382403639
Ni 1.0524973270026856 2.7933473941865152 3.691229754130679 -0.26175012889344595 0.04882833435661268 1.08944968587693
Ni 8.241320435198958 1.0873605811166343 0.2612367433986708 0.9013948297851057 -0.384289419780964 0.8774120937172631
Ni 7.581935092051665 3.098496846752309 4.357964351684794 0.8695509458016315 0.7601201672716135 1.0621270868025774
Ni 1.3681404910846866 5.073106221082442 8.828269004034247 -0.17358237350726233 0.5332030868969527 1.7067324741336218
Ni 1.9156416626654553 2.7805867484751694 8.508160528039646 0.26609760722886433 -0.6735156426074916 -0.4908598460440514
Ni 4.1236812730490495 2.659406318535837 1.7754573771144555 1.253373967469138 0.35900416285161396 -0.07269151412745546
Ni 9.131722826385532 4.839392618254589 3.4446896913729117 -0.5715068675731577 1.091606841429249 -1.5064569076058896
P 6.556988328210867 9.275600020867323 3.2002629963002898 -0.07796407538030443 0.6602014419970887 -0.07136045402085775
Ni 2.951749421071835 1.199080217136738 11.238688250602484 0.6752889324578305 -0.6097839087764854 0.2903953034339644
P 1.5200707864774332 7.7463883706998145 3.4363148320600647 0.3368124572459232 -1.217535103393658 -0.7334621983644529
Ni 3.5743793513213356 6.6367789273615365 3.3180750179698295 1.0974658713131875 -0.37748139572019507 -0.6626344769186137
P 7.261584383169274 2.960095029620874 0.06315422723473238 -1.1845370512010827 0.11986200116567099 0.8608752724045046
P 5.259927193180207 1.2416583602051106 10.322897110516726 -0.48261534664707206 0.5803368071599617 0.6717171559461721
P 6.627263288260167 5.7515319832961636 10.36770196798 0.4499510236448316 -0.0673446479932453 -0.1596199977898993
Ni 3.124383772722603 8.479394230006978 4.829332183677292 0.137563275100176 -1.0497276846969599 0.6497627631622681
