# total energy = -340867.06911744445 ev
CRYSTAL
PRIMVEC
9.29709698578767 0.00000000000000 0.00000000000000
0.00000000000000 9.29709698578767 0.00000000000000
0.00000000000000 0.00000000000000 13.60724120366497
PRIMCOORD
 96 1
Ni 0.9396018021845505 4.906161713656761 13.51439859616001 1.4193826423942006 0.7906134507644642 -0.33156355014215805
Ni 5.576101219946009 7.353464424755133 6.704315086577627 -0.4572863809639802 -3.5092400836870405 0.25022078809760784
Ni 0.6115769804322312 1.7367070000185647 1.8283912509132765 0.6493220760804237 2.1951549143807743 -0.5534932046045565
Ni 1.0767618729083361 7.072041301267775 10.126508590604551 1.131737648011864 0.3646125101773269 0.37249088448413914
Ni 3.099596327451081 2.455381888313783 2.3773615807487496 -0.3947394114696944 0.5662469047257991 -0.6864482915087597
Ni 8.2772890534822 3.928813698014706 12.708020473867247 -0.15940556778624804 -2.2700354657397486 0.6750287368179084
Ni 3.6110110343157187 1.2834642285242737 6.084151307438659 -0.23479082669578275 0.5606172172438474 0.6605326000842624
Ni 0.9507490213804984 3.396824515686655 9.131982329000568 0.1620733444263983 0.005143234763836303 1.122226108977003
Ni 3.1468813623389797 5.954539549696683 3.7655864269726567 -0.993509228523863 0.8099036664526439 -0.6562314016057472
Ni 8.599191736918812 5.960935952371256 9.26436741075101 -1.4314933096148057 -2.0830041658164324 2.065836138677578
Ni 6.658264706159471 1.009320731918006 9.294044673799705 1.7360841878228617 1.6549895372333756 -0.011732200835263664
Ni 8.28196549322829 0.9507211300897662 6.631271514988899 0.8374154987196674 1.2899152569282817 1.0642299920781928
Ni 8.232384075403443 6.691669175359673 7.2650146338756585 -1.1081639744569818 -0.18171477280640963 -2.229445203022212
Ni 2.338963640797804 7.129683302114211 0.9122144141049648 -1.0047043259087343 -0.45310396745151643 -2.078645888847736
Ni 7.047599233489504 3.9498437312267445 3.632575650600123 0.5818159628086496 0.07611468087639149 0.463640348206466
Ni 5.078920368451676 6.194906693226322 8.936963635072326 -0.6797901627622938 0.4420988745902644 -0.5211546403728509
Ni 3.3563170644466678 2.145974503125171 9.76590302243832 -0.07889455761437379 -1.9351824462130416 0.09196604608635128
Ni 6.5884435083599975 2.23548695218154 0.08694273147024699 1.1828784325517372 3.4761512715528715 -0.7338051835261684
Ni 4.848082749255521 -0.16891616464171655 10.600653095373513 -0.003762809476541907 0.8514601497381916 0.6690519504091832
Ni 0.11956531482025659 0.9233374608489449 10.737446860479016 2.074107634657751 0.0787991696870901 1.0769016740085906
Ni 8.225374064332764 6.054474044389964 2.7609635181236354 -1.149669035679304 -0.19307082124917718 -0.8299618706550996
Ni 5.726621218930493 3.5189046952212606 6.284993702871772 -0.10298656556657103 1.3657162632189963 1.3022159286725057
Ni 3.5765095076800533 5.002916601206578 1.4410881392582353 -0.014076275587408017 0.7827636157027422 2.310845043556943
Ni 1.030397250614598 3.6172958718273622 6.202031058589003 0.21711320691036157 -1.2500513308538084 0.5065240349438697
P 0.6713303519870907 7.109648058271619 12.507258963177257 -0.29784841727789996 0.18491142536683638 0.005319355330384388
P 4.128682687401268 6.400456208825331 13.212467936306995 -0.057197018036282146 -1.0922290483942803 -0.378576942777219
P 4.97461623821036 1.976423346764453 7.703617266864646 0.10127755329526429 0.47015578072748065 1.6507418177006155
P 2.673687020874293 0.3061478230117147 11.193397876303399 -0.2691374224964526 0.79311616258166 -1.2033372146267214
P 8.175383574243847 3.0565972542390214 5.759618475286005 -1.0004110978500191 0.6511336753678657 0.37665144361973196
P 3.04994982994786 8.051313815970348 2.5690742270155402 -0.2689044805500401 1.098882806265372 2.2138139242428583
P 1.395605811461324 5.396351148274236 2.0232602615812554 -0.5996491343353285 -0.011411070050419057 0.1314011121535221
P 6.544951689011671 4.2300768263095305 1.508199233308235 1.9342226534029332 1.0585766504471577 -0.07351555269064758
Ni 9.237576896293092 5.169343933005296 4.776509048688379 -1.2808215221571295 0.882156550380784 0.2153147202490421
Ni 8.069480343333886 2.8183219575142946 10.42464324578892 0.46697609744791835 0.11086596831464778 -1.049544107931244
Ni 6.492125584364985 1.8958175165485498 4.961921052378777 1.8941766932246409 0.8263484422722286 -1.428935319079642
Ni 9.199449501862247 2.754283553993286 4.002787909004197 -1.4686454931850708 -1.7810070164774812 -1.20285513278398
Ni 9.595440750580352 8.1125259020305 5.269104571986346 -3.4513923194406364 -0.5151554853666224 -0.34275067710722906
Ni 2.5911938799855148 8.662979118823232 8.98047962687262 1.2206769914567495 0.6234781184341263 1.0142125225094856
Ni 2.17129049801305 5.600636258693387 11.57710858971214 -0.0643110033732441 -1.0171782900060289 0.04979095538019812
Ni 1.6265642929173183 3.9878688575915713 3.7082456520661276 1.723702526329057 1.5057786505919422 -1.0528469470522321
Ni 0.8085452755826495 7.299132190408911 3.032618181886904 1.5910968523444728 0.023816899913939628 0.08316104620021161
Ni 3.5910966527329657 4.184660507900686 13.08359343835004 -0.2867150263688998 -0.7572096784930379 -0.8436619938500115
Ni 7.931083758720976 5.97073509251515 11.697614770739762 2.384793827130267 1.3797843112762884 -1.9685522799227386
Ni 3.188299929076217 4.786749800935532 5.876803733297119 -0.5155159540298347 -0.21462540749150136 0.06588117607384138
Ni 2.392115143836364 8.27417452601711 4.771392856258412 2.6606207458317535 0.07449154345067172 0.13027856851330466
Ni 8.312710992712026 3.8536094811039283 7.75709323858539 -0.5210926767866638 -0.0346039632271146 0.12039679062321845
Ni 4.607139185717419 1.953413031910432 12.426037665145865 -0.5433296338079933 0.053239318940114765 -1.2462602392424924
Ni 7.63331633886458 1.5560365157526304 2.286560554060556 -0.671674732744011 0.6280428549866733 0.6291348024992713
Ni 7.9194809817764025 6.903373369113575 0.10999209413129285 1.1195866144716267 1.263718801038572 1.877664811612547
Ni 1.8168944608734856 1.549612221787326 7.853419529967622 -1.1264897693493632 -1.3672977487735032 -0.2820973250912303
Ni 4.962892599005948 7.787006647895618 1.3381255801011345 -0.0882932252204544 -0.18737994151198697 -1.0227524416596967
Ni 5.430266957804526 2.712502400476531 2.1769273278700165 -1.1743876214719065 -2.0338089350387043 0.08784508193944225
Ni 1.846394149371186 2.927655817184309 11.758751550314935 -0.3796357230590365 -0.07322321826120938 -0.6535975635273259
Ni 2.425798525943886 0.5307628952455278 1.1787993709228208 1.3109458523463358 -2.3972798754124196 1.3828554940024442
Ni 1.1800805108771173 9.405687002632648 13.024620093225987 -1.0485395779261295 -0.49478900589512853 -1.7819277285195376
Ni 1.1266593920281462 1.097652449666714 5.4238872899043935 0.3948401987136168 0.19232854376651393 -0.6104678222173874
P 0.1485108963420782 4.495164950524762 11.04363652042683 1.253039209837539 0.07067936879343312 -1.2493936426651515
P 9.333355588667283 0.42205194106853156 3.410505193790773 0.367883724729431 0.8820557631368615 4.175446594227628
P 8.455077437705812 1.086179832078891 12.839030514984595 -0.6904607551022626 1.210932767585792 0.9864888313419721
P 7.163719973904341 7.880061290874969 1.9728318782278433 -0.9791563022363008 -1.0458280925322376 -0.8621525964550312
P 2.8700045192409616 5.588020098185546 9.329274163123477 -0.18446996695404358 -0.3141276140538977 0.7173642643613258
P 1.4865314192481216 6.221682332329182 5.857848812115551 -0.32265622035019914 0.7497002574898701 -1.8459340561681694
P 1.9728160731630953 2.448260312080175 0.22979913347122805 0.12864437534399137 1.2619231425907298 0.2629965997060374
P 6.289988103332209 3.3819770519202423 11.412066525353119 -0.9209593821805947 -1.7571140119099675 1.9776573275478007
Ni 2.9033996913442515 6.7226935877507294 7.413945758998102 1.9712059154955017 0.8712584154110415 0.1375769019469308
Ni 6.424238182722941 9.45077792264962 13.86264925224159 0.5809502723742446 -3.2057478378598017 0.00937835589110643
Ni 9.059611867228176 8.925928910748997 1.6409106431602432 -0.8076868613069832 -2.2616369572634083 -3.643937607203647
Ni 5.608706138811889 0.005379300272539984 5.611816947438213 -1.082876917755419 -0.14722599500092062 1.4987399985776058
Ni 9.027555477080028 3.919451521425616 1.554831611993002 -1.5496159594918668 -0.05543375548827228 1.1615267063488384
Ni 5.575766524457224 5.829196089146417 2.829829904070378 1.114968398973325 -1.1617061693494963 -0.8963508396032949
Ni 8.678458785179574 8.33305304075267 9.211680762557984 -1.22010646366526 1.3542923376527707 0.2501871066461949
Ni 6.454332885422927 5.189211829103495 13.226333626639635 -2.1082549699634208 -1.8967490819375075 1.8149635759285838
Ni 3.8905375500332906 7.01168454812341 10.818395753570925 -0.35664337592892126 -0.37932436246620477 0.156804125607659
Ni 5.985126998532937 7.150611067260232 12.333644045756865 -1.1814131608601202 2.9928424983832005 -0.8798803527520975
Ni 4.069794875568796 3.988910132445571 10.878254182320875 -0.5782189894860107 0.4464116430330054 -1.0411530556540713
Ni 4.554471131718216 3.95914082813746 4.034397108790937 -0.18496696119512016 -1.1381512648476915 0.0442186034987432
Ni 5.375944020555215 8.78836906485805 8.398184782870379 -0.8138536522393274 -0.044295736593581776 0.09070054911036637
Ni 7.012911764915624 6.591799760344766 4.9182423613825454 0.39539812809961583 -0.12164480409770664 -0.7758689454654379
Ni 3.0516976841670744 3.431009941027356 7.743077864992486 1.238441771639338 0.7075961292309686 0.6633024495199157
Ni 3.7494726986070046 8.489922956927174 12.715191324714482 0.05223350338341971 1.1628901623552683 1.2052997376697305
Ni 4.794503579759069 7.6990096256356955 3.688433538549393 0.27903385567455813 1.8547717090644573 2.306326586861299
Ni 6.805010083798204 -0.30147696152377124 3.6981211135303584 1.186879069070698 0.560672495961815 0.052186709305884316
Ni 1.00235720633188 5.535407826767807 7.772143379064457 0.25424739275849767 -1.4483098669515122 1.1358946076030307
Ni 0.8308332060067077 8.118317993405876 7.5290363810752305 0.9195110797698423 0.6871928829842681 -0.46699975159700213
Ni 4.635430251616727 1.1523937562770068 3.9040267079410476 -1.1654733497014123 0.00801824231878619 -1.5747572346441847
Ni 5.918541190458392 3.639237020536651 9.277879811401043 -0.20044243112289997 -1.0951091981555525 -2.1141016585521846
Ni 5.940835628850289 5.331299361189959 10.88192839501999 -0.1750939250557823 1.6063668911296658 -0.21504141198299737
Ni 8.113994843342391 8.636603254887532 11.768167650066106 -0.4106797368490347 -2.2364350040764838 0.2294763564614048
P 9.095842653889234 1.2336038977921064 8.72433716930488 -0.35309808177982416 0.975173663439469 -1.0906565617008377
P 2.8403653742896005 2.5441784609080265 4.56203153092601 0.1481420790572868 -0.4076774596876011 0.39842071697602355
P 6.548112701961314 5.211822368790355 7.812665705659501 0.8596709676837583 0.2502177027738142 -0.6606112758409978
P 3.790370627917242 8.660850083630677 6.981889211943948 -1.2371788457665145 -0.47092942566871154 -0.4277662600176762
P 4.402389220452732 0.9364872747194608 0.7189621685897594 2.095187595256501 0.4650002046684701 0.16801593516307836
P 4.914092137321601 5.827903792675827 5.164819035938851 0.7486651313571364 0.01672991116017119 -0.6030633022232
P 6.7625409451100555 8.083202858374102 10.075618141534676 -1.1676680433598856 -0.5819018376542366 0.9723701325524027
P 7.448945610028181 8.425345321785343 6.219516108748985 0.2292884088203148 -1.6439029404019108 -0.9596861093268311
