# total energy = -340873.53050340124 ev
CRYSTAL
PRIMVEC
9.23250701363927 0.00000000000000 0.00000000000000
0.00000000000000 9.23250701363927 0.00000000000000
0.00000000000000 0.00000000000000 13.51270725057060
PRIMCOORD
 96 1
Ni 6.379394682876361 0.47895200253725856 12.888055544556012 0.49629181569290004 -1.5091640221244074 -1.0028757573404274
Ni 0.3306880938162801 0.850998958535716 1.7407476727391815 0.2382674723904735 -0.9182604951921928 0.09831589956377906
Ni 8.488422448705695 4.954394137667901 9.501527613899693 -0.8413516005492802 -0.8995001838655542 0.7637238254624718
Ni 8.86485946184361 4.326759070586044 4.28010998181941 -0.513860677814599 -1.10976397195425 -1.2659798291586069
Ni 7.201521745120784 2.6762083762357682 3.321045450598879 0.9594603664692702 -0.7163754180854953 0.29782296335660324
Ni 7.178865172628193 7.377539493519831 13.446522514734854 0.2651223877997886 0.5268550331917378 -0.6861654701610184
Ni 0.15206123890280523 4.327765413863017 7.338778658843528 -0.45357190822687043 -0.2553989898644376 -1.3202889841241325
Ni 3.5825912985321033 4.70246671566083 7.7580240377827465 -0.6786316236778184 0.5818015646309463 0.7778558939884798
Ni 4.509461154145904 2.266765150114555 3.082140479896129 -0.9726033316091315 1.1865939337301112 -0.5369558690711655
Ni 8.018838671151418 5.8843199531411345 11.918829715990189 0.46054345444869715 -1.6970247599275547 -0.2831000553241318
Ni 1.0164159422501688 0.27438364909498003 11.882345617571698 0.4703280446392868 -0.30099724731952676 1.1004588925032401
Ni 4.903430698320262 7.527364619196187 12.018647890057387 0.4679135216605232 -0.18815847154922435 0.13445738248134265
Ni 5.711985975086237 1.8168004502076918 5.135450065206804 -0.21160564682857105 -0.6697710879633948 0.17386648040658442
Ni 0.903364815716128 2.226917649349263 13.250047377041152 0.343830283324653 0.15381007597634155 -0.0023903546090474964
Ni 2.6111745960247594 8.006347089006969 10.996411775313605 0.6167891364497249 -0.32972264027867726 -0.16324936701237044
Ni 0.3330377668804059 7.687687105477301 7.982969457707665 -0.3002940506049151 -0.6582517744698857 -0.3910624768387394
Ni 3.866555520274012 5.856086946343113 5.534426397996782 0.07626251930816544 -0.5732696159005353 -0.6730806119526022
Ni 9.093622523466038 9.04854019115906 9.972648603890818 0.007525361842767684 -0.3025597067106402 -0.023425063792159657
Ni 7.897440434922775 1.5255794778630216 6.196603043997357 0.5755784665393701 -1.0128578082538042 0.5118284778759186
Ni 1.4731849999105122 4.61554266104887 13.430725695038511 0.5691867040804133 0.35303791796585005 -0.9081239209788232
Ni 6.967680804577848 8.421099006726894 10.981398795472444 0.4936219821702208 0.41897205876481397 -0.2684776774252666
Ni 1.5518736581641221 4.344550111822077 9.210747955395751 1.2154365689934166 -2.7630221283188154 0.6377492836411597
Ni 5.767713388112026 6.261883332148689 2.8662881562417697 0.7266261492792261 -0.34559406009329513 -0.8358466115706508
Ni 5.721827827684893 4.870969203257526 6.790148925009778 0.7031908010744212 -0.4498353240025737 -0.09143177084943607
P 3.370003589398274 0.2140861450407353 4.631413340802238 -0.43355149924088565 0.2889750260476701 -1.361570873592055
P 2.242345168760478 0.4944672307661911 9.539768658424679 -0.7964850790538928 0.1709271952726024 0.03812560322712789
P 5.51719853969557 1.5115368345210363 11.35133612359211 0.1891537455829581 2.055213625966725 -0.9409121711534376
P 8.342862741322566 6.149846858148037 2.8270472311948 -0.9728653270212665 -0.10260012876142975 0.7173478093010935
P 7.60045837813011 3.543279283180247 5.960523220475834 -0.51790579441825 2.5298994333540747 -1.2382229707603127
P 5.23574555989253 7.2772652336005 0.7162154334726158 -0.40918232636790175 -0.30606437742978904 1.5768298009024975
P 4.981417686032129 7.993975529455187 9.962905539118433 -0.6145317078741158 0.8883022582672055 -0.6833143738654683
P 8.425789120348018 9.260758600007762 -0.11200139047356504 1.5187328967597649 -0.2830193226848674 0.37707876096513765
Ni 3.4687729506557097 0.8939347329353892 11.6559396150191 0.7061809940509967 -0.5373469338619972 0.4852651255650933
Ni 7.34730303267499 5.784128785785958 5.181866494793806 -1.2146030173485276 0.8444407809975651 -0.27792005378508916
Ni 4.482853068602445 2.6278577364054088 7.131912334377041 0.04338273786100916 -0.9406769152141801 0.9830813483223196
Ni 7.640998316930017 6.256260735307618 7.67169086362699 -0.3861424138293027 0.09487216398955274 -0.3015132677239969
Ni 2.8537679533252236 7.695820944257242 8.499371278909024 0.428039825394037 0.6027156890757942 0.5549497345454248
Ni 5.223318605297979 6.977310309512557 8.111705690601797 -0.35104068503016317 -0.831688109317587 -1.1539275538453417
Ni 6.828648479734354 1.5269366564108664 9.655005119395964 0.49147896768528904 -0.5600253492961194 -0.35461014754897635
Ni 6.795928474472029 3.578381275281646 10.985438940591743 -0.4607889948006 0.6806352843714084 -0.0955283095163129
Ni 9.398969231716848 6.531444842770612 5.400502419347316 -0.5425729581476268 2.978941314921076 0.27425366067709545
Ni 2.5494368208585163 2.874956557184432 1.4046862597742915 0.31463232160445814 0.8743985037019198 1.7315688164510112
Ni 7.383143625346646 1.7415555171128985 1.0752916402066715 0.49704797713263427 -0.4754216571121103 1.0382862756292375
Ni 3.274216327943246 8.164490703605829 0.05330849615820071 -0.04464823483699407 1.532615568279128 -0.4074982537972595
Ni 0.9955689411547035 2.459225993708918 5.792438042201333 -1.268129528511758 0.6446614373799607 0.009216376391945417
Ni 8.2788906994313 0.4122249805189386 3.9628450301168137 1.139248097456296 0.45806105434647565 -0.737701176146465
Ni 8.280220180457759 1.6822366588142426 11.899519927331568 -0.48109016825179723 0.6161921262956743 -0.9758632333073259
Ni 4.07388070034477 5.854268142438858 10.09365445856651 -2.370953064592433 -0.6199068561431001 0.17299359088332786
Ni 3.636416815089483 7.263795005700462 2.554779672733603 -1.0780974940889045 1.0811859032062414 -0.8291033793095464
Ni 7.248339788767864 3.39038896513733 8.096165534603617 0.2593029529045341 -0.9149345161427533 0.08045393168169371
Ni 3.5358563474491778 3.072264467021098 12.83415339818947 0.2871346304048217 0.7493906966692514 -0.6354214068389314
Ni 1.2968995088047477 5.097664183283239 2.427841932228043 -0.06550296679881623 0.9017429571531438 -0.16181520566900517
Ni 1.8294489849733195 2.4085764596036374 11.015491674544732 -1.4959259261675786 0.59915625385931 -1.1787780372301184
Ni 5.938644025083437 2.947043972841383 13.272181389630287 -0.2447523087838688 0.05944904729525245 -0.19526628623859918
Ni 5.806379127964908 4.278094525513326 4.290811380831702 -1.1990367874791543 -0.31113844951858677 0.2930545954336824
Ni 3.6198998598371412 4.94273348116499 3.1094086896992543 0.2995949676553614 -0.21088779482594 1.2441902440873411
P 1.6637070170079542 5.859964599336955 7.704607521291146 0.3308752658258818 0.9520928703606054 -0.8843445591710383
P 6.015920109746433 0.9268698556138009 7.166950622179256 -0.10598755717642391 0.14630348318665123 0.8315708670134322
P 2.7786522753302254 4.453733741120116 11.206237118314677 -1.1292472774898423 0.857029159185537 1.0034635115230977
P 5.681343283927757 7.048539102006585 5.883202819778623 0.09467110372234018 -2.5079072453537004 0.450073922375941
P 1.9224572617827607 6.903376392429967 0.9554121514006173 -1.3936872945106256 -2.089896264950575 0.1831399352887104
P 8.534474194261135 3.9055997929191504 12.976995978724771 -0.5707324513009784 -0.677825068616123 -0.0016825299087454893
P 4.656645782783596 4.041012974968394 1.5827296202372645 0.9928661956232255 -0.7165165716490498 -2.315911916556889
P 2.148875266594627 6.4107944396193535 4.006733599252117 0.6532741187496363 0.7000823373524265 1.2906531635355707
Ni 3.7233870322370843 5.748943701120405 13.285802107396515 -2.2391961117613888 -0.3040735722520053 0.6696808422424338
Ni 1.5053141247166324 4.861884416243382 5.3294121144602125 3.406240919714979 -1.4351643307084896 1.2987084297398794
Ni 2.213687466634559 7.539246855870175 6.199265699053129 0.05176504838743344 -1.1706196697890419 -0.843762523983618
Ni 5.008025771575588 0.6886305486749934 0.9538056951603112 -2.0958262572817645 -0.055628387997581616 2.38968226557082
Ni 2.314469514445941 3.0602806727687 3.8877136568596975 -0.6262914195132052 -0.5786882158129453 -0.5661227204431089
Ni 1.3361468966067065 6.257525588784181 10.048373627356277 -0.4749938255460722 2.426863759717124 1.4714415678729689
Ni 5.42484577089223 8.18449754655263 3.9214557006611135 -0.840941509595055 1.001752699479578 0.38587296221799994
Ni 7.058150141927036 8.560934559690542 5.5399400512537404 1.2022092716698651 0.005742301800415918 1.884897067694928
Ni 8.783881141822208 5.734550222507547 0.7214327232507591 -0.42851419392729423 -0.2303258489458936 0.8585864763703277
Ni 7.2614037863542595 8.355769786287784 2.0859428050059954 -0.05186403585914293 0.13289595153149372 0.3552848050184978
Ni 6.97913834592394 8.599258696779682 8.419294974834045 0.3568542063881467 0.3734648183616342 -0.15408621245586368
Ni 3.9915636667897787 3.0333309844614975 10.144868098857325 1.676904592138912 0.018794249888367632 -0.7944767903746124
Ni 0.22818602992691547 0.8404406633839118 7.935770111516192 0.21159716218813882 0.8079164608192859 -0.7107092209386534
Ni 6.82600798269569 4.476639591305169 1.8602947912886207 0.629360288246516 -0.4154267646157168 -1.1172785351637404
Ni 1.0108579729589953 7.766200346095476 2.78491468491528 -0.8975798269143895 0.04920860051416687 -0.3112747179861349
Ni 2.109184718450514 2.448230077719237 8.117043002972608 0.5267601594850864 -1.523345198720796 -0.004209152985341138
Ni 9.230614464234202 3.2238530015589397 1.7165326530433502 -0.7035011332259883 1.146868333005715 0.08742650634478491
Ni 4.42394044061743 0.7353738090143342 8.928657009350154 -0.020612791154345146 -0.7433786861472166 -0.125332537361939
Ni 2.106562686426107 0.5813515855975002 6.336702646664872 0.5471634057317868 0.44436195959282826 0.7155318391382773
Ni 4.508122440612316 8.74284264763738 6.194833172380882 -0.2681568037507382 0.6462310958599258 1.8962700854185601
Ni 5.7984114743132755 5.281963490576277 12.909715929529472 1.9819284441193286 0.08860330026170547 -0.17426937227195796
Ni 6.221094115656321 6.233484140222359 10.292994443222092 2.636253115620666 -1.466267222760881 -0.47054504574609934
Ni 2.635160649543811 0.5657523415537012 2.644383000914165 0.24660735971473657 -0.15662389127605283 -0.4358253828767268
Ni 0.6667430440261803 7.254968728885908 12.734456169965648 0.3843356996378671 0.5171406341174514 -0.28636844166275843
P 5.621396615144384 4.3891892837869015 9.036272035687114 -0.9848081012054395 0.7739817557450542 0.4200231257371476
P 9.115023474989195 2.637385683761706 9.22216579696119 0.06373456204448379 0.4550958010705646 0.32593746220463216
P 8.469052648750742 6.939337007694288 10.126625588022723 0.12133909993182974 1.771464881315001 -0.7708406390129112
P 3.923658576861901 3.389493411945895 5.224499442959675 0.6688796864973771 0.9123500432450288 0.013899640800227674
P 0.23197320435090124 8.859966233065666 5.729428027552824 -0.6313642060504224 -0.20040489301674516 0.5876189426436718
P 0.3499627989478139 2.1623731920160485 3.5848403372685316 -0.5388764831326461 -0.275344579748429 0.2283988071265099
P 6.0340527537462085 0.8529977963289704 3.059601160244065 1.8169273845231741 -0.8656004457943158 -0.9815757103110708
P 2.8275937956167896 1.045092109390344 0.38808936038440994 -0.5385455821557886 0.10518485876947045 -0.4909007265843158
