# total energy = -340872.13121308904 ev
CRYSTAL
PRIMVEC
9.27106041268756 0.00000000000000 0.00000000000000
0.00000000000000 9.27106041268756 0.00000000000000
0.00000000000000 0.00000000000000 13.56913404711866
PRIMCOORD
 96 1
Ni 1.5220763302868523 5.012676901230367 4.349382598079212 -2.1703604810449137 -2.296821989804973 1.9908537716334167
Ni 9.156794515097102 0.2585958316761085 8.659712708714737 -0.9604813515346167 -0.1382145355309297 -0.5539459758712588
Ni 3.5927769268813323 1.2994689006141398 10.58918909745788 -0.21456215835373368 -1.5020718911643165 -0.2259295196504109
Ni 5.939764392480707 4.956688967875091 9.870771850880585 1.0282561450867451 -1.6497907666412557 0.757196051646283
Ni 6.861048199962145 8.8827605137533 -0.20310853557885372 0.3837757133693391 -1.7452792240585686 0.05419422665421634
Ni 4.253516125804516 6.029202311520009 11.337730800377498 -1.062314777333351 -1.5349686418923372 -0.7333156454842596
Ni 7.123196701958131 3.006447258196506 3.1967932521199747 0.12557473527973212 0.7806905352237974 -0.46167602539124364
Ni 3.818425264343502 4.941484428927806 8.921583078900712 -0.7692768940702172 -0.7519864824208855 0.4115690814325234
Ni 5.063204180049087 3.062954370930469 1.5134876199937033 -0.8077776212485767 -0.046707174248551815 0.46653181082164813
Ni 0.8786091167653707 5.169932626610756 8.419118494888593 0.05993421446178711 0.03370561978256131 -0.02107301862021532
Ni 3.389870500417754 4.0941558697283735 3.309362466691882 0.6110846298657798 0.9042125017395589 -2.3689671445106555
Ni 8.381186878639252 9.239186428282785 6.046405691075241 0.7130970044445396 -0.9535928519448997 0.1313219221761545
Ni 5.556860329638147 6.038556811396721 3.7365460407942748 0.5746855224114554 -0.14309988864768902 -0.02847265351839613
Ni 3.690623697643309 8.888527113280869 12.518190807911934 0.9312576787828091 0.19707377176098317 -0.2865571606347968
Ni 2.7627759794456037 5.394079052298865 13.158233291746143 -1.4961794369392811 -0.9476669733787679 0.22486122628689661
Ni 5.829160642699545 7.795005546919765 11.291283715211643 0.6316958783582282 1.1301990998801503 1.6314500593505386
Ni 9.282185606110533 0.0912522655466082 13.404852767683163 -0.6535086033579455 1.7468262568307142 -1.3296462569693164
Ni 6.082149337085826 4.088018427787458 5.398493931229778 0.2057916112499553 -0.0808262274194479 -0.40981070398052005
Ni 4.858304475613759 7.004592027108978 9.48088946092484 -1.414888354068273 0.8210681677098955 -3.775233304127556
Ni 9.333361859152612 5.434500875353841 0.07836271036465109 0.3023966987702147 -1.6456875431061595 1.2291032678472318
Ni 6.049255615021822 7.901279711525083 2.0460896398326134 -2.2093911125848145 0.4587920189752292 -0.9565311086376174
Ni -0.044116340597959415 2.894035651650271 7.955977113281906 0.6299945793964054 -0.7360518134685001 0.5487348639839646
Ni 3.305976675458011 7.922742216197622 1.0238662358618733 0.7015843758192497 -0.3153432316285537 0.5680883288099119
Ni 2.076281774915374 0.852279305417634 0.42304589987545793 0.327276749841346 -1.3528517485515024 1.1425565930042387
P 8.06254980602997 1.5857128884174383 12.137359754159991 -0.84455468086761 -0.060312937957444517 -0.5301455310175516
P 8.123034203647094 4.4109480013312465 9.521705304044 -0.2859552653847398 -0.21791539109668276 -0.26096748509115053
P 8.384644984143726 3.537465780930418 1.4295900866098274 0.2508591930125551 0.37619070193322957 -0.7954682077536043
P 2.9064032461354405 3.7980845579713423 1.2217931758202165 0.3934039804877225 -0.14819272978956413 -1.7442788078185123
P 7.816542220074973 5.10349620825939 3.9957843569515092 -0.3779796755128522 0.1267751833457365 -0.14629448432558678
P 1.8862992065569866 9.201749886655264 5.164466409438001 -0.6823149860666764 -2.164643118945162 -1.9179897364838392
P 8.723140667987813 7.381182497864281 13.17149090802335 -2.155515188501965 -0.5327030073320826 -0.06708676634616834
P 0.923512570385662 3.8148280929340226 11.55415814123176 0.23612111547143205 2.9561747106485217 -0.05203655688126522
Ni 3.1077428634026223 1.7048274715849454 2.7475325020449177 1.5287074914739736 -0.44427377075439617 -0.6356893157883375
Ni 2.7965504522413096 7.868052231289067 10.54019154359422 -0.03527450693157796 -0.4499229986203735 -1.3618575515945384
Ni 1.1066772009746386 2.797533184636683 13.354443231330684 -0.5026704655257342 0.9608438770803581 0.7323201143402097
Ni 7.468061604251479 7.124948932361202 5.095264433789089 -0.11532657518916267 -0.7691154287916883 0.3750563312184702
Ni 7.110736396869625 6.89224531798508 9.357804082616404 2.0467187011218364 0.367859813470031 0.6800979238106997
Ni 1.5191930305230688 7.366089211641002 12.729883418253769 0.7289982490558283 0.371478898279857 -2.0077199512611354
Ni 0.9541126321231055 7.783092234390947 1.330131078455819 -0.6799621695637837 -0.13771985528269828 2.4068937443531
Ni 2.7448828330015433 2.7314119823366627 7.659708327939766 0.8304789195008342 1.761876209185301 -1.0256696153064917
Ni 2.58919391681755 3.33096218305736 10.209633741607854 -0.1840681035299346 0.09728617274768407 -0.21880576412143607
Ni 5.880568672249968 5.543157702464923 7.40074165385031 -0.3290587814424333 0.5047759419045112 0.18150728478129385
Ni 3.5111081564016806 1.2322259000137405 5.617865760846025 1.2367764681217732 0.44051276105006715 -0.600205778169747
Ni 0.5496255408236684 1.886187953832982 10.717173304046645 -0.30445152441671436 -0.9748952129671017 0.338485731183288
Ni 4.341053477475407 5.721505090104504 1.5105023385662488 -1.0040985740039354 0.058987020057169375 1.945414922574327
Ni 3.0398138043375287 9.063648171924319 8.30355009229873 -1.4440948004288998 -0.057505550415636444 2.018083810993963
Ni 1.5525410345434238 2.1515627848250993 4.407431488146671 -0.9313114148388799 -0.05486734146184099 1.6885416621572078
Ni 6.536839220092304 4.942986340701868 1.7937582636239926 1.7775450260708097 0.28459746580526474 -0.5059704764332448
Ni 5.730562916050539 0.9098507358779068 2.6860644449263864 -1.0454475692643674 0.22560633198303726 0.24580568974904768
Ni 6.898642349615339 1.848046811620099 0.3582207918100903 -0.23082567140044763 1.9691238361554928 0.4898805128499175
Ni 3.0358179773336995 8.593151131048865 3.358577890473382 0.2854767830864245 0.4452099094154204 0.6682312542801007
Ni 3.3835847215114985 8.001564771154825 6.311886212155162 0.14623997693856747 0.9573780300189446 -0.5836758988355238
Ni 5.915594738190725 1.0743304714703241 11.715196459228302 -0.6391258522737122 0.3132439258973637 -0.9426792903561894
Ni 5.260622138795109 2.525177245213282 9.21216685004622 -1.6428827266675126 0.36519486504335813 0.43350444805303406
Ni 5.039757668465134 4.693131264708381 13.104635437744896 1.0883765074174094 -3.277416567149697 1.1536383047396972
Ni 8.037267624499943 0.5730303326361195 1.9409836288293423 0.8692403565397483 -0.9475579586047294 0.9564562895356238
P 8.237466901346078 7.159168416052926 7.556202501950094 0.4838358493177345 1.134333433763498 -0.5768205664765873
P 7.457909793186066 9.009171421403437 3.9042743559276243 -0.4456989332366969 -0.37439067261001324 -0.4412005311457112
P 7.297455551990546 1.2657407831201024 7.360929866565292 0.20035552783604849 -0.26533836046533654 0.25024649912922065
P 5.092287496315934 6.7034123611080725 5.76027388310198 1.0817500032398273 0.7543205298707009 0.3874423635876489
P 4.7184783436607445 3.5694509390817184 7.252946118434437 0.8955352856805351 0.8431410883495349 0.727205933042096
P 1.6701444348765362 1.507029399365241 8.853005045612258 -0.36316009400151655 -1.0299037079924973 1.816209532520543
P 4.626546509391675 6.699768834396925 13.241602374690997 0.7054294605969529 3.5533962093789637 0.35797160782204157
P 1.6849595892898048 0.08840141449399236 11.474955472800872 -0.05606830374847764 0.322082093014284 1.5883917947084836
Ni 3.499324638717535 3.7367194096225154 5.430720136949755 -0.6535841937908873 -0.6573989395512873 2.1430774769592444
Ni 6.958496315129772 3.343737704197212 7.637278851674422 -0.7907813438008962 0.05880498595335034 0.458097821121682
Ni 6.817807974565721 1.5483875995139216 4.973915525081158 -0.2668781941486307 0.6325893367067751 0.981603992445845
Ni 4.868020546843488 0.6483298846665129 7.502170762325231 1.4328963606099192 2.165203362324007 -0.34265966005531956
Ni 6.880878998015951 6.112651125583732 12.849698893582506 -0.11044019363113884 0.9650856830758476 0.90684633981798
Ni 3.0658098575132513 5.7321668094882705 6.907706665303608 0.0029688528203368225 -0.8771092177648636 0.623047715764927
Ni 8.015202500905712 9.013788409449624 10.75933252380816 -0.4545252732790753 0.16171596108697955 0.8858563678298743
Ni 0.28379457366313254 7.407169279979671 9.955538082617728 0.822544752255422 0.01814581767109133 -0.8963171581518822
Ni 1.0127242755528205 6.981877929291388 6.463141707287575 -0.7696245072176229 0.5026959194470311 0.22681346491726098
Ni 1.9452167949777142 5.6103821609446545 10.594834246095076 -0.25709386106835724 0.061045702358410996 0.8258954138952098
Ni 1.1648160203273346 3.006697576825516 2.3249622075645795 -1.0306588409909667 0.6272915786429455 -1.1643734317690142
Ni 0.33808312165923865 5.277875582076144 2.496679859959524 -0.9309954262603579 0.3350437953812746 -0.7028002505042219
Ni 8.355227909704864 5.171082238092136 6.774607614728732 0.1648874168364257 0.09819222950172121 -0.7144501760383244
Ni 3.3054296828983225 6.149763180099574 4.726577541968273 1.2801342662821178 1.448543323118557 -1.299409569571962
Ni 1.3409012692454902 1.031609425452588 6.732909166665804 -1.3113973380614576 0.9203580011511697 0.719462027430619
Ni 6.88070284786961 3.7263265509884262 11.851932546772092 0.2440195443829023 -0.5643859402576603 -0.19370819772285994
Ni 1.0180273220637028 7.289704945551565 4.012623383835628 -1.1891097581734296 1.3556725058297492 0.557624967384743
Ni 5.428993865515618 9.030365065326299 5.074232106316034 -0.5560046581725006 -1.8781299241744236 -0.1575003803437352
Ni 8.542178841334128 3.140905446216303 5.3566731051704455 -0.24926665171445456 0.22224410037902367 -0.5749878841432225
Ni 8.732300475597519 5.694674641498747 11.458305575547564 0.06782235896061223 -0.9021826157937236 -1.9140734321485677
Ni 3.8375421907516123 2.10925893652238 12.974453062751007 0.3962813020355175 1.8312173187832848 -1.3262094633736257
Ni 7.944176907689159 7.092796895123896 2.5637383664592823 1.6877587612445968 -0.6509999780034789 0.9816705840177222
Ni 7.387088163296855 2.012116766345766 9.928915305763446 1.396441460216995 0.6673467947926184 -0.7128648338290755
Ni 6.174795043000591 8.146545612653384 7.37443038462324 0.9800991257655444 -1.117193945869734 -0.46418336519412967
P 1.0580968448259978 3.809126390828791 6.278791308081916 1.2647858088505057 0.540145836763373 0.17441463960057058
P 4.854345732851265 2.6432998249250823 4.05499954640895 1.0394345303010681 -1.0835934842064692 -0.2683051564031444
P 5.226374841922383 -0.13315467693687766 9.618371868825495 -0.3522642730246191 1.164491188293801 0.2695428854649874
P 2.2215685614049443 6.978660871355591 8.477709741985574 0.09302791169196238 -0.18214748946845405 0.7956073044346298
P 4.546629969315094 3.5870195984140985 11.404449986069041 0.2961807997674899 -0.7077879335268004 -2.1444085370658423
P 2.5154333608025525 6.562872357509361 2.720204197499241 0.32850445160086006 -0.5041925585972156 -1.5180397273474824
P 4.189434556777912 0.8171725812519741 0.9480104202114575 1.5768267155787037 -1.5981162210850994 1.4185766015531376
P 0.9874235519021258 0.8103917277238984 2.4389841972907793 -0.10565794175114705 -0.5679163220084219 -0.6059727625605112
