# total energy = -381169.08393279667 ev
CRYSTAL
PRIMVEC
9.32254038732287 0.00000000000000 0.00000000000000

0.00000000000000 9.32254038732287 0.00000000000000

0.00000000000000 0.00000000000000 13.64448019366784

PRIMCOORD
 96 1
Ni 5.549792131588393 5.630823651702765 7.183627912182541 0.8992600428302899 0.4263876345025947 -0.9830011299036877
Ni 7.6685631512010985 6.603406988961383 5.406297727089495 -0.5439541547658696 0.20720623220929477 0.8211157331183793
Ni 7.259005311617049 2.2533418885555214 10.377036117499793 -0.15837044165351435 -0.39532665143173207 3.290675746152449
Ni 8.827578648980564 4.196373701348621 10.474130374516728 0.726300133398375 -1.7347983791319028 0.2970161511845917
Ni 7.065180376654107 6.77665707752621 2.8500320114354514 0.3318468857105317 0.882688511624854 -0.2482135278595919
Ni 8.07146469702518 3.1601360590576832 12.760726696505287 -0.706037526494597 0.46304565204526055 0.9112421548928307
Ni 3.4954118976901327 6.054728880777843 5.680483891520671 -0.5478406343044694 0.3850926324085497 0.1750687282448017
Ni 6.668879189348317 0.5919757142602984 12.125153190371213 -0.5538475026201816 0.6663232386241106 0.23633528836476722
Ni 3.654501047569533 8.147657818734194 13.151887435100647 1.8765412395310648 -0.5931393582412688 -1.5224144593764104
Ni 3.0451052345418956 4.133744875747109 11.16762482341088 -0.6357193976953245 -0.0031141201489494758 0.16447861143378123
Ni 8.390276929523024 9.345939856173315 2.577619926419572 -1.0875288147051336 0.27041114700255364 -0.35466722603915696
Ni 1.5576846103163926 5.8296454682558245 1.7612972803193812 -1.904139203753992 -1.2459105692125576 -0.06530422052444883
Ni 8.606131027167773 8.688355832437994 11.351825167788677 0.24501404708568772 -1.9283697941665823 0.004526427115443817
Ni 7.34915427612533 3.74024045052534 7.2061959176925345 -1.1130948360996957 0.4745379689555762 -1.4111443136448085
Ni 0.5634916246885715 0.6881684816321483 9.81979618832304 -1.0342797255730056 -0.7100281357112288 -0.7772061762196227
Ni 1.2114361417743003 0.2646286961360486 3.384335694761151 -0.5054382580788586 -0.2911440086745309 -0.4527237012939622
Ni -0.058479362922853224 1.3994344890621986 12.038879605857359 1.1880558629876186 0.15563915876528034 0.10940352483650836
Ni 1.4029677318283453 2.898051484164066 9.804309584409786 -0.17127146598589857 -0.145801089628936 0.36712190686274193
Ni 3.649289747552974 2.8099721235979613 9.34625029676464 1.6254622171982198 -0.7223907710416397 -0.8855023269245653
Ni 4.2540149679002965 3.563009637260923 5.7112650550174076 -0.2437279812844125 -0.10551910218043763 0.1696349588237401
Ni 9.262372605102765 5.080504776429932 7.600916934420853 0.9675806815835594 0.646747373374712 1.4830279871589878
Ni 4.617491490879959 6.731834303859632 3.8109304767070293 0.38776143748996444 0.6645504629944038 -0.948802886755424
Ni 6.883353551031615 9.006068005182792 7.553461475379183 -0.07196440615344381 -0.6794201810173847 -0.7128283241641853
Ni 6.267385347106527 1.3820572739801475 2.74326375436989 1.0705325372574532 -1.5786663398906038 0.3627250633466269
P 6.3548867101752675 0.6094023388058339 5.042535934377262 -0.06474963357255945 0.13231488221704307 -0.41423968628615115
Ni 8.545021775631913 2.606228005777024 8.718699768795595 1.6799670331143195 -0.7799377162181729 -1.2796503846671639
P 4.513862133126697 0.33778546647584456 11.532792455197347 1.1704690031437905 -0.6947771230894292 0.5175383837765023
Ni 2.173764684724841 4.35120245032003 6.653566916938302 -1.062342288137177 -0.7880300063080041 0.7247273895946164
P 1.0917626921990373 3.2877802805724063 12.038852570490544 -0.0841771461695518 0.1716779573956979 -1.1132377894354633
P 2.144165619335618 7.356864016936947 4.179536261348787 1.4251593969769778 0.48490285712966813 0.6562961934054117
P 7.910259330502202 7.104903720787487 12.978301735085738 0.1712519256018728 -0.14793947612817746 -0.2241112354947495
Ni 1.4253418285005142 8.726829956173844 12.699408620067153 -1.5220367643220172 0.5275631150023559 -0.3141160440896719
Ni 2.275389696317888 1.3960690520210932 7.836598210733255 0.5348658193113562 0.2373434179143074 0.8728527564813547
Ni 5.154730842139852 2.472076651146812 11.638591168073782 -1.1413237490384023 0.48363401771957354 -0.37692372344451214
Ni 0.632872766214939 1.179217442566377 0.9305321548173048 -0.4503055787707729 -2.302189167654158 0.2147105110061399
Ni 6.6770457346336585 4.371562878291703 9.37431766878585 -0.6703603848079617 1.0299191346114651 0.3200331809050553
Ni 6.0693652690175535 7.967611598305195 0.6194212728448255 0.26550985304619434 -1.0074908875149358 -0.20552061697675575
Ni 4.513312103250173 8.84686698482003 2.1298350104170933 0.21156168096451305 0.223518339105757 -0.02369400118283016
Ni 2.862644476180358 2.252614730413676 12.848556212991886 0.12672967481978176 -0.7227967482308069 0.1425347601728384
Ni 4.036557393327376 7.637593672390706 10.242106330756195 -0.3424362311906038 -0.5835781969153949 1.210338842755535
Ni 5.47525842204923 5.174839561523965 1.8478990182510944 -0.8510032647064311 0.4516165842727125 1.077254686472635
Ni 0.20716269334163906 6.706952443852124 3.6642114055252546 -0.7945706356399993 0.4369386705455636 0.40128004080168955
Ni 6.212289134051312 7.1149720642899625 9.37940684352474 0.0250559145273633 -0.9531213116251198 -0.9276239386849637
Ni 4.214860298724001 7.418691104074375 7.751538420963866 -0.030900032012966133 0.8052761949829615 0.7071937515862272
Ni 8.203238803883973 9.087491071988925 13.71188403943822 -0.37213015871061067 2.0263684196002587 -0.3739157898561238
Ni 4.598464186168336 0.409944725005673 9.119070244933635 -0.9839424107710346 -1.4423184252547676 0.21398854523845082
Ni 3.3322487977083415 9.301676434923541 4.0211099440833 1.4935810800844858 -0.529524609604101 -0.36960842073002154
Ni 0.4811829165558305 5.427592273597231 12.337256830061289 1.2571054094871124 0.10694529310400291 1.0762866661324109
Ni 0.1545528017791181 0.3609883369789117 7.359272961345317 -0.1074865103194536 -1.2294107717853213 2.8740719305094955
Ni 0.3816489507476035 7.580726176682277 6.578072053496264 1.0505000440866101 -2.112112138925982 0.6187678574426504
Ni 4.917490837092622 3.5391066439828225 0.2747044976707486 0.46192722217010124 -0.7561619539548138 -0.23314120690750167
Ni 2.306937172625646 8.438176141482026 8.89154805587435 -1.2422758006734476 -0.4561630659928144 -3.3438934678260086
Ni 2.66137083153364 0.38598672873992024 10.630387336659041 -0.322411965549877 1.6550692414313752 1.3802903043784294
Ni 3.926672611046187 5.229693388531898 8.996009916474623 -0.9876964784968281 0.014370152678742995 -1.8022157893446122
Ni 8.94103396418902 4.5394897963566105 5.413952464913461 -0.586253429754713 -1.1351762413797675 0.35208686690649044
Ni 3.462326202236163 6.791134982581159 1.66227978324267 1.6264333228622379 0.5417910856762798 -0.6608131074391587
P 2.2174128183161304 6.470122630577217 7.5702709477581775 -0.5239527719432783 -0.39481654456453297 0.45853362310751994
Ni 4.627942058533918 1.156274670937124 6.5298390945952365 0.3364298770955238 0.061147003822965666 -0.09115923391433976
P 5.1051442503901585 3.66201501503527 7.766915951155841 -0.5251743030552053 -1.3168336785856805 0.4904368995740198
Ni 1.4487041144423705 4.578131725817502 4.256354925510594 1.7857147063657954 0.2514762577712637 -0.9383258984835001
P 2.2861199401802486 8.651336024985834 0.9678959640057988 -0.7261918899552848 0.5161849550724014 2.0745377802166334
P 9.053342606943028 4.8721366786300795 2.4799252978086033 1.7142472944534282 -0.06162342923875193 -1.0875013039013077
P 5.059146836648291 4.619178870670652 4.028750698096845 0.7471998596655196 0.40243523745205534 0.0002997906286059353
Ni 1.3092855245539188 1.2498543302684701 5.73331472728783 -0.15334650607636172 -0.3293829975510714 -1.6069243062950325
Ni 6.9915229859012715 -0.11588104018933033 9.856376904128007 -0.4535845066323607 1.2024327005345807 -0.031265385772184864
Ni 3.016764712090482 8.626472810058887 6.08077139705022 -1.2388624041165244 -0.6791497009648174 1.2796136178919575
Ni 6.5949794125481995 2.905490871307562 5.037418792017531 -1.2847771643707682 -0.2403510943923796 -0.38470928092720197
Ni 7.934926772083269 3.0552947710680125 1.8305022258344552 -0.2515294796067023 -0.4084318213551224 -0.8794244961616016
Ni 1.3339809337558248 7.420546289590108 10.65627043749263 -0.4930802507341379 0.18467694075852711 0.8713676872953962
Ni 8.794474308446034 8.80204421115345 4.954037991752583 -1.1218139611402487 0.9052507131960862 -0.69357101859647
Ni 8.164764680148123 6.195750947594467 10.961197678497337 -1.505822102235368 2.0272878460907346 -0.5284149214796898
Ni 1.5124423223372112 5.379096419060305 9.623070078824938 0.08931163918263973 -0.06818154207224386 -0.8713975120920671
Ni 0.83022068914972 3.2879946989988476 0.49436498851184996 0.29588486579362594 2.201136842995822 0.27074770440636603
Ni 8.804887585938873 7.83961312025983 8.939972126851119 -0.11922076803724628 -0.47827455317987305 -0.10376381005222775
Ni 6.104520568413698 1.8361022757806933 8.537910541906275 0.4081672548398261 1.3003989300684249 -1.6991384638364477
Ni 0.8134559649640695 2.7268709995414144 2.8098490660662643 0.7253449685739572 0.2767568867149234 -0.5584220093647415
Ni 7.439797335268453 4.531742765383872 3.6545513892870454 -2.121083489186657 0.5977393189071254 0.6078396405659209
Ni 4.834100714287393 0.9050238201029764 0.16799776937103555 0.2790382265499324 0.5805175557122003 0.05909166395583372
Ni 2.8481292809642893 4.597951446452932 -0.11135401462932816 -1.0464166180458558 0.6076815177215019 0.636884107427387
Ni 2.6933098545331613 2.1305267429058747 4.298407040205936 1.0315399580443396 1.6451380983605925 -0.8264330315662348
Ni 2.743931248253943 3.7320925503205586 2.3081006256525987 0.20702856898084987 1.1479888197634036 -1.034397996318425
Ni 2.855522055406385 1.356793189821157 1.6853521381818162 0.6798518692381645 0.026321154393032092 0.5509969205452641
Ni -0.1353614203585653 7.571897731037049 1.248375775380051 1.2162590648947116 -1.8855097615782621 0.4926367354388161
Ni 7.921269250572966 1.455537536467662 6.307666179148655 -0.8597097913414935 0.6199675341777064 0.38750098473972616
Ni 6.073290058475463 7.550838112544371 11.713117419580719 -0.11964397161759395 0.37087417481632257 0.4224379058262273
Ni 8.6971003752207 1.9646228160817432 4.149300466458435 -1.3964345182384597 -0.6943829729748041 0.6166487542171186
Ni 4.672736864579655 5.96431888514172 13.163511710575866 0.7799616274775729 0.1324290391974042 0.46207788881535256
Ni 7.211665452074851 5.305746672136713 0.2937168863179241 0.2362455568644383 -0.24284892111356887 -0.3841025005811385
P 6.939354050493997 1.5675012452313069 0.5185504547604365 0.12346514513589703 -0.168349150132781 0.4315241843982116
Ni 5.410755765851424 8.09391337401959 5.763660528153486 0.1350389660164255 -0.1401534044248554 -0.5016798194776909
P 6.483714894305559 4.202237579184786 11.833407089068494 0.04966008622928867 0.7283570159274037 -0.2800895506325822
Ni 4.756145632465445 2.9329364298920892 2.7720265878959913 -0.2307577942769897 0.2119931120749768 0.029584141415020016
P 2.6697704403259834 6.2649894542545495 11.947570917338236 0.6860145464054508 0.013267149422551344 0.08152479614836927
P 7.507814589151846 6.335878050544204 7.809568437445219 0.4930578821366347 0.28103880191972885 -0.6944225679634879
P 0.37414523807617495 2.7687292053989303 6.885672999053296 0.6385985190153324 1.374497351845736 -0.0567370476807281
Ni 4.9502502436367894 5.3862468074551195 10.885429664625093 1.5884866684151353 0.6437713214655235 1.2994825889017427
