# total energy = -381165.3981954788 ev
CRYSTAL
PRIMVEC
9.24467850122255 0.00000000000000 0.00000000000000
0.00000000000000 9.24467850122255 0.00000000000000
0.00000000000000 0.00000000000000 13.53052145296086
PRIMCOORD
 96 1
Ni 2.037268225169159 1.9739606688282514 13.53688060263882 -2.4328721706947323 3.9774346269230922 -4.049068132099679
Ni 2.541805782829987 5.319563487460349 9.619483343476245 -0.40185339680665627 0.25455566802753576 1.0722955426951468
Ni 1.1601793805658336 1.4737958439579095 2.911524500370782 2.9445414972849675 0.19387094855296932 -1.5728422770096588
Ni 3.473234845916351 7.762404990116649 11.351985035698005 -0.19456463218588427 -0.3642957502678565 -0.5310425889105241
Ni 4.206652146551504 4.609821807705608 5.003153282315028 -0.12541069889804207 0.8677347185284993 -0.846154164144246
Ni 8.669622240986769 6.017046723916603 0.4616126678240728 0.3850990601664529 0.8885958782482245 2.653515759355856
Ni 1.7547878379681132 2.1148957880480426 6.755369250806792 0.5665747203788629 0.5212567131683539 -1.5913328796146786
Ni 7.144204113937793 6.581850338789226 2.3840508960858604 0.745625058979232 -0.5192180854717703 -0.6180114388926001
Ni 5.710853737122329 2.0822898080225785 10.478806689974965 -0.9033231571560701 0.37592484986635255 -1.1734275715514824
Ni 6.834784734450327 7.174147626640509 7.01638719308946 -0.004295542051560345 -0.49722306925791787 -0.02410974856401009
Ni 2.1422323014972338 3.153729522508335 4.197708844856967 1.50049966158119 0.6850097592900203 0.6558477930140835
Ni 0.6008541619968935 9.173651341346378 7.269800463081528 1.1685144505205811 0.5292261045270756 1.801877689278903
Ni 4.24385273164435 0.4561675523619241 12.415132273834784 0.382260048055761 0.7281395005999589 -0.15425179149945048
Ni 8.310105950311895 4.89343004564754 8.654419367680312 1.9911993278982936 -0.33312935196738114 -0.003491300982710116
Ni 7.213372796260028 4.473305644667323 13.112969581466249 -1.416114256055574 0.13574910470957266 -1.189070677405378
Ni 7.213807296135616 3.9738434153404842 10.857322643294676 -0.06308124473120104 1.0167933958627844 -0.4153601730438395
Ni 1.6439256569458938 7.707426888837534 9.271126303861402 -0.07547756151302486 -0.9259300959223086 2.5864727017634292
Ni 6.510509157089054 5.869612595919408 9.148485478339483 -2.0230532391840965 1.0471534962118805 -0.4583649587401396
Ni 5.855477482945511 8.224509474821174 8.826662514105728 0.03583397897947377 0.30499274163216505 1.1894715123882222
Ni 6.974157503053645 0.8827872642482629 1.1529287794504461 -1.521268518697425 1.3511285952128085 1.8148249934681906
Ni 5.387465648868638 1.1432708641307403 7.897467889741267 -1.549398444164422 -0.873716904253863 -0.7896240902680014
Ni 5.990292625194263 4.3795553630006845 3.296900929385671 0.8910494819950396 0.5165407957499233 -0.2622088136974194
Ni 5.172092380750339 3.6221388777479793 12.118611069377522 -0.22850165125296132 1.5920296485713872 1.2008650989371448
Ni 8.144210199941337 1.7422335649670977 11.244242009101809 0.3846416609140601 -0.7823383552398655 2.002359458280171
P 4.081238842036209 0.12316869664736779 6.056680508312739 -0.8650273468996651 -0.1097143712087078 0.3318404579526285
Ni 9.149679890763439 6.800163414576394 4.060929208489868 -0.368585635892462 1.7347965793596898 -4.1383116370485435
P 1.8197871704203499 5.716502235504966 0.036919546875444936 0.35536065256175575 -1.7061717165341455 0.3960738140104017
Ni 3.000480491920832 8.608154375608455 7.94337696170227 1.4180901488350222 2.2637588887024176 -2.682861816618141
P 8.403172125791437 8.605584355067746 5.453178670478223 -0.7748209638168979 -1.031510647468301 0.19486647969701923
P 4.937296043725461 6.808002901693375 3.6182098895112844 -0.7903185452318647 -0.7230510303334581 -0.19129058942030283
P 5.60314399136767 7.246034244354717 10.89129776016215 -1.786592738095375 -1.03154921401572 -0.36798528330430175
Ni 8.72434149127617 3.336949799833165 6.999203185243887 -0.40366525320441454 -0.7215109395398478 -1.347872550169356
Ni 3.4169070216194544 2.517797353534231 8.857728330742408 3.6819377405965037 1.3394131065480932 0.29201844085968415
Ni 3.7291552726373403 7.036697751103621 0.5310226362474322 -0.16498768985971585 0.06842785375509505 -0.19297723309410636
Ni 6.104787964750649 0.29621613007653036 5.489305023963766 0.6017546107141056 -0.8241781740937871 0.8348940178493944
Ni 8.216512828174723 2.5986975324973267 9.307321067965654 0.7764664698401208 0.24712543700173564 -2.7093200108096696
Ni 0.35051382303983125 1.1669095062983368 5.0330967950177445 -3.516864690111834 0.9011739720235512 0.8112614660321189
Ni 8.796838257751842 7.375533696636175 8.418148504481898 -0.9762072469103058 -0.5236447537845562 -0.6580481430995118
Ni 1.327175247642666 8.112168145286317 5.476045382015786 0.9007435693543518 -1.4908950486118904 -0.15418879947199896
Ni 6.462418341071911 3.274474264530617 1.1751363454320654 -0.15253480880834375 -1.785875657423692 1.4308189092556003
Ni 1.2333602532285997 1.745949925605101 10.7991421854857 0.641383023739005 0.8249988702228696 0.6496295800185135
Ni 3.9531908042327757 0.4136318634775567 9.899456573948369 0.012518701292301022 -0.32683709120076615 0.11119429818834399
Ni 7.373009899486487 4.76550218866076 5.14629325728647 -3.44806942571499 -1.3183688842832844 0.9080730131362298
Ni 3.7535519784176636 9.432899852220801 2.9042313737356555 0.1361404266107204 -0.3640741211753536 0.3928529930802589
Ni 3.5453895592984743 4.405523664075686 7.392982102278381 -0.18561102253702227 0.2726107257570337 -0.2185928767796816
Ni 3.4973264773159425 5.586078315403109 12.168552669971104 0.37945600294806264 -0.7766773002993462 -0.9871125809688999
Ni 1.559225915240959 4.751736862815022 2.136320329785784 -1.7885958845683325 -0.2955573072508781 -1.1589322061487846
Ni -0.14434640547706262 5.036925940729836 12.099005880310324 0.16735361898873113 -0.718042264264957 -2.902701678431046
Ni 7.745357803508495 0.7502389170951294 7.275672682676701 -0.5222152204268813 0.5616572284725875 -0.07688961136920307
Ni 2.7745960246845986 6.902437289547109 2.6750918553037986 1.4112402157927244 0.6259880293401735 0.2594945000900499
Ni 4.1612700212481295 2.4228637530574817 5.855035587327361 0.21010669368554136 -1.0211323895577704 0.8021147665358443
Ni 6.410269111323217 1.7611389318942525 12.641051870848193 -0.5291381727989597 0.3930923627845746 1.8331662149795396
Ni 1.4059953740098643 3.5911969397992327 8.51290275820149 -1.5987266009755885 1.3037825018286773 0.8251117416516499
Ni 1.053162985676473 6.967529068781386 12.000313393675835 1.1938094776419441 1.1373058861282608 -1.2749815184365847
Ni 0.014340344830025588 3.7757761848200495 4.463745722936579 -0.25020561858895624 -0.2817394275311793 -0.15493519071972026
Ni 1.811679587635453 3.842605963556676 11.670087941422475 -0.4644726142997742 1.2833471167924608 0.6863310492046051
P 7.403803922583969 2.5515958970480095 5.320173636221813 0.18352020144626457 -0.35850022663200193 -0.03624766947812467
Ni 7.72536156455327 7.211338967055151 10.569935180902952 2.4127062372698185 -0.9464084183813185 0.006630103722007936
P 5.451494290109457 5.290664623394685 6.65785546064331 0.7723048822632634 0.465213863341173 0.7529722433729226
Ni 9.047553930643987 5.856614578364601 5.858012373709045 1.2413334913648364 -0.14337705356847566 4.7159960941873225
P 2.039292809695832 0.13845107418637972 12.148960423453392 -0.29430132335658993 -0.9023754485308201 -0.5049446062718916
P 1.8188257238871353 1.4096562665786436 8.725616332400502 -2.4796119979534326 -3.250052573314448 0.6274414739572484
P 8.494287674169941 4.620693549273497 2.536255278036313 -0.6926423361346136 0.09680460512557522 -0.6729469145882153
Ni -0.103456269313005 3.517868152285203 0.352423773556775 0.5984558853581757 -1.0566562934959929 1.2428054479246726
Ni 5.5790800940026894 8.509134627365544 0.43712351526170956 -0.39020218572097315 -0.9565444783740558 -0.04477781843632288
Ni 8.407017911924298 9.072329668230674 3.162556341257502 -0.897352541394932 -0.6643157212757784 0.3773595254303501
Ni 2.6239262593160086 9.428185066336768 0.7839773702005821 0.8787264416533125 -4.132076968992742 1.5339926511323128
Ni 9.000627944080547 8.86000714391969 12.420476622304509 0.42540058799897706 0.5925616313609279 -0.04037840381704659
Ni 3.7879329366582932 4.901944394273412 2.454707047131117 1.3208008907635447 0.1105720912233128 2.394710572023347
Ni 6.753634949175725 6.7873225565510555 12.80571807901762 -0.43405980633587177 -0.17408039618960341 0.10053707558481396
Ni 1.8137411508749421 5.605177820572547 4.3442175805659415 1.1833474017683554 -0.22481674620220637 1.4719591309393358
Ni 4.666482440417848 1.4238745816563763 1.0771399830663353 0.9818395054954189 0.8690948321008193 -0.3331946579876778
Ni 8.511353350134502 2.2232156825641654 2.7398896537711885 -4.004437894984813 2.9261650516603086 0.39661528833616855
Ni 3.576054156901101 4.029709005727181 0.4770364889396057 -0.8131936500578254 -1.311433590616032 -1.401577753002296
Ni 4.897294321136807 4.466649476360452 9.6976489466266 -1.1588090503073591 -0.9289457428201808 0.6687071654752549
Ni 5.993232432863131 8.563770675551112 2.8844496113147633 -0.5167696239312778 0.2419212670929769 -0.013599335950989484
Ni 1.2187166829534832 7.556128485351073 0.8799741086707894 -0.5754972196794734 1.0260223706602198 0.5948296014594981
Ni 6.104621560542977 3.2757777641573793 7.818475812359474 0.47204168489628384 1.7724714682026441 -0.5242669607495875
Ni 1.4619256771439895 8.5498389454977 3.2176389074003215 -0.4734372796922299 -0.38827668656348613 -0.3264511686162571
Ni 4.061168645655352 6.683393884181825 8.342270034719208 0.7881518765978491 -1.3895958980500713 0.12183609417290632
Ni 5.524906279727323 5.349442287415638 1.0100966522631967 0.04392035553203404 1.0853410630251954 -0.8416382785517634
Ni 9.327233180349225 0.039859354544313 9.95579826526257 -1.3242520825369388 -0.5975475146112934 -1.0652844014846363
Ni 3.4647020079340702 2.451771861801351 11.276296081838495 0.4166464959554308 -0.7612792205767213 -0.24989605776833734
Ni 6.908122766642561 6.975229885725307 4.729188168207676 -1.087254220887508 1.2859884110700497 -0.6203655409470735
Ni -0.1644508071672745 0.920194005665058 1.0873544280139213 3.421668567123959 -1.0650216347415529 -2.3630384377310465
Ni 2.4322655907909376 0.88345288107895 4.731596406879815 3.7007595012886974 -0.6616870254036797 1.0254893809748855
Ni 3.706071311161983 7.025687339362671 5.741987964377719 0.5980141698350668 0.336634279796846 -0.14857428149869895
Ni 6.226780738330469 1.5411155906393472 3.652361579732456 1.2033076469403663 1.1580639446112186 -1.01618070197945
P 2.8401038144380553 2.2531314612322695 1.800533279124905 0.9201445995887831 1.4538701346481089 2.8334017064836425
Ni 1.7203329223018513 6.334915739282513 7.34846620332272 0.3919212252946089 -0.18044104830030858 -0.3915599853004482
P 0.31726718681483057 6.035961335521962 10.083363730863754 0.7448820101656204 -0.7101885725484931 -0.4058085247996624
Ni 4.347781404013579 2.6969037490582872 3.445695874014492 -1.037529599968871 -0.20811151763238353 -1.0348533386882888
P 7.929400857193481 8.294648848354827 0.6876265605551619 -0.08975078360258737 -1.8766944772794776 0.47700751354199133
P 1.4624526238016167 4.38895720073414 6.256932256292775 0.20427954548080302 -0.5022369775327415 0.15697741796072964
P 6.954133530063808 0.8334068156216631 9.40180445261387 1.1846049283245403 -1.2325272059271162 -0.4147305098796406
Ni 6.7447693027781 8.89362079386939 11.591745764918421 -1.1760228430824842 2.605233013090068 0.10913690143868301
