# total energy = -381168.8665568336 ev
CRYSTAL
PRIMVEC
9.21133658138138 0.00000000000000 0.00000000000000
0.00000000000000 9.21133658138138 0.00000000000000
0.00000000000000 0.00000000000000 13.48172218301937
PRIMCOORD
 96 1
Ni 1.67667507381872 4.325035595009416 4.61746236285457 1.6692915556783443 0.6639498532959275 -0.24612939163705355
Ni 3.169934018522557 9.06713286528674 12.372162184774778 4.485820397666049 -0.1628099654821067 0.457348087439851
Ni 7.227859282471639 2.926100734382336 6.297689327964306 1.0272809256576696 1.4480792389979449 -0.10757598470946635
Ni 7.453905476147775 8.446933589809385 13.577307109305798 2.482449724512544 -0.86568914885338 -0.9119232401202553
Ni 8.673394293620623 3.8463685023288767 2.892570548987043 1.1695608895072243 -0.4679528595388908 2.263994401751991
Ni 2.2899658470443582 2.9311761807032637 8.458634750356524 0.4071935780726471 -0.7614355436489274 0.43285524450480933
Ni 5.199504598695248 8.598027139722573 -0.06569709301291526 -1.7327813487018737 1.2906739894711772 1.9393782294619437
Ni 4.221214623170632 2.228682826403473 13.074533028301307 -1.6986851783491133 0.008943068125900728 0.7642951245849094
Ni 0.16200714120363296 3.0857608270876535 11.885284106884665 0.3391285069736095 0.33812860495418545 -0.9648712530721963
Ni 9.083307971892088 1.2504941755785486 7.63201587553334 -0.9101064986264906 1.7719006833008384 -1.3513270843768599
Ni 4.883638664410473 2.2555799285034857 2.3253005332278005 -0.5024511504260766 -1.3054048679234485 -1.6365719539581365
Ni 6.265099620008879 7.535904792207472 11.772616567629154 -2.565554206443207 -2.2423485413474413 -0.8367302997271846
Ni 2.943731232128715 6.459265378627432 4.146815580721456 -0.6948719967960807 0.23699066256057894 -1.7807738174207526
Ni 6.6282289210317265 3.2334369712203275 13.460973458188707 -0.43106858491803185 0.587977097314039 -3.3724041736711916
Ni 2.4414739070926506 1.4427900329209702 10.303096157795846 0.47673497660689507 0.3346023369684818 0.7187187215066912
Ni 1.0021197026248672 6.245949251767124 6.289546506643617 0.4485839680939758 -0.6051716068154546 -0.5180070958828046
Ni 6.454162298297498 2.0716019078721297 8.287807754611533 0.64827100910809 -1.9589525520494457 0.08470833608267347
Ni 6.608378491228462 4.583735975995328 4.184524028278588 -0.13877220780661262 -0.4401466359599 0.5656480947995355
Ni 3.7951258382938176 5.153641355080192 9.539302281316132 0.2366124532855538 -2.692735624088427 -1.414220895687603
Ni 9.23694385063391 1.1808380502085836 10.129140992231278 -0.2768484179874652 0.04423788677245284 0.37559729132360475
Ni 8.419014029376118 0.2738935591378856 2.83179507297825 0.5386836503955498 0.3094708320081767 -0.0844442837880094
Ni 4.530715524047494 7.258588300487269 9.760604636779423 0.13606483617777856 0.5203521990762134 0.351612241262917
Ni 4.790594956084366 2.7570266559420156 9.919971808989265 -0.93864934326119 -0.05415874543059059 0.8536407023292784
Ni 1.2740659852614025 5.320486290127293 2.411111500263177 1.0099192944507704 -0.43596807910217816 -1.319534108235979
P 3.3199590534208143 6.67672660683877 6.149026649710088 -0.8040862884399185 0.2633727520985335 1.771995042786858
Ni 1.2238918362412756 8.907638576635462 11.983619727935586 -5.395482609666268 -0.9590574746038968 -0.7202660113891531
P 1.8281002318399917 0.772881780908438 7.917734027125263 3.1609659056584207 2.3132495392333774 1.624630465325544
Ni 6.691372631612406 6.300157966102253 9.586569332588736 -0.05456729372291893 -0.08779751653095848 -0.7100448478817771
P 0.6584106619984101 6.963779481065724 10.395688510641506 -1.3848203310382992 -0.8172763047676311 0.8307118614472467
P 6.810668648495033 0.5443144444772421 9.948378649114687 -0.007179034246942475 0.6592015399776646 0.7927880898182798
P 8.859408019582153 7.376852647700306 1.9009093976376399 0.6015232114295899 0.49711713980767286 -0.4527630391723299
Ni 4.40603087540853 4.562623593114085 -0.06681903377859388 0.041204499262767744 0.6414437017736113 1.184909861159469
Ni 1.6562719638353198 9.122649589381526 2.8204706560872377 -0.7088857945766694 -1.4315367612582313 2.2607974920812484
Ni 2.1697394851918346 8.49345083830427 5.45927533696336 0.46360023899714997 0.2327300875120121 -1.306119634602286
Ni 8.761638895715873 4.8437535780772345 5.054351439584901 -0.7189339228412909 -0.2665352089869152 -0.011922976689831078
Ni 8.761519148343508 6.372688028408931 8.286930835392383 0.36411037372992777 -0.2880502002405555 0.7561529550937494
Ni 3.490267450930109 8.153552527519858 7.733695211674091 -0.05880241485018905 -0.38824429066365396 0.2016019986486399
Ni 8.066864641265331 8.3533003559578 11.160210082691735 2.9793241521817917 0.47885845070780103 -1.5985134565235182
Ni 5.169936209057906 6.110312324225106 7.775960507316454 -0.3724181222646747 -0.23630932022283818 -1.0123489869381854
Ni 5.916699245786691 1.352233385405481 12.111115676424184 -0.12313938636536213 -1.5594278033759659 -0.7866176993415098
Ni 4.4512309028074215 4.523613583732731 2.8261595774081174 0.6899095105844827 0.28511708575416056 0.7114031616818846
Ni 1.0550572525456803 2.3334341432121533 2.6535667684875888 0.7239313760558822 -1.4330028042807965 1.1052300886396385
Ni 4.194446479779319 8.794320717034655 2.5348602771304427 0.05109759000676361 -0.7449799691960654 0.6265045639652759
Ni 1.3797108016946384 3.1049296180020804 0.3724364352563578 2.131791876743096 0.044033226960814485 1.2830077311751709
Ni 1.90633211133842 6.303685907918795 8.66834279677417 0.6955718510765828 -0.7041166553228002 -0.5536672682885755
Ni 1.0744194815231554 8.229656588324758 7.460528426973086 -1.8709532039203263 -1.1336634042796667 0.2525694908354424
Ni 6.930305484822077 0.6774025952551933 6.103526332746654 -0.39311138894796815 -2.0650738065902563 0.683211529739017
Ni 7.588694960746915 7.048965919497545 4.704891761684116 -1.3019894144839963 0.3333952040342581 0.5218922898698237
Ni 4.109213984665819 1.1380421815932888 8.154189951994283 -0.36767109449799257 0.4449900800951304 0.061827317719441915
Ni 7.190405988931004 2.7068248729128817 10.774618938014477 -0.48320670037416785 0.06072971377988895 1.157681107350503
Ni 8.91218897678526 4.4769028971747975 0.5692817716149425 -1.2196979153729317 1.241511154593281 -0.19832255656641973
Ni 3.56186716826689 6.373959192823246 1.8426274303748995 1.168878004507587 0.0223966225276453 -1.027707728782443
Ni 8.528656565779013 3.2475487384864983 9.091372496853925 1.4335381079589764 1.3305163182790956 -1.8075068625402224
Ni 5.474030055505758 4.869941407279405 11.19670447611983 0.846312029878349 -0.06978591044488627 0.6691545374253185
Ni 2.84084060525983 6.429024561437588 11.102399735849378 -0.3256700674758585 -0.11290973821755391 1.6031985207040131
Ni 8.138547260629133 8.677963116443092 8.637200189757069 0.9001131348592045 -0.7121747497405863 1.2305921936879325
P 7.378105389441951 5.195184481953842 12.633964022704895 -0.7339895316228328 0.013945406436498565 0.415407224231691
Ni 8.149011338706398 1.1519697221327476 12.472089524744495 1.5730186546865232 0.34288566002319654 0.1075289335216148
P 5.669734107292359 9.005260319120373 4.238302573206843 0.6828168654037595 1.3472099768846928 -2.57325388908031
Ni 1.4605402780397116 2.2038306409699673 5.373072888133719 -0.4117799118917489 -2.7362363755845394 -0.4631112151758734
P 6.445706291541398 4.043776651337568 9.163499102629103 -0.29470138700848597 1.7883660279457136 -0.4331133832622025
P 1.981432136482737 1.6468579781003152 12.543178012914648 0.35152610930701395 0.2266293739309129 -0.9973923656283533
P 3.5319211138397866 2.8315095215518458 5.536808076033915 -0.1616180020565346 2.7869205322029678 0.5083770289922084
Ni 9.038890908081726 9.334860355881558 4.978597409560755 1.4850151927923458 -2.140575279362681 1.7755606486509292
Ni 0.4632638960601139 0.16876734094034512 0.817649796633189 0.11925342104739464 0.063077130966143 -0.9761866780850155
Ni 0.6718619764493174 3.540100780505818 6.928350839251658 -1.4547345395309335 1.7331690710585956 0.5971050277572363
Ni 7.377276369171745 5.135117357709259 6.921731572960881 -1.185651367311184 0.5596324847330749 0.12646407986322092
Ni -0.12908766740739105 6.649792659393414 12.80425215527425 0.44909227518896205 0.6187819985100376 0.26543966192989127
Ni 4.0381853701818455 0.8719303593917358 5.717557523279635 0.6847102257717305 -0.5379087199027381 0.5047602581752275
Ni 4.7281328843925206 0.2326940151095541 10.363736227160503 -0.5570099595085632 0.23143245174651111 0.13896838297781872
Ni 7.491939083877554 5.623023420734426 2.3060212062773457 0.6607046068857525 2.333646614832491 0.32682834945001776
Ni 8.432923147242905 5.30633767751578 10.792791983471025 0.4955611081744627 -0.5481846479074496 -0.4984942226608576
Ni 2.1664234041110113 5.716196087769231 13.201881595408532 0.06936836329149343 -1.3919392014712675 0.3995771991779699
Ni 6.765109378979052 3.4142923488339076 2.0414559674465433 -1.9582665817260143 0.9340529821397591 2.301077165536902
Ni 5.959587227765342 8.498120985826429 8.202953845421428 -1.4166670432352506 0.16560655439063737 -0.44491397544155636
Ni 4.784939195574295 5.478027775475418 5.25737297695652 0.7619934730349264 -1.2402621126775284 0.5366478509124435
Ni 5.090672659889887 8.064442059809062 5.870683093988463 0.4224777579252272 -2.7939332160753754 1.8334852888818554
Ni 8.396225183281791 2.1234156747599973 1.2600500158931218 0.5615811238190135 -0.4676217014517172 -0.8700296852102628
Ni 2.850457240394218 4.707748197081792 7.058908635938215 -0.01739994064400229 0.4493103047370391 -0.8817233194981072
Ni 6.558729388379466 8.45110632516942 2.05354953092158 -1.132801313389688 -0.2744608915918951 2.1831666316706464
Ni 6.194393402296654 2.0275809315241977 4.3461562680933605 -0.44954684622787744 0.08960371650176181 -1.0220844690583946
Ni 4.692383688073977 3.420417887497096 7.534705476216574 0.3975308581719024 0.47698051695879784 -0.6776597466828523
Ni 1.4081554082990357 4.39191910814236 10.07205926209307 -0.4581232750429788 0.4311804279055478 0.07038729147431103
Ni 2.93675825052265 0.9934702578057192 1.374030170576461 -0.4682151120613421 1.553609396921976 -2.51858040879683
Ni 5.441900914367112 6.824605400370827 3.2796309018098326 -0.1680179920456074 -0.7131746517600104 0.9013462359353573
Ni 1.8920361173455362 7.516616253920682 1.032939912870221 -1.5701405618077797 1.2041630529621261 -0.15513676520756509
Ni 0.5453967764966775 6.86692227949667 3.9279809422624776 0.15642977298737573 0.8801878566901873 -0.25802305775084594
Ni 3.138495727609083 1.5850591226246349 3.6864689148788337 0.026988612773701907 0.41764691219548716 0.22096677632849687
P 8.147500679547356 7.8245972843021665 6.677294946290678 -0.06736830214232914 -0.3545942067093764 -0.7860075765613367
Ni 2.157285758466075 8.268832401760156 9.879863808316706 0.925371138095045 2.459332164658474 -1.1313594387368386
P 8.414878139361424 2.0318549915839257 4.700753108268521 -0.19590186294006906 1.917726198409807 -0.6089038201643772
Ni 3.132250441573532 3.8465895744009315 11.584627931157268 -0.45438566237741745 -0.5849262263028572 -0.2321279351516389
P 4.433296430961968 6.730345795648418 12.782963835868996 -1.9464713888632996 -1.197122344065261 -0.5433874836291221
P 2.762424499034689 3.465304729460576 2.144119995441572 0.29950163661060675 -0.03701334399955561 -0.26600479040474184
P 6.522151171790716 1.1041997318962178 0.8360586522999274 -0.6271720223459457 0.8196448049998077 0.03848247234591437
Ni 6.129895625274636 6.3469239206782 0.6537838077570278 -0.24004204779239302 -0.228041166676775 -0.3214233763843626
