# total energy = -381167.3431751278 ev
CRYSTAL
PRIMVEC
9.29134287855237 0.00000000000000 0.00000000000000
0.00000000000000 9.29134287855237 0.00000000000000
0.00000000000000 0.00000000000000 13.59881948608601
PRIMCOORD
 96 1
Ni 8.568940747666648 4.256856503513926 4.039910156862266 -0.6800997235829126 -1.5611067337402855 -0.9017139036874212
Ni 6.924512470924136 3.5963349553961463 -0.331416617083026 1.1690142729751352 -1.2798434745145766 2.2689435182271507
Ni 1.9492493546592373 7.6257022257673555 4.976514660118204 0.1721528401495874 1.2494262956752997 -0.420395935695534
Ni 3.6418160776079413 2.480017302840812 0.21102404485435636 -1.5156907674993316 -0.25999612231681674 -0.33365051457817374
Ni 6.006648605768544 2.802677758622021 9.323350384004648 -0.9353814711431955 1.3634313238395617 -0.5229806378379961
Ni 0.5369736359293292 5.805379541549564 0.7992635929217452 -1.0450153668229551 0.40166030695924376 0.19524777429583792
Ni 3.980039532307385 0.7645130423222894 1.9894529942527894 0.1174212529346623 -1.7637181474900465 -0.30530384511468067
Ni 8.475590628185156 1.813382051267392 8.068723663212266 0.31661309947991284 -0.15471099052405612 0.093485053834039
Ni 6.088440295008674 4.911385135630355 3.3735267006743292 -1.6716266315694244 -0.344438092111981 0.9449950829735597
Ni 5.105221125739134 3.7703432203159633 1.3906556935461232 -0.6967591865164646 1.05796549922572 0.12820291693119854
Ni 6.021496171303671 6.566266172840338 10.880007063385372 -0.48502421319888084 0.8959757156520634 -0.22855050221302575
Ni 6.175249309273189 8.017834050451036 12.734111211165501 -0.7980961322947545 0.9359147179388463 0.506992747050172
Ni 3.2735165467900957 2.8524050244192685 8.8485070271597 3.701894129113773 0.37061603605892945 -0.6180075822378582
Ni 4.277408953428633 4.856779914948287 10.384901146516016 0.5161222201552659 0.12876778829573307 0.9002159789856562
Ni 3.2186790425420844 0.9383977323850241 4.3610459033166205 0.5848848315419604 -1.1958900143200564 1.2370767729710113
Ni 0.3083991739665234 0.5186427460393086 9.912206877223182 -0.4857397512086667 -1.0978127131296447 1.0936871209970453
Ni 6.9132885290177315 0.8414295640803907 9.878304626206551 -0.16141668467900586 -2.1871251020977622 -0.9550036162494973
Ni 8.80625092997747 7.802070491717161 5.544347632350299 -0.9320768322499948 -0.38613392918887046 1.142049057240201
Ni 3.141663103417759 6.7248972656946755 7.2581385692864195 -0.19661534406732592 -0.107721252038079 1.0770947638560031
Ni 7.515423279999879 5.4464642667958465 5.655095790920982 1.2245254186685621 1.9812748696957296 0.736365745164493
Ni 1.0764113359261902 3.9770384286353906 2.722103235267437 0.438081011680123 2.4270378234011427 -0.06477277350101103
Ni 7.582989923661611 3.9660096049243796 7.609082801191209 0.3575651164122423 1.4204943874011406 0.5661530594604121
Ni 1.3051827743529163 0.6471317942425152 0.2195785840209345 -0.6884236700675757 1.2500083934310149 0.2466616099914397
Ni 1.2913200911373905 2.3873361600292373 9.369396419848817 -0.6442544317495292 -0.8610447081028333 1.123902468238161
P 4.727416551402868 4.114875496666439 7.68981899390769 0.5324878059974829 0.4211497831424231 0.9502650731232473
Ni 3.4841419930452924 0.3194939662102628 12.839243682245927 2.5269287807615255 0.507776419293732 0.3397550848140149
P 4.651896518443221 3.6087667718454584 12.327003600418294 0.32695870438029495 1.4631505315087705 0.031542293582655354
Ni 7.2764220733289875 6.856880787863941 3.5722192755798616 -0.31625982990555207 0.7571232894268187 0.1735630902335527
P 6.591027600969947 8.111267792016267 5.209490431088513 -0.5355939557266324 0.48956786670550534 1.00462025083536
P 3.3605764273058307 0.8266117308417039 6.772048971312739 -2.5530756143602225 2.8865731483003 0.7010467581482249
P 7.54459809588242 5.179105882394537 1.859516354866621 1.3792988869994376 -1.7776015903403577 -0.12995538084593103
Ni 1.8088664587454444 8.428037536565142 12.135014729225901 -1.6919090359675442 -1.0875416702209397 -1.0894345163682786
Ni 4.519745752106477 0.4842768570250558 8.499153473114493 0.989789870690747 0.7758499193020444 -0.32302157410941784
Ni 7.840072083105566 0.16429230792351965 1.2511675539283458 -0.17816073690656412 -0.4748349313707048 -0.2570650647129508
Ni 3.335889329917324 0.9755166462228428 10.40546288777336 -0.4624638113998616 0.11586907795619401 0.6651976096600996
Ni 6.179114507810493 2.160107084480378 7.161600590145914 0.3326354430500981 0.9861733569840824 0.555425902850895
Ni 5.49236349942634 5.50596602504801 -0.20425530174275414 -0.5697847426757284 0.40436562170554874 -0.4670899973179633
Ni 8.156228599040348 2.497912428761122 10.795041451500186 1.7588579911842674 -0.364808685348533 0.12008594425101897
Ni 6.7356473491265545 2.67022037797823 4.540768343958654 0.6202251587144673 -0.6014453070038028 0.6604968617503205
Ni 7.60770489507803 6.891054346085592 8.119256488416205 1.1556267959246356 0.020501976608093723 0.544362960168514
Ni 2.41133569806255 5.085365526522259 9.051659446531353 -1.0270641816611732 0.6368478548728128 0.0361831347887764
Ni 0.21673078750246352 6.2261008275296055 3.8809129851080013 0.3729377422135707 0.5851774230817147 0.11310025696180522
Ni 7.876308319392798 0.8037187917165473 5.782870334875345 1.041843911073509 0.6803316370880605 -0.6677761690205531
Ni 6.798419659987205 9.102170901647227 7.576405149134236 -0.5897547580397521 -0.659242163407613 0.13895527035169616
Ni 6.7053204067569325 0.3372775960189199 3.409074448472104 0.594877423978298 1.0825874115394583 -0.3426403767816099
Ni 2.207251357024331 2.8894217334880716 4.885824652033899 -0.6931817535778513 2.8652430193639558 -0.15385224206818665
Ni 8.92151003539878 8.65791464476576 3.487335427509888 0.7234171554236252 1.3606686734927598 -0.17509546771767912
Ni 5.036279363367015 7.589066461746699 8.783490857052032 0.4923138048817585 0.4394138715589336 2.0283980484357778
Ni 5.769347714800361 1.568796747671212 0.7453719473542568 1.128970626789688 -0.9451516631560819 -0.4506395650714239
Ni 7.531153523085593 0.8321828198873 12.50528402468295 0.6613147296659255 0.6207614908339115 0.3497595043248944
Ni 2.106663281628029 6.412540908898733 2.714228822381942 1.4523675819606536 -0.6961331228966914 -0.38796789707381574
Ni 4.142312831475721 6.085318403882389 4.894296498251002 -0.44072204884739585 0.11177485328216234 -0.6443071393643355
Ni 5.589690313556791 6.57547389339435 7.002793890915723 0.38639155372563133 -0.8849307706918114 -2.904200888684392
Ni 6.672624172014683 4.061756890806413 11.182430974901557 -1.0037334773550328 2.278782358694443 -1.582308307518565
Ni 2.1968078878994977 2.1675122845626658 2.4234320970426393 1.0937457421491228 -0.7287542513658223 -0.9838421377477442
Ni 3.707979728531373 6.883974342995624 12.330865082418544 0.5734372518266511 0.3218409235377554 -0.16927731837400523
P 2.1470899134448875 5.648959788243011 5.74172083660127 -0.713431504965823 -1.427227078139284 -0.14799166952235157
Ni 0.04478334237970017 4.1379644831212525 9.337234437308238 -1.2030047709879668 2.011459106588594 -0.14632148090878025
P 4.9970141493798765 8.835527950629023 11.022536259448485 -0.05946730212769759 -0.13443629943542007 -0.40265866631677105
Ni 5.482542550258237 0.9057572456986018 5.587618344148573 -0.37384122786444646 -1.1673266008600671 -2.3104022995925697
P 3.4702700184871293 4.30820975427278 2.81672348128751 -1.0364168265206666 1.6584818666573502 -0.5251635044219278
P 8.404177368671395 3.1829259560720153 5.858058666902825 0.7108367476554531 -1.3317077674840354 0.2562294561855329
P 8.997903454566377 2.7056854328265287 13.085245915594365 -0.6088940499723642 -0.9066812749950256 0.4718635074472067
Ni 7.0560592999894265 7.022666214549346 1.128218004205767 1.2485202389212626 0.28410792776335586 -0.7961624056071515
Ni 7.064755996698363 3.049074874032562 2.3317349074164024 0.7515429671255637 -0.6126000380690417 -1.2194456901528095
Ni 9.222902607882174 8.801456597176388 7.683877180290847 -1.3213266813600277 -0.9888012815252325 0.802576022442979
Ni 4.8249756490992635 8.386375156177461 3.807886748512327 -0.5467934239868777 -1.0160475188356952 -0.5532355800677956
Ni 0.05288539315981978 4.615009888171346 11.963057992760499 1.5011061848169376 -0.4133765669549075 -0.1336945361733891
Ni 2.0591008986653776 9.093464913595653 8.285868844596372 1.0660822147955833 0.02045441119960993 -0.002435091804053871
Ni 0.7591361423378225 7.389014563413265 10.166980138021655 -0.6214389765169105 -1.1909432118377423 -0.5412524395639904
Ni 7.544300772918011 5.935384007736987 12.537404196181658 1.2298907967455333 0.8650589714685488 0.7530213514433031
Ni 7.964984893527502 8.354570890328437 10.928623084603144 -0.3669337021113358 -1.2823523569793593 -0.6452093394636307
Ni 3.1084093881172454 7.766261657191266 10.051512906525259 0.23735318810632025 -0.5572128195479887 0.11009540869721039
Ni 3.2676165442151235 5.114689003887004 0.2921123794568081 -0.4129135112755598 0.5989104563970912 0.7029570877970603
Ni 4.0856356413854344 8.481825119095086 6.059511699706033 1.0244421706572937 -3.8215311587528316 -0.37549753252094686
Ni 1.6500402476957141 3.282306156925409 7.286125022445591 -1.1418150868525239 0.6727371125702544 -1.3607416928225404
Ni 5.58448716167965 1.9025975232750851 11.455427346015453 -0.6893862910911611 -1.0365986035141697 0.9311201247636802
Ni 8.822835976585855 8.015585545532698 12.984601163007973 0.3792819392640435 0.10713066964193162 0.9297188735407794
Ni 0.4946283418577751 6.290638493491429 7.095877348863513 0.5853895390925209 -0.47094562361862763 0.34774813032182045
Ni 2.597469165124633 3.4541123736400783 11.368585812051707 -0.8310985553627042 -0.4329714583676995 0.23833689217582824
Ni -0.18713228639564122 2.0676117685215583 1.8749102513488485 0.11050807075459679 -0.07507621230954811 -1.3018780857171128
Ni 1.0020341381109865 0.7974350566906356 6.157341175473186 1.543748444967496 0.48830545505331385 0.08961400091440695
Ni 4.505567163241267 6.522466783645976 2.0984878292410714 0.8115180621276153 -0.4109759279332148 0.024198194512758328
Ni 0.6573030270280622 8.019887437173978 1.5590361922302538 -0.010601172554614 0.26054685261396415 0.04843238446977465
Ni 0.5608876936103749 1.7203850028061334 4.061804276653865 -2.1605928601351883 -0.6137770890962784 -0.2355608720925879
Ni 4.025427741092803 2.7837791676968333 6.089293240262819 -0.17364228021092032 -0.8086458827861428 0.9494914281820164
Ni 1.4362371622584063 3.807081189105634 0.36427823772422674 -0.6010426722487455 -2.387610984864088 -0.2975311431477973
Ni 6.132063148692918 5.31147034961195 8.96591893667018 -0.28999935354712636 -0.9202466723842861 -0.2932713394301788
P 1.8754482200875742 9.310204063306491 3.0512620560894885 -1.1299730999122735 -0.7897364474761496 -0.9857712364496571
Ni 2.917267887373414 7.791190329488354 0.8613139664594434 0.10919063749475388 0.43488744444348976 -0.36741269863028336
P 1.5704970633739206 1.4373985800881253 11.605830954964063 -0.16223403837397868 -0.8128547786611678 0.4604583509340586
Ni 5.615492372061828 4.359600170402185 5.688834514307186 -0.753412673344451 0.007474711110490353 0.6572320749561197
P 8.230485009401262 5.88689249051056 10.455302578816527 -0.47973648243738026 0.65816847072746 -1.1802327673987738
P 2.1925245789434937 5.707476664175572 11.324293981697544 -0.13263035657493286 0.3189360911861346 -0.8685291894053364
P 5.679816337142984 8.494823707445303 1.5483613686737405 -1.438228314345794 1.8242804824541357 0.738954846047908
Ni 4.609620909441451 2.7127003965180316 3.5094469647192095 0.20466572517562817 -0.4753735774829942 0.5833732799934405
