# total energy = -340890.5799514753 ev
CRYSTAL
PRIMVEC
9.05279131053173 0.00000000000000 0.00000000000000
0.00000000000000 9.05279131053173 0.00000000000000
0.00000000000000 0.00000000000000 13.24967515313099
PRIMCOORD
 96 1
Ni 6.387776167288993 2.0932587896638943 11.479650714596355 0.7413392871196844 0.6286064407996271 -0.20444409608312533
Ni 4.557962652583187 0.35264695245369154 6.250733204457113 -0.6691457956745702 0.24119750155307493 -1.8682430040780147
Ni 2.4841673638697723 1.3968637784468934 4.825134056374401 0.9922370466796588 0.16108706925372904 -0.5265904666764415
Ni 3.6043416339211105 4.2618730127751325 5.038480279885956 -0.48816790103418506 -0.48699136422758066 -0.4383921151626386
Ni 5.145905225945891 4.454896625457046 2.777423480051083 -0.48019131058661174 0.37648637879677743 -0.3316980188374932
Ni 7.1504285568578805 6.230963719166111 2.593000924231053 0.042547643554223503 -0.13997574119641054 -0.6152606156203403
Ni 5.27898125570033 4.483584920578939 11.609523866845548 0.28710069184309267 0.3331573769918391 -0.5349090138444659
Ni 5.7278820099474945 7.81330108248436 12.329219857177172 -0.6891844594930002 0.08807262456921607 0.39173584875668016
Ni 1.9223692513186885 6.376867553965584 0.5150522149427168 -1.4360505899681848 0.052130402146652155 -0.5182613779854558
Ni 2.652404434411029 1.7052199502493204 -0.029419760645984592 0.3544021453032284 -0.43613931457271987 1.7176444930604353
Ni 9.403948908068907 8.914708916502981 5.02353502699333 -0.8309887692577173 0.4963527508378226 -0.9226321418973272
Ni 8.500942044669214 2.271118977186714 1.5721402993784261 0.22042170245830428 0.3832159842111271 0.011375331716477184
Ni 6.666131389254263 0.7579494645717837 4.779025475262274 0.8597414159103774 -0.6661509747123043 0.9768577360101112
Ni 0.49755045383222324 7.602262415434328 2.370618204603791 1.8428872989220453 -1.7691349476302436 -0.4601336206047882
Ni 7.654325017279074 3.6717306111654673 3.7592774384407224 -0.16704302972684779 -0.024479216088286872 0.18801320422061168
Ni 7.7812632546407565 3.898077548032829 12.683529807363236 -2.504006110527081 0.07611031000101731 -0.8231882993766919
Ni 7.761636803449762 9.02905472138926 7.053278528741571 0.9000285455651984 0.2380381299884868 -0.2707001389978822
Ni 7.023245894135425 0.6524183624182862 0.38144750218571666 -0.9929826665964319 -0.12260742512129208 0.07662941572928093
Ni 1.7263672703517945 6.4558622094511104 9.173849589274115 1.5378973855033578 0.37913590060448255 -0.4726865175691344
Ni 8.776771537906493 4.831547053617805 1.4166685696233414 1.2617120550211882 0.07441209636298798 1.1516575268642424
Ni 6.101735125646069 2.119656728627428 6.870128795355791 0.31222062683917196 0.07697651465605453 0.6748482453759861
Ni 3.506969812421877 4.272193194674456 0.3634297319802569 -1.1352562026880837 -0.3852870078075429 0.4528705112844716
Ni 6.228465148811537 5.599368586927494 4.785544390162013 -1.7215060328983707 0.2931579537807661 -0.17042814414899682
Ni 5.428940740930416 3.021079353577662 9.30502181705186 -0.06152521309799081 -0.1203980761747991 -0.14525395887621437
P 0.10641465456873785 5.662864863981755 12.748585880330877 0.5616927096962133 -0.22884926440036715 -1.3757628488217208
P 4.02695308269842 6.074594857809076 12.712281472023106 1.3561391610535225 0.9689086563663636 -0.6975983945883082
P 2.2416249836533835 8.555014366146988 1.272416869206872 -0.1294892398427899 -0.6675715092089147 0.24485541002063638
P 6.5583307523620284 7.6969817691296125 5.589415043069332 -0.7685577565160054 1.0471864063323448 0.10332235163943496
P 4.946426973181331 0.8808809365750095 12.57151690675367 -0.9573338070445705 0.7285603901874613 1.3061301761252473
P 4.062720660491602 6.509563366492154 7.976410652124057 -0.13620136175564285 -0.8092691181924385 2.299784929088039
P 4.4338579388482495 0.9448307584653719 3.7594892737533927 0.06686925101872354 -0.3167018025389772 0.6255733104002581
P 0.5621375922188245 5.5890212466547515 3.341170658534557 -1.6855455556433616 -0.10128706637696104 0.7292576733648022
Ni 1.398891603662199 1.0080192406208808 2.618519837174916 0.004684292849546771 0.2635349887080106 -0.10150766702819938
Ni 1.8054705593309972 6.198518515721219 5.027443116928364 0.5468818699356259 0.7274866975073083 -1.4037765604258277
Ni 6.194164123182995 5.63317170904335 9.040969099808295 -0.6110350075747669 1.2133573178668846 0.6408613469075802
Ni 8.854417327512195 2.387619346364256 10.288531530940963 -0.4076196098664722 0.5336761698786292 -0.5488688184586676
Ni 2.5447033782213317 5.110572182127417 7.040307689596526 -1.72632299467104 0.6678795273676369 0.9927584664007676
Ni 0.9344200486546506 9.142232716218512 9.169384752683987 -1.7970201040762859 -0.4145844712200795 -1.1467847721529736
Ni 1.3897573374021834 0.9593242770801239 11.353606892999279 -0.14035600735396475 0.7783896550047626 0.2292426431840439
Ni 3.905111566748421 6.9024001852108 1.459690148956812 2.128353797595825 0.28333582548402175 1.1438904813243138
Ni 5.775010840621074 7.9937322626908704 7.706540611294083 -0.5431596838890322 -0.7446678372722854 1.283471558185467
Ni 5.344052718412908 2.7517316587964507 4.558895090070583 0.5124044049840465 0.5583397340635803 0.6847449356644079
Ni 0.6798247823147887 7.324441308146304 6.878886465504393 0.16525996968449602 0.3756245450171144 0.3053074446591065
Ni 4.845950044321159 4.737135494821272 7.041208442314932 2.0825418814680328 -0.6159404152961845 -0.1594978703897382
Ni 8.512755937106599 7.278806188010785 9.067600600783233 -0.8782944963222163 -0.11383173581119106 -0.11790924831467435
Ni 4.787776808457077 0.48688536059047466 10.456987679027801 -0.4396797236258105 -1.4662026880715329 -0.33621621842282096
Ni 8.257856496984441 6.810586777471377 4.558735760946523 1.1721006252099428 0.8495055971149822 0.44385956603511295
Ni 7.463157226780811 6.157409791155579 6.908446544413044 -2.0342272535230452 0.8397767998629926 0.5675525109110999
Ni 2.415764474017763 5.093371878961877 2.583408586739366 1.0972542695230136 -0.35842180798558276 -0.3314617344569711
Ni 2.388415991984555 5.482650950762599 11.468719469295097 0.03170170197865508 -0.16276111452204228 0.10413430601776903
Ni 1.0855926078974645 3.298683193878332 3.8265858458439346 0.06843376729236601 0.5506207681527678 0.3483651950805291
Ni 3.4914714339906117 2.752863257688921 2.9252501276886425 0.02762984590212661 -0.4709538511487438 -0.5384738483775888
Ni 1.223213138804061 3.302458207783611 8.21034654380388 -0.42799431686808226 0.7818179639600213 0.9711234046294953
Ni 3.5544426491587666 2.6449268289295893 7.44247522014292 0.571563431842706 1.023898896559314 -0.3325634521615821
Ni 3.9229908292494424 6.932727035528988 5.893839587679761 0.783690755502702 0.9747967397160243 -0.8885609112452311
Ni 0.7729019596973216 7.250968855256031 11.413693888910307 -0.27710192875916795 0.7755323880616257 -0.0637373902579612
P 0.10155783212225784 5.431982478753374 7.951381495180856 2.0999523636349964 0.5542336823150068 1.100424696831195
P 8.829829946776613 1.6212553124280675 8.073159641592877 -1.8236143096250461 0.02086553059509955 1.3419903803569662
P 2.069078784529602 3.6287660644161774 10.500791419515748 -0.3575028957157391 -1.6317375086839705 -0.81214335441644
P 4.052699220699891 5.982546077500019 3.9025722588337186 -0.1655304497370633 1.5179245419258567 -1.2264259781253848
P 7.160087885004002 4.071619554181985 10.356886440999931 -0.7341538251148388 0.22538213178737312 0.6654333798199895
P 6.614874485820955 7.845529018941897 9.960019319665864 -1.7370398668679115 -0.25342052598182807 -0.42222116182973085
P 2.2729114298323863 8.452482453698092 5.74405210548133 0.9324987502787617 -0.7886532417142998 0.35127362697657566
P 6.846960892270924 3.903862281571134 1.6994696173173462 0.22947687068203704 -0.6273157470126615 -0.7670024962137436
Ni 5.261762846952511 2.858482171916474 0.544599619943772 0.8382701334104787 -1.1554229074439455 -0.10938886954848903
Ni 1.4857259762747552 1.141620332261425 6.930109873610483 0.320410618849132 -0.2498497779114342 0.5731369469774129
Ni 6.896950404944665 0.9094615034823386 9.310944153015491 0.36555096283119626 0.001834482105577486 -1.1400772782258106
Ni 2.796633502849649 1.5368651934232462 9.489351129123152 0.05143980383753076 0.5594373380031333 -0.6110308938097089
Ni 6.145423895686539 1.4447530435762117 2.569138672065766 0.30154129274845487 1.573992331453702 -0.5077710199770932
Ni 4.320743313556977 6.833770975580296 10.555300085526456 -0.09131555698654596 0.4877956052964309 -0.8022173535519798
Ni 7.916385215192781 7.293317812207817 0.23574463934954437 0.7763543697422888 -0.08531588775968532 0.13747148671731807
Ni 7.64295471160754 3.900974441197552 8.167165635346349 0.4664742181108353 -1.530287434366584 -0.2091353309112076
Ni 3.025442798907025 8.378638836371088 12.433958840105939 1.357076071045495 -0.3963165261488271 0.6767740016437893
Ni 0.2755705834106804 4.873859799405033 10.31829077125469 -0.8239688862964583 -0.3098117602873632 -0.16308918728542235
Ni 8.510384105827983 2.413890546251833 6.03465756441692 0.049432800709831 0.04556611866557314 -0.348505063092503
Ni 3.7657800583164103 2.6219508450168845 11.382967810502857 0.4433749130892106 0.4339487346793043 0.230124531568365
Ni 0.9048744542118233 3.4430118430194887 12.688232732360339 2.461499090402806 -0.3647978867152556 -0.16991263796515899
Ni 2.9804413741512894 8.470425085737093 7.948824081683874 0.5697348632743995 -0.582838490535893 0.4636431764199434
Ni 5.492491334731515 7.926397602193353 3.5074541367478544 0.23254085431934143 -0.42147965567801604 0.42303414464932954
Ni 3.105759161898955 8.248052324180083 3.4060674023781377 -1.233674946378314 -0.3780426675403038 1.1571761426896263
Ni 3.6706442762286966 4.649640268455514 9.295746327250065 -0.22978566017170748 0.11140075777219524 0.29470807187670534
Ni 7.549720015659174 6.354081678666815 11.216286914758523 -0.9498665521332479 -1.660815142776217 0.42364169632634135
Ni 0.5312947328056701 8.960470775714455 13.229217572802005 -0.1006139515693364 0.2709569922036947 1.4628587112999645
Ni 4.260949628078877 0.3909864282096794 1.4948946431411017 0.24594735753323455 -0.23238118881302558 -0.7498874338000118
Ni 6.15176084948437 5.594615871579122 0.38445031300677435 -0.8839874329419356 0.15076126184768873 0.2317111593291945
Ni 7.831334242434757 8.8563998887718 11.399264645112648 0.8784166237223776 0.5426521481249945 -0.03249642996580855
Ni -0.0903767297855431 4.878313772645793 5.808193846543856 1.1853469486968875 -1.7321056627910878 -0.6968538031127999
Ni 7.919101052534708 8.922503369674313 2.7826306455146717 -1.2266044126847777 0.6794155530316944 0.12939385191550618
P 8.676466612077977 1.6330148881186128 3.9164320820686878 -0.7264970799005295 -0.16594722555950778 -0.6710363278290636
P 1.8204438758761563 2.9738690477838254 1.617731966116474 -0.6454155419371659 0.7489651790960585 -1.0706598068639368
P 4.668352387741392 1.1008103498033972 8.284213698387845 1.162569802901372 -0.8837259517504329 0.7326541006408608
P 8.41702267080366 1.744210321688257 12.38710793012035 1.1523869488310994 -0.14029455798840998 0.4677723680969686
P 6.275322395750924 7.887524917039233 1.4119783185338328 -0.9877851815558923 -0.35628702103076704 0.6186120485910765
P 1.9819909337651327 3.213650326702588 6.158687139985399 -1.4416622797280074 -0.2802299328651883 -2.1414473975549893
P 6.7793908592037715 4.002827394310965 6.039811318412784 0.3512911104780724 -0.5356402355835355 -0.21577211950143485
P 2.4202727640053623 8.332116542703874 10.408361516699706 1.2936816659492494 -0.3805746899335381 -0.9350891367137573
