# total energy = -340895.1745216669 ev
CRYSTAL
PRIMVEC
9.03846664930820 0.00000000000000 0.00000000000000
0.00000000000000 9.03846664930820 0.00000000000000
0.00000000000000 0.00000000000000 13.22870956347858
PRIMCOORD
 96 1
Ni 6.2767723368276185 1.9855884727633262 11.332030226145804 0.838114324558905 0.6374080982516571 -0.1713596548243307
Ni 4.521718999333915 0.3428787588810788 6.048391068206421 0.5534829201919114 -0.49336461474377613 0.6187745423108698
Ni 2.901447279386696 1.5373437866727424 4.843480284285567 -1.3444612104949618 0.195235947221296 -0.584450057997387
Ni 3.11405009644198 4.223106131811065 4.838334685112471 0.9980708797526165 0.1553123715534809 0.44465223713973745
Ni 5.251683658419829 4.285489629953891 2.899269912724481 -0.583670499518885 0.3344984644007658 -0.0992846912349516
Ni 7.213726925059993 6.007498332673591 2.6668023532440586 0.23882283067331128 0.5055449588600519 -1.2007044049895645
Ni 5.164390145660712 4.406279700829107 11.420225777895743 -0.6581083069134859 0.11333037069474029 0.7882308094649004
Ni 5.816407066702039 7.728982804316459 12.307118105984175 -0.3136391044532534 0.5756792537832924 0.5018070890841745
Ni 1.938235944978587 6.395040675453942 0.42641950020743635 -0.8108146083026875 1.1296910498954804 0.320748461804525
Ni 2.6533684799769355 1.591393818387333 0.3985584261672649 0.4111610473608274 0.7878004067957013 0.37292437247713195
Ni 0.6879375959644252 9.15072460008124 4.543545992910431 -0.07413004634619491 -0.7758026110038767 0.745503188689387
Ni 8.538395586942716 2.3671292735606526 1.3656788974844973 0.18358807856972253 0.2631153846720887 -0.050403649263532545
Ni 6.778515708155436 0.8477295551091439 4.801174836385347 -1.0662323672202023 -0.7731649162707136 -0.5149901634333519
Ni 0.755032846871937 7.488405932385479 2.613212379491721 0.3638722895771927 -0.14637933072990922 -0.5998591934636056
Ni 7.598367919984093 3.8309180170739743 3.8355185966965037 0.7902434690195551 -0.9121584960595129 -0.8491975789562601
Ni 7.659467955835369 3.8460664875010067 12.559985485126777 0.5911688647784593 -0.8369850960504682 0.49772623414658146
Ni 8.13991669928366 8.874608476527891 6.474196856515292 -0.6287293395307365 -0.4441421302725383 0.9160439471568481
Ni 6.782438402764822 0.8012492393746486 0.2566472659758863 -0.14225759525205178 -0.3992151878528608 -0.01480672599552934
Ni 1.7301252459437295 6.5108867049666355 9.212989694308437 0.8378037352970216 0.3566657445264244 -0.15355270854989686
Ni 0.08317920265268133 4.907751918151669 1.4484775806831347 0.03755790364911596 -0.08269387675580597 0.2549948124474834
Ni 6.405208950651085 1.8087237536009335 7.149191367962109 -0.8134376477478314 0.1803148071350895 -0.32932103396488444
Ni 3.2897398149149253 4.353359477469755 0.4992876198868727 0.4052994463737278 -0.1596577930063702 -0.09156161155908102
Ni 6.235231543222223 5.539848058273437 4.750760076034571 -1.2971457132384498 0.6783899399806574 1.3509997829444282
Ni 5.033946992198342 3.191256680205531 9.321134046225144 1.283045269281326 -1.6567522855607533 -0.2524414498980104
P 0.21959316731081346 5.57089519187538 12.544057898857973 -0.028316844666822202 0.537752653940848 -0.37335503225664735
P 4.291726172074806 6.079317990199366 12.476327243731475 -1.2028263364285736 0.2652164901754916 0.9999105040645165
P 2.4832374186117616 8.569677720682549 1.511922194833201 -0.8295309537652681 -0.8236253869141106 -0.4421963194000772
P 6.2479667430024675 7.7786401411458845 5.74325785070382 0.6808551136916984 0.2054360276827494 0.6195209335585911
P 4.703356028988834 1.3533657941057706 12.612344419695246 -0.32817277929305416 -1.6572431091542426 0.3670252333838776
P 4.090114130699278 6.233044234246483 8.088310669003121 -1.1015148445715806 -0.23164302509542042 -0.10649432160951337
P 4.7222645016220985 1.061351007377511 3.7063137131914745 -0.12969158566158312 -0.6067497499358518 0.4369751802104539
P 0.15941867046414815 5.645227543183204 3.6663899013040973 0.1419151243109685 -0.23255422405578013 -0.03037886940217349
Ni 1.4064487098682774 1.1502985595686959 2.579227744166159 0.1144660269610803 0.2322588043025484 -0.5873569472315369
Ni 1.781906622481002 6.469237449759138 4.877279631040871 -0.019595919854056575 0.021144495288099068 0.11555566048083325
Ni 6.219396149315206 5.643745234621133 9.17915057829903 -1.015413227685806 1.662140032235228 0.2790906770544226
Ni 8.769066299214968 2.3406736811143976 10.205288622707164 -1.1576921630940966 0.49792112376620695 -0.5737964349382828
Ni 2.1799064713974374 5.033115453248887 6.976093881779422 0.6868403847408558 1.2739175959484448 -0.20771273953206806
Ni 0.7472434961475835 -0.01179791076873831 9.178925520474666 0.30523365399837754 0.09123636700917835 0.11044662138904203
Ni 1.4306266086703727 1.1524135608097017 11.464555842368547 0.7532764048769026 -0.31532909056116665 -0.61911855591385
Ni 4.044849488755019 6.922037523138043 1.4028514000651995 0.5462138973343239 -0.3506149103466542 0.732132680919752
Ni 5.6014180944004925 7.776931870912764 8.003872407919362 -0.14364419118693325 0.8558495370551389 -0.2802240193279174
Ni 5.037535263534578 2.7512550758747643 5.04892192406201 0.6603474806566498 0.5269175109985571 -0.33005148437300574
Ni 0.7945210046575346 7.374168749970645 7.147008578219789 0.4285923554633974 0.4602683464104395 -0.7187966259324783
Ni 5.206093631669261 4.518031304862418 7.314511253427336 -0.20637165212314137 -0.03763143719952874 -1.5510663187851481
Ni 8.31287680077035 7.132181877212329 9.26450172453382 -0.036984804754465334 -0.2942732983321319 -0.5244821620841871
Ni 4.692997945988011 0.03609059809972579 10.540278607728627 -0.24622940755002753 1.1548783477943851 -0.721623296747996
Ni 7.999883732502029 7.414389927417122 4.435877064349608 0.396066357811234 0.05691985311549552 0.5153565456338352
Ni 7.319829487317114 6.119023975035853 6.884882193644341 0.05188126225032355 0.29910851493724616 0.11357282572284956
Ni 2.403924872074047 5.163739376048095 2.7828571713408 -0.553716376358956 0.6134670140550273 -1.109136108562264
Ni 2.401005447284112 5.462026858764637 11.485166258308142 -0.40814540046295517 -1.278845115157049 -0.0030958653165043455
Ni 1.145535287543012 3.26404345368339 3.838243694449338 -0.943526211737517 0.21583948240426054 0.39500346376435846
Ni 3.643189060767612 2.659379060426802 2.525400058735879 -0.6758730870960746 -0.2160009476827893 0.180549805964031
Ni 1.033630029573389 3.324899450929935 8.081035607042072 -1.6379492939216374 -0.36735047793378023 0.9125313060178993
Ni 3.6262780893064077 2.7107717828898727 6.965749356478862 -0.14051361597775155 0.05717387810783056 0.20546868069289778
Ni 4.156194361780444 6.90978136210042 5.8320219220181135 -0.03121396370895915 -0.5130160704261165 0.2895398974122046
Ni 0.8255202343852156 7.457919183727734 11.328366031688095 0.7525408122624588 -0.8525811507165123 0.80141439803471
P 0.09995911634467755 5.4847947567393955 7.928362344382037 0.45829836716826233 -0.5717557503591701 0.5076303806341709
P 8.45281034441672 1.322363852838037 8.143659528402893 0.27958150064791204 1.0910298858798566 -0.9825025930007144
P 1.7401037133371924 3.266727878335436 10.280704686189335 -0.06949897533208675 0.39052331650581773 0.6116129915654241
P 4.15703493919674 5.993868324675998 3.7640179970502476 -0.2653267905011108 0.17887138982034353 0.11699573536146948
P 6.94419080536755 4.022488321788146 10.342232241522233 1.0294427091956786 -1.2076409842083977 0.4202483543740763
P 6.448177822017501 7.712758756335241 10.146816973013514 -0.1255701072940418 -0.29752831493431986 0.698513707313726
P 2.384401783695533 8.409217818838213 5.806979945785933 -0.029857192570748575 -0.017642909892743808 0.7573472325121666
P 6.960360622547719 4.058163150413145 1.608399693750377 0.7764153048872112 -0.8708149001157196 -0.36861443224786844
Ni 5.322906777134039 2.9605498140659114 0.6891406159010827 -0.3128559464303257 0.2581958358832844 -0.7746350730583369
Ni 1.3402780941186925 0.9858526938470803 6.883069981042538 0.19806441780902664 -0.04341616220210587 0.6420934195424683
Ni 6.769025317971437 0.7346230848962317 9.264660801550239 -0.5243273816738776 -0.6159892662562488 0.6251035698526912
Ni 2.8080618399761357 1.846450314199044 9.02809158581696 -0.11130922649965345 -1.0021303945339708 0.8507114444976251
Ni 6.364165272721995 1.8620597464350137 2.5886069612080034 0.47812980007189276 0.7849187143725321 -0.02459157329643507
Ni 4.00808100564215 6.662127370632228 10.377367473676768 0.8008145596671821 1.1366006325311198 -0.9464320725304023
Ni 8.089491092772674 7.356670278164717 0.3157615506619961 -0.23992300571602548 -0.670945053666838 0.008919671087133025
Ni 7.4238893560679635 3.8930845920125954 8.203228447971151 1.4946773984724582 -0.876840023263877 -0.650890449008808
Ni 3.3193679092226893 8.502991912322976 12.556690963962902 -0.13703671317274463 -0.575866430093434 -0.2968156051380114
Ni 9.300311226314763 4.914205383476788 10.383677227379101 -0.7625449746630222 -0.5920170717113675 -0.4480193538397574
Ni 8.386070305256094 2.2598697875477685 5.970037503000632 1.9383875834139006 0.00011132876688367923 -0.17563874181565878
Ni 3.5233570673776384 2.6486232848849354 11.344174310194587 0.17467869189523463 0.3317926354338286 0.21079086423675955
Ni 1.2959263373254657 3.384598524420716 12.546386207916447 -1.0795134005998248 0.4504133079932307 0.2516750040456311
Ni 3.0382625519726085 8.551808671736103 8.1290289621259 0.7681780045790836 -0.6988638915642932 -0.10952308113350816
Ni 5.55452652842469 7.78180360454055 3.5620814747150953 -0.31443666065388426 0.3623309132320018 0.6189141532125275
Ni 3.1131643266914737 8.33470469819355 3.7181938740084743 0.2445039402184886 -0.2525880027782037 -0.6511017936886657
Ni 3.217929195855992 4.5149763030698535 9.13247955091417 -0.23932419578976202 -0.12189291555277072 0.4587699074880422
Ni 7.258593874463208 5.9461271428170575 11.479716062802476 0.5303802727361769 0.7648448264407924 -0.5130834333289421
Ni 0.730628986398794 -0.06959257929593006 0.26895404242782384 -0.34487517964939957 0.1889783963473584 0.25246896070183616
Ni 4.51704611197665 0.3169573398251801 1.6032007676229134 0.6852247035143038 0.4216863723721835 -0.31602097442186866
Ni 6.0677487526417275 5.636234268675509 0.4395252771281983 -0.20174289510187837 0.1796514625194777 -0.03449263446023092
Ni 8.177173259605992 8.91617638553381 11.102393514480266 -1.3525483583784708 0.7673421389413494 0.8261589519692418
Ni 0.044982641778791715 4.606129241170463 5.640576348146361 -0.06806455687840536 0.7693632831364363 0.9195812708861454
Ni 7.87846096894788 8.995163547265216 2.3125107222817065 0.5360135597625543 -0.16287141484766143 0.5197086519549438
P 8.488159788235409 1.7168386996861296 3.7059702514514825 -0.38631724884427016 -0.5154887003363251 -0.8291684282195267
P 1.603731325626533 3.278984039373059 1.74351754226338 1.3929691853976784 -0.6426505775975191 -1.7903036112880586
P 4.761084716708079 1.096275643254631 8.38278211101901 -0.26221935522038065 0.08151759705951768 -0.527073319850131
P 8.558325406329116 1.6819050253421675 12.394812022824388 -0.6783943108560317 -0.2948163153197955 0.43890042225762477
P 6.178262086717698 7.764503979005145 1.5069618842303638 1.2147112607916177 -0.08668268620022491 -1.497956583444362
P 1.6086844054558969 2.951357693287694 6.036087907141219 0.715547008646929 0.7548828301320741 -0.658096222728628
P 6.810864380982614 3.66519772752765 5.874618408550643 -0.7129702490586882 1.3833136645857853 1.0899039998055295
P 2.5227355187108857 8.568448489192049 10.370382546501343 0.02172736437476258 -0.660585821919701 -0.026770840335940994
