# total energy = -340870.1500257005 ev
CRYSTAL
PRIMVEC
9.27541506749314 0.00000000000000 0.00000000000000

0.00000000000000 9.27541506749314 0.00000000000000

0.00000000000000 0.00000000000000 13.57550752459561

PRIMCOORD
 96 1
Ni -0.1686446667695422 1.2327675724945986 9.451295350916364 0.7985615019669473 0.0726478053737136 0.38583336722931616
Ni 8.875347736069294 1.1710953386053635 11.949229520266384 0.8604698094359697 0.4383085543098967 -0.1020897647839145
Ni 6.058608280058589 3.5294530640442354 9.806946295856731 0.6590979245202649 -0.15614900852216332 -0.26421041750848046
Ni 1.160660496805786 0.34758968182213384 0.3263564019576072 -0.11151748585571764 1.3851206358875372 -1.6752606287775857
Ni 3.242416073528929 5.691199819149205 2.0827675244923283 -0.08195185638345885 -1.208804922609512 -1.7196322129144255
Ni 1.783365478329896 0.5147781084472016 7.173297965373651 0.3565359038167795 0.17873974933848572 0.2170928951953874
Ni 7.73915578385665 3.173787278439975 0.18763422376178632 0.3888413008177045 -1.1771243036767793 -1.3736185487852084
Ni 1.485457701513163 0.1001550029045831 2.5291709842197396 0.616411441395332 -0.3000063441611672 1.7492842314529038
Ni 1.366658187051842 7.765266076892926 9.583778885028277 0.9867536549675845 1.07564851832778 -0.021763102708704456
Ni 7.258522332860652 0.8993562899389839 8.095997692074409 -0.684847265570227 -0.7281101900239202 0.6864439206333856
Ni 3.6734353300485365 3.3747020413027706 9.851949681569948 -0.2965451250854441 -1.2819072990221407 -0.3276726997281841
Ni 3.912880166542837 2.5348595961981224 7.173651358682596 1.639167225489138 -0.014423374514181611 2.026727088491258
Ni 5.04508369033431 6.5328416947508465 7.497209367954929 -0.4675224568696915 -0.6138220834016009 -1.3413972268576575
Ni 3.792559484032511 8.24178124365869 10.460077420985423 -1.302780285816408 -0.7163304237801728 1.070540250566937
Ni 5.380482694310058 6.745406378769435 2.093791355140149 -0.04065762562036224 -0.6487376643318634 0.8926299391082819
Ni 6.934661945061504 0.7400677342123161 13.205194905508309 -0.0011582819741592955 0.5799244022128917 -0.07669806418368726
Ni 3.818586298334391 4.216195510265485 11.948007948119713 -0.2374634884319394 -0.8590135366054173 -0.4522873850874921
Ni 6.1065992769217114 0.9303055669457836 4.318409655285184 -0.04802100796396891 -0.009488656216725594 0.8628002573413591
Ni 7.334450879501843 3.277347286166447 7.335864452737625 -0.9510266338796203 0.2711950763564297 -0.8387668705412393
Ni 0.9935360705437557 6.988125436735071 7.3402628544988335 0.2777182221869282 0.7904255031233742 0.04366633053969899
Ni 2.9386647853044328 2.0533542561984266 13.020907251454334 -1.0937416283840646 0.3911429523676877 0.5614309713943944
Ni -0.08684385493429561 7.664868985658592 3.3288369695422815 1.2866317010810036 -0.08395371730483606 0.9626477630583165
Ni 1.5337640624840065 4.357358050130167 10.957158965282034 0.8021651601578056 0.04700413666368034 0.11570581290545234
Ni 4.628487704035451 6.131179126494049 12.846217796772983 -1.9407046615828514 1.9447726610046379 0.9150666708452434
P 3.4950227238130966 7.933225290498922 1.7361712396095144 -1.4687555364003737 -2.3019266580213906 -2.4617664851315797
P 6.4935974141695025 6.523232364880302 13.700809079162527 0.3803147514039321 1.2652380658965758 0.30615359470948567
P 7.44288975548305 8.044159253097096 4.582141238239942 0.24011660978407035 0.36531236445782894 -0.43847953267012224
P 0.5895463006802797 2.6918088922786985 13.234666608916289 0.34834642602745164 0.45353437012071574 0.55049709809071
P 0.9695776737719262 5.691478081597193 2.132711923740332 -0.3010054748496429 -0.045958211897669236 0.6097561408623433
P 1.4785938944627746 9.194190124389712 11.612258333459499 -0.67448803382309 -0.9994744449683625 -0.6813058280758718
P 8.649630513675769 8.928987460626589 1.4284695521650717 0.7731908844126425 2.031104134513031 -0.8790879387577892
P 2.9311053221340724 7.7068309628152925 6.0657401466005405 1.2319602776800525 -0.041962717585030965 -0.8189503500359445
Ni 8.220308658088893 5.522656254402432 -0.47253230359355286 0.9489520107387787 0.04333954332789955 0.07725265113557664
Ni 4.761571357493527 0.7447332679235937 12.114457124174624 -0.4455953177792971 0.24638315951907247 -0.5431285735407807
Ni 0.37823750784361243 6.098399810120977 4.960544776010854 -1.236554067698322 -0.14551801117087843 0.4282573407214818
Ni 6.911213696110987 0.9498766924543242 10.536684000458214 -0.8003088236753572 -0.11781463171833904 0.09547791589435169
Ni 7.838912871460609 7.01490355964652 6.738515673015741 -0.1274611536691676 -1.2256443627643536 -0.97829498267727
Ni 2.7931149741764614 6.017091522818671 8.917641773080595 0.7803766035278045 0.5201423970582526 0.37520571231214095
Ni 6.7628070571836645 3.223753938683818 4.578815074444983 -0.12896062103282951 0.2734185663703097 1.2163739932060211
Ni 1.0925325741232124 2.3822697451360364 2.012148225358762 0.5752000001540287 0.04434253067111718 -0.6500319576632547
Ni 1.2493056373200622 8.598365295341313 5.235788076438905 -1.1678487919121243 0.5528008065232222 -1.4989693409795926
Ni 6.180617088086714 4.59157155260228 1.1324279888328497 -0.7401930893303833 0.09451169532634046 0.9972046750975794
Ni 3.4804881486131523 8.301700424125597 7.956469480320914 0.7746368728305497 0.795173816441637 1.3128471831341066
Ni 4.52169985191231 8.706776345077722 3.289929386523004 1.2090828588612468 -0.24155925576786783 3.422781340572163
Ni 9.481050882021293 4.607005843050722 7.170447630364753 -2.103868410859951 1.2889027565033675 -1.1093289412993603
Ni 6.4258034064245155 7.78227718787997 8.788457504060334 1.387639802764965 1.661886521463525 0.5963396103461214
Ni 0.24113852726105905 2.2904431372997562 7.359526963773094 0.5434165370948448 -0.46512953115748285 -0.3798244420310749
Ni 8.365515278864345 8.116999086565611 12.782710885810006 -1.3851728292817114 0.2368276546201534 1.0570532718240957
Ni 0.15779335883947507 3.6458966231125856 4.369915106866405 -0.03306927175014305 -0.8999010188483987 1.0286600653933833
Ni 7.059054534727398 5.376113973876635 8.618221176088296 0.6791782402099078 -0.08444531222927391 -0.4490151420941234
Ni 1.7720865737714195 1.8977498952831295 10.846708251801868 -0.023350501800482367 0.6531782166017203 1.494133610153846
Ni 7.685126491872171 7.207229288281396 1.9035980443983593 -2.1925966667352945 -1.403631293097215 -2.4981187985083686
Ni 2.006383554977929 3.953089090277209 8.412457226298551 -0.5813372234000181 -1.3959205547165185 -0.5733431494509481
Ni 6.089736572573594 8.073015068953527 11.723061512707117 0.6990459256681123 -1.0270068460606765 -1.076354543255869
Ni 5.980778273356142 0.9590500778230192 1.8229733551766116 1.9581848206454857 -0.13861614184472257 1.2096868109938328
Ni 2.827155746980416 8.088291677348106 12.88273603290553 0.81249533843922 -0.40889230593130876 0.24643201047913685
P 7.568126407907845 4.9564292744051 5.549151477158425 1.6415640078560891 0.23913290571456236 2.046134803593908
P 4.896315310224603 5.000097927909466 3.629058962384787 -0.19785847244580765 -0.7258437625872467 -1.0417086710472252
P 0.7900241914997325 1.5565073798996185 5.2306977287236975 -0.22093232354613565 0.4163495335403023 0.3536644958062554
P 8.596528763184587 8.33031507919377 8.213236154202514 0.8656212717299221 0.945287674513314 1.107524798211086
P 7.417502944811546 6.140324685617946 10.675792963456738 0.36074197147832715 0.4442218344705382 0.07456122034634255
P 7.007121486517768 2.705350998080817 2.5728980728381816 -0.06633420445085994 -0.7661481186332482 -1.167082860280377
P 3.0447106042329373 6.2216886254098505 11.180203940633373 -0.7488080846929039 -0.2748020769813977 0.06857723484876577
P 3.250003362944088 1.2682367591982284 3.5597697577526075 0.08481349420197007 0.9379741715710362 0.689112211494168
Ni 0.7029577266070459 7.295503412198354 0.5033155506730527 1.2003429078850874 -1.4573611785205032 1.7899575408025494
Ni 8.349274027316737 0.39433220783528045 6.0249459441839 -0.24549304360463525 -0.29741878593964904 -0.2883548759651679
Ni 3.904643598082371 3.255049188667617 2.4145667399325954 0.04319633288181593 -0.05943336356596862 0.031367201457371784
Ni 5.3102585278526355 6.861794285348188 4.710388690351974 -0.25813695762089095 -1.3247917570904926 -1.9164720142877318
Ni 2.2840338255810826 3.2659570766287755 5.904042765615784 -2.638937604431365 -0.7494279776650901 -0.35980171905224484
Ni 7.334998128982887 5.495163924541145 3.4966162400985787 -0.8430300166929676 0.09389823011205764 0.27493320324262327
Ni 1.4265124396142173 5.007972755187547 13.265333913309126 0.6767716876509441 -1.4070881412975638 1.4049042462723675
Ni 2.3376178976487787 4.948777057085411 4.227006006369847 0.4716295370595297 -0.8096663536308573 -1.6879086565588997
Ni 4.258825317297358 2.9750429626714925 4.743974967824213 0.5332249412738236 -1.6284205284955955 -0.7146741191236724
Ni 8.70266733626242 8.326178244133672 10.575456162419469 -1.6456700596046625 0.20596516071334206 -1.0922120791134156
Ni 0.24764986854399532 5.575962064022139 9.490012787929516 -1.0031071566249432 0.3761025130947975 -0.4343814513413487
Ni 6.182101154475987 4.750505787478509 12.056706535719043 0.9957342611996399 -0.507172467161146 -0.41137984823985285
Ni 5.166925540893641 2.504575366442016 0.29134263812718547 0.22221016181729472 0.3617305606438415 -0.8958078226156314
Ni 3.7814104352830964 0.6845701440439508 1.6051680617209008 -1.9743701721560964 2.790204859381195 -3.145907982884034
Ni 4.304692244140833 4.9790798376713825 5.7129673629138695 -0.9382503080505582 0.3455981738583532 2.0876882015556624
Ni 0.6518093785007444 6.547125833747601 11.702874499647027 0.7609853434853863 0.5835668840614854 -0.4143487010601896
Ni 5.089104809606127 6.152735190798243 9.844346623949404 -0.17233230315024514 -0.7820161960137564 2.019633157758954
Ni 5.940513697132173 8.313990348911766 6.038412919125061 -0.11982909104520652 3.2065078559542775 2.7994518319007593
Ni 8.323608954197242 3.845698336183425 11.212065918469575 0.2179894388677278 -0.5661515167985153 -0.052477758183741875
Ni 3.906878973081214 0.5870651271857136 5.712179880186062 -0.11524327144673702 -0.365908346170615 -0.2788898738975261
Ni 8.670945417191707 3.9768248770906474 2.203847863485664 0.39848756565821697 1.2047857741477894 -0.7200225279197793
Ni 5.338678399207217 8.438939463473638 0.3715425133450036 -0.6610100539413133 -0.5286378361237735 -0.11195688738598139
Ni 2.274582177764399 7.237661924676431 3.4873983327382057 0.26756647846490694 0.31326835137739595 0.6355707879326021
Ni 8.325241427225443 0.6771581599710244 3.347244958018229 0.27152983398802916 0.8537270913954973 0.10672417823213233
P 6.029678260882694 1.6377136376376624 6.5482407386225425 -1.1860514309630799 0.20909650725347217 -2.1700465493489207
P 3.57525506298318 4.057882728189764 0.4505273092066042 -0.35059614129357686 0.442551902967283 0.5159275876459566
P 6.15009169754235 2.5933318119354873 11.804596120133787 0.19939084992993403 -0.7380685867882127 0.7879384750354623
P 5.110874208453778 0.1600834587864223 9.444141223378573 1.247057281222491 0.5504734439416261 -0.2626595280815928
P 1.9872298231413716 5.378173115991751 6.274599302353413 0.9853315778090772 -0.3543856902429961 0.4574329338441735
P 2.310440931895213 1.6651966920840158 8.901161215827715 0.2834679801865118 0.7107657852082018 -1.586906725522525
P 8.669248016258976 3.5563610427647454 9.08892436785707 -0.2788253392081778 -0.4084480193050385 -0.3632125445060067
P 4.549897113308501 4.568967366410662 8.294756848506784 0.5911714358816206 -0.43977228333961677 -0.41947702342569043
