# total energy = -381172.0953505254 ev
CRYSTAL
PRIMVEC
9.21198396474695 0.00000000000000 0.00000000000000
0.00000000000000 9.21198396474695 0.00000000000000
0.00000000000000 0.00000000000000 13.48266969401297
PRIMCOORD
 96 1
Ni 3.790326108669453 5.973861111659171 2.49422666779588 -0.34235138478628135 -1.5147615708168427 -0.5914187760057362
Ni 8.922423753926655 6.263338498399987 11.13684746062948 0.6121788913712232 0.3175489810306208 -1.99333205797058
Ni 1.0289694062360721 5.235686405882854 6.782537894954058 -0.676761403238299 0.3873973692823264 -1.3937047780121226
Ni 0.8218508416826799 0.5395901232454782 0.3156320518513844 -0.6633263607793156 0.2741050509143731 -0.010345347790066054
Ni 6.270717297622855 4.142914798126705 -0.00837277230170338 -0.6327016939149233 0.26820848292428 1.057380059035895
Ni 0.21222016131946467 8.698802841148739 2.6703238760658676 2.9423748286509515 -3.339288879174462 -2.067643881310278
Ni 5.9125000859119545 6.69892716413444 9.59534629189366 -0.4313537202586184 0.7134119645817971 -0.15507711561422324
Ni 5.306720014881022 5.697427894331066 7.259837503261822 0.14450911029038982 1.1244670824923795 -0.9541402398079375
Ni 0.40381008436226007 7.616403927431227 12.95912437597388 -0.053688233552075276 -0.053295626099346925 -0.05555613999874948
Ni 1.712802618110147 5.4336243071334875 4.080274227795148 1.1028469331194426 0.0017686618646485669 0.6069559524093869
Ni 7.192284181837187 6.495388376582304 12.731522964888596 0.7781099189808148 0.35522464120452374 1.4968132138685382
Ni 3.906756375058747 3.259780311362815 4.0887142475804055 -0.6599792986839537 1.3366602263933045 -0.5810276625793994
Ni 8.14242664057004 8.093511005272378 9.687028563136593 0.27281898511309793 0.08068096009083524 -0.04404942491073059
Ni 3.6731957314924717 0.7362125531739823 3.563982133406791 -1.131950278243302 0.23825924486035743 -0.36782176114324394
Ni 5.823622863811796 9.226631103161061 9.347601956487873 0.00156940136964891 -1.3931959566965038 1.8467190139633098
Ni 1.5331136572596398 1.6190891043845135 2.3767112296856703 -1.45805871880816 1.3420608285835856 0.7123210455104635
Ni 7.680381156648226 1.1607099901140123 10.306139296284144 0.5197287065596017 1.5998774267505802 -1.4443051166674932
Ni 3.628692636554052 4.471994504292125 0.38214165548332213 -0.13498934372541266 -1.1610250841220715 1.4839872657484636
Ni 2.633208792334365 6.398413820503493 12.893436481319071 0.22941336443395327 1.5522744801606365 -0.5033294392659718
Ni 1.4167110268224918 2.3291211988925906 10.523736492692732 0.41311688553561754 0.1276431877729866 0.6308448432118426
Ni 3.248882534233412 4.6586753610354625 6.196688872610512 0.24646183527580778 -0.79064096156829 -0.8912155752592588
Ni 1.8502546320981725 8.115886914526241 9.034493988265783 0.5981710071279053 -0.11345404075679814 0.893581504388274
Ni 6.795459544978923 1.7826110332298613 8.076969045516442 0.10850980937764539 1.037165274650917 0.8090284629365422
Ni 1.6450945353534965 4.661208656648807 10.427537585670807 -0.10812105857965894 0.2527116728402615 0.8747684854468288
P 0.6475693154686559 5.740521555710061 8.909213768801072 -0.3377591374299086 0.4478635449881835 -0.3027499683445754
Ni 5.35216273219239 1.5858062060171965 4.60155461154578 2.3807193999505776 -0.7209910624806357 1.6653351421337577
P 2.239645197829278 7.906857784481185 11.168706186262895 -1.245203515843204 0.9473389006153878 1.793027437977125
Ni 3.7035584309164062 2.354030403759799 12.643832246333886 -0.8678817856293246 -0.731534899434753 -1.2428491566784143
P 4.102511036089879 7.901588529605431 8.420695806319015 0.594955328404085 -0.20000740046801038 0.3602485767816764
P 8.566048939025459 6.9769632666869885 1.2906256799519402 -0.29398250656459046 -0.5951412191626461 -0.04995396332062365
P 6.946775594959976 0.19994703497161628 5.6959696372561845 -1.4781932847745058 0.877464030001121 -0.051334131497601916
Ni 3.1024672597661724 9.098787188535645 12.820131197054538 0.1331018968947127 -0.3649948332174101 0.3392002407518093
Ni 6.968331637633521 7.789110204372953 2.9661197626655658 2.1634480701957965 1.1173554111482629 -0.5038120353293452
Ni 2.635705240011515 1.42539792778025 8.352783217516487 0.4763315705208893 1.3704380941746979 1.3621231465510995
Ni 8.551973027399315 2.0268115183721815 12.40030792082073 0.25897616569273463 0.6457400151561201 0.23312655161948237
Ni 1.5572951153870151 0.14024232395632313 7.010139306039343 -0.25972461382298495 -0.733054421403073 -2.321145397041686
Ni 5.010950843035065 0.5327935214144772 7.388003837328935 -1.0617460493140747 0.004811819566346552 -1.583679733944795
Ni 4.8788602037632804 7.776849053604368 3.271435313581008 -1.4824893410466984 1.2142656886137668 0.2144932527890112
Ni 5.494174678284434 3.1627044234594703 6.642197002768416 -0.2796712321482409 0.06413642546859277 -0.754806468368184
Ni 2.9680091405939177 6.9206319842302655 6.81734998267343 -0.12640957247620166 1.6895891295851162 -1.3487107297999354
Ni 8.665823938255022 4.369032158581773 2.221404548214796 1.3554429063174462 1.0745714832135171 0.8478423504799463
Ni 7.570795394406985 2.2847931316510937 5.2522145476627164 0.2994784966821552 -0.2654897984415363 0.9739241073030841
Ni 0.20317583538062392 7.4623150702515675 7.44517064673886 0.0585465900856411 -0.428307734343443 0.043907242905911484
Ni 7.833825174944488 6.166585029938341 6.277854742863651 1.399250647531016 -1.6411922263389669 0.13758255837388564
Ni 5.821872586842576 4.310075460671221 9.000288970295209 -0.012495561363849448 -0.8041389960547248 0.7798744670804053
Ni 8.55138346042021 6.314778217326944 3.3860508191127425 1.502325401936019 -0.25762427965053053 1.9199849125369965
Ni 0.9247358067270239 2.9192132610888866 0.5070248384355412 0.25822386090774235 0.20059644020226097 -1.1556543067284613
Ni 3.7273161377775494 6.6125556016954805 10.563294594593904 -0.05849696779462829 -0.0014079360911201557 -0.8233729045836724
Ni 1.223600205213285 0.9851940580374864 4.58714154130346 0.19183026397385672 -1.1167442599268251 0.3235100837100622
Ni 7.4907340410412635 9.245055071258108 12.223914086664378 -0.3945298665620496 -1.8816855027361659 1.8909142204232854
Ni 6.469475065453807 3.125911759169666 11.358259339632562 -1.1846326962386824 -1.6354126435427125 -0.13633197379623616
Ni 0.5077903543099737 0.25161336870616746 11.279183668560034 1.1615526744907672 -1.2903996527638681 -0.5043805062383055
Ni 1.844322114370923 4.227858503038145 2.154045599653584 0.8333099611917261 -0.571629509193951 0.24140730357103585
Ni 7.682205129489834 3.814572050685168 7.351291317300354 0.8944101709371565 0.17540914230335597 -0.8435396093395343
Ni 0.8436067844100787 3.4197740503175784 8.224725584861147 0.39811989790615304 -0.013735347308221504 2.5070582670898434
Ni 3.585184435892874 0.4894612696486257 10.476115141153889 -0.649300735924185 -1.3606699590443405 0.5596198863275846
P 7.889990641688339 0.8094680927246539 1.0023909898592709 -0.5619328507314775 -1.7489049937366137 -0.37914258547270185
Ni 8.130156277817406 0.8841892589374459 3.2431757101153513 -2.783976876193612 3.9265617513326245 1.2338610942471913
P 0.40449545597547026 1.0581345477336985 9.104442425543034 0.26993600713834803 -0.22808127588609106 -0.5789646094027835
Ni 8.498257948412371 0.5487864469211196 7.2054619250186 1.7211913298714294 1.512314651938247 -0.2916237765244268
P 5.00349834793981 4.0735485582413204 2.1893293409562404 -0.366796148092207 0.0724904538602429 -0.5945177266460342
P 1.631755582451234 3.0667892455462398 4.192705571908977 0.35501663895877567 0.4049225226502832 -0.016746623330719548
P 1.2814698890061125 7.135335696449212 5.199915350624031 -1.103771244705925 0.03253859605765364 2.36218611703308
Ni 4.025572545316608 8.741058211979317 5.474287847120482 0.5600839704481967 -1.4018808860650116 0.371364998409812
Ni 7.8125362798083495 2.825702411012321 1.1149936768764028 -1.1843563026488442 -0.5113232561047258 -1.0439185342143507
Ni 5.459362590565063 7.8763384813284265 11.84654792371181 -0.5012833553702206 1.3482492167824844 -1.2241202128103434
Ni 5.903131498134605 0.503612719543968 2.447482297138455 -0.3554534693858782 1.920193943224009 -0.2119684294846285
Ni 2.8481888640747672 5.507338603489775 8.5643668307382 0.659438081468503 -1.2043312031088742 0.3397851667210019
Ni 5.461730070465534 1.7787696358816267 0.41338962657432005 2.3675386395942453 -0.5633019631648621 -0.7789118460568198
Ni 9.013714515847528 4.202221551431102 4.746951040577252 -0.6027961646047425 -0.03663230651105304 0.11569938514754913
Ni 4.819157335144798 5.740300468092896 12.497976139298393 1.4663476982898296 1.0902747528813868 -0.02835181166981569
Ni 0.7854828498575123 5.309363854302949 0.13798815145964932 -0.33287918362978797 -0.4139689491232677 0.8958337907575604
Ni 4.000608068545108 4.155175948895291 11.016865053191076 -0.24530046797785496 0.015205761206160911 -0.4775595293907195
Ni 1.53361110439826 6.78723324322359 1.9105885216239797 -0.08284017252568314 -0.5988029842849494 -0.5500317284185172
Ni 6.630233399084598 3.10997502676572 3.2304346149778373 -0.0883068520672092 0.09396456457361882 -0.8606101916685759
Ni 4.591188365895976 2.315570370357212 9.624105184894747 0.7554510439307184 0.5156928459273312 -0.8149553699439384
Ni 6.405764983774215 7.347690352735785 5.233514220044212 -1.1595960649850288 1.26045941356101 -0.7806162303424362
Ni 7.744782137131456 5.759700906499088 8.615426094723952 0.3762033003387198 1.058400015659977 -0.22247884209764912
Ni 8.164627522126983 3.8576933480163085 9.952825623682273 0.885495642056346 -0.41409390473690616 -0.47494240348284655
Ni 4.578669279574032 6.105951750930957 4.788747654602215 -1.141415023200628 -1.1611662376856262 0.5814094713988504
Ni 0.6379381861459243 2.516299502774548 6.272623257122494 0.08634304347261904 -0.16598553499661092 -0.9633941543060376
Ni 3.3524989308112083 1.6335242833885506 6.028560030542496 -0.8060382699599666 1.640964169488561 -0.33927326008158987
Ni 7.05970530741083 8.143366262942989 7.532659622842907 -1.7304930668883296 -1.7207439579213655 0.21120558317667498
Ni 8.695283863242201 8.34281492957758 4.924545196255125 0.3234589187571526 -0.25186886522399204 0.7193807805707224
Ni 3.6691608824792183 2.0313253905559585 1.7278172309108364 0.3231740405268821 1.4836573932128707 -0.5756987941673182
Ni 2.53363645675387 7.979503490687845 3.78001513492394 -0.4524956444435561 -1.0574924162440433 0.3975843371176572
Ni 6.623269139143913 4.654373364484802 4.9543017471286666 -0.5894433974469203 0.27631105742675643 0.24415838395361172
Ni 6.678670011211737 5.748572829768471 1.954852104977137 -0.966040333679633 -0.8451234088868865 -0.584627978336148
P 5.64142824330009 0.9330634403068896 11.382204970968296 -0.9809553031182524 0.42210237686367946 0.5848997439402959
Ni 8.47811133929825 4.377387428113784 12.301129858157509 -0.825719807549294 -1.2779418866164896 0.25373857144287915
P 3.6606305852502845 3.263741464503681 7.690312596650939 -0.2659921919992516 -0.4125368446624315 1.5310423102547375
Ni 2.5626173585705265 8.957134509821493 1.718096745342834 0.48689571918998076 -0.16671058608809353 -1.0829257687154834
P 4.1180424411956915 7.669326775789997 1.0694008042250434 -0.963708857332979 -0.8911772658221556 -0.46827527587531614
P 2.1202210366242142 3.8886087664831543 12.374354076962417 -0.3119941126506627 -0.15917391139141618 0.16809718202297502
P 6.530532095727423 5.239592287119428 11.161708763179636 0.10975602307992066 -0.06025817346010913 -0.9600303800401272
Ni 6.034862870028497 8.195496880673586 0.589786224325885 1.3532217302964111 0.35797649291804795 0.3631477527063423
