# total energy = -340854.8893963137 ev
CRYSTAL
PRIMVEC
9.34594791959892 0.00000000000000 0.00000000000000
0.00000000000000 9.34594791959892 0.00000000000000
0.00000000000000 0.00000000000000 13.67873948322224
PRIMCOORD
 96 1
Ni 6.215260967482496 2.7469049324633623 8.100467633942507 2.7143277484369057 0.87601032827373 1.210549416104444
Ni 0.2501452302642104 8.522130634748649 6.283055538988433 -0.9062696413789036 -0.053375844517979054 -1.3165025204985068
Ni 0.5755290795404552 0.449403643376885 3.5311935157564145 0.4189298926729688 0.013062489610912989 0.2625217169521478
Ni 3.874353357947408 1.2372259295727062 3.0957863639616154 -0.7120986450870123 1.555582975708579 0.43487998824432206
Ni 1.0458022245885457 8.455578139719247 11.472399655239222 -0.19275303289844223 -1.0001136212142583 0.35584170596323234
Ni 6.839925433537145 5.683598029027562 6.88524860790101 -0.43444521469974856 0.2281167571097168 -0.8803706621249549
Ni 7.045611055023885 6.161017085843589 10.941979727855616 0.8444109562008941 1.2494898019233835 -0.793510312696285
Ni 7.558301719232268 5.087410666238548 3.7303154780296808 -1.2047320380917188 -2.325395430567292 0.6173208405834788
Ni 0.17917770944462613 3.760444944884868 11.313315733789713 2.118072984495107 2.554268349116743 -1.5121601286382538
Ni 2.4755172972065487 6.014173552364871 4.548563497629268 -1.0895129350146977 -0.4078468953859299 2.5457117177959834
Ni 1.1873372596573928 2.0770621542373706 12.652588199344306 0.14500404764893737 0.06457788388138556 -0.7557482634561629
Ni 3.914727852895732 2.1260068834143087 12.054594264825313 0.09580753131962855 0.41744842303143587 -0.47362137067857785
Ni 1.2175059794937795 7.435327736702164 2.910548741895579 1.0160799147355275 -0.339345508080422 -0.32799820138840285
Ni 4.781134607453472 2.9168236113187977 6.378136539996945 -1.0322156439551256 -0.28914549018726327 -1.6145684531038516
Ni 2.949917612849357 2.911421653429878 4.342753575035395 -0.29918127715671056 0.8119898595577113 2.3662682575222536
Ni 5.625578384435156 1.3202272929143881 1.6193443556044607 0.08304226123416021 1.5689226302402786 2.6156488091067533
Ni 3.8843628681533464 7.308540607426941 3.1311589075913417 -0.1699874570671524 -1.0014858189714364 3.1700601546502045
Ni 9.320891418372137 1.9404430877663983 1.3871199804475214 1.0002028384939547 -0.28101026267463863 -0.7972276136468721
Ni 1.1355326704216149 2.520676917482082 9.532152832378824 -1.200733458455287 -2.9236409996868744 0.9074729176583856
Ni 3.042825680970026 7.681883188376178 1.2315492008153885 -0.5414373018812868 -0.14811713935662232 -3.4353874593719476
Ni 5.921545862681342 2.380347509692941 3.994725428580842 -0.032274800873305705 -0.025355705155969233 0.24092830705208826
Ni 1.7756086045711221 4.34133299095388 1.034988028268012 -0.12197647640551251 -0.7609156665897153 -2.9411566399731344
Ni 4.76301281446625 6.9099172373954785 10.581326140376595 1.075515078073709 -1.4809374231785464 -0.3442493731399426
Ni 8.907024807308101 3.81194111783979 5.944903255684781 -0.7254251869925894 -1.3665436442162981 -1.6725671411058225
P 2.2111484688261682 2.782298037178479 2.3950785927803366 0.20832594763603476 -1.2942545077335839 -0.5907261208140858
P 3.9903178795489826 5.703037600669347 13.357370803812037 -0.3082230756440047 -0.020612276933712887 0.3252484065574076
P 3.58174107499901 9.329470998548656 13.39108911466263 -1.913321127363576 0.7293078098764472 4.055930406437151
P 9.056774930585183 9.295844277987529 10.303606625414346 -1.6284315842391888 0.2760611461994794 -2.5482360268797337
P 8.72984432693071 2.362608900569812 8.100248938761538 -3.091008759742993 2.7055137496897017 1.5658648172505611
P 5.632634575103208 7.46426279141513 5.9972377601667555 -0.5871677140388661 -0.23319699984610162 -0.5675370842921322
P 5.227263430684548 3.387504239695533 2.280013151367194 1.100436009685105 0.4253897893656996 3.2267051568377587
P 2.8212426020973833 3.6952569582495527 6.678699420827876 1.1923655461065659 0.17330700835868865 -1.815417889857183
Ni 5.382976268724832 8.121058626366153 1.7791666069384433 1.544311773670134 1.3586585850412667 -1.4593812942743254
Ni 4.466792995626635 4.936922213076993 8.657232853874687 0.12142626032899731 0.04432299028709141 -0.2703931492804247
Ni 1.888302044406051 5.285815794307522 12.605259384560092 -0.8256565584115264 -2.085715136989692 -0.9248229789010588
Ni 5.405705614029075 1.6665694303669332 10.393557635617967 0.16613697297281066 -0.3498721186433587 -1.1786952477083248
Ni 1.0844196813307851 9.220095370219896 13.657632745120436 0.41002256288100997 0.35069538587560245 0.1693433957252503
Ni 6.088539259842605 0.5002250388930879 13.479495239677602 0.7476603442417059 -1.1580035236869282 -3.1847632651883346
Ni 2.6551183780912577 5.784936142158275 9.988994915693063 -0.9125464755265511 0.6661517460432527 0.6837198368340032
Ni 6.825345754805805 8.496634888864614 9.781721417657312 -1.2497284002967508 0.182035389370622 1.3694878144462865
Ni 2.757718194189106 5.345751358220394 2.6076054481333206 1.3395678869584027 -0.1728130994414056 -1.3503508365065195
Ni 8.402539885360047 0.2389226160202411 12.472165609638774 -0.45586224692294397 -0.31930350182788236 0.10534246739325728
Ni 5.127168328625162 9.177365696399587 3.9868187566534616 1.6420543172289461 -1.4708178182460412 1.7469609826363652
Ni 5.39997654796349 7.3031012657464025 13.131548402969822 -1.2857197307896955 -0.9487959447768883 1.6015507006879448
Ni 1.934872902815194 4.135011845009621 8.43971339315101 -0.4446998025482212 2.819576884785409 -0.6000258009484569
Ni 0.41951156359847763 3.8677177349350678 2.757168652452309 1.2726729249080662 1.057799920182133 1.2074784904886045
Ni 4.798826486837077 3.8346330793524133 0.44599704536562007 -0.607204063864451 -0.16239576076282355 -3.30837264921158
Ni 8.262621699278716 2.7037079612478174 12.625941967273203 -2.4958307738051406 -1.452424403340518 2.7115694689654783
Ni 0.6687736017856935 1.1281680634727076 7.309918200148094 2.8389717443722526 -0.765489916223959 -0.10170024265497968
Ni 7.508730811545715 3.5108614060897296 1.4105110188634162 -0.9651522746477248 0.28836541748812916 -0.03266020923718246
Ni 2.571266533490248 0.8082497245311342 10.75287101416745 -0.35437437738908645 0.25390029383172397 -1.1946078051735234
Ni 4.6401042535714785 4.838873873608737 4.09970939598918 0.9616465754873116 -0.5556639870036302 -0.545766268273944
Ni 8.733180830332689 4.765321263598712 7.961505538331826 0.11083588640766072 -0.5685940648017369 2.8878887817879297
Ni 3.4714401978276856 0.38833535057796387 5.740200827917616 0.14820018598873186 0.6637199966733085 -0.5345014939934021
Ni 8.037823614326854 9.056457168356424 7.9847320880645976 0.609503401421589 1.137556568686486 -0.5794988846396987
Ni 7.795324304043483 1.5758670059517743 10.448286571953124 0.18210095250123476 0.9355115689631566 -0.891024028073743
P 6.482760688410952 5.461603728447112 8.973923102409977 0.6528771404215337 -0.2560343094555913 1.218660732357669
P 6.051856414316639 2.5697898737213047 12.363173165174109 0.07511195064348998 0.5360541831925025 0.2760927707683632
P 2.504536465450657 8.691273599927994 4.1524962443497415 -0.02486642422437653 0.07362431035436998 0.07775247359013061
P 2.5872948341468165 3.5889094170419185 10.801334427027296 -0.790101287014736 -0.6937813348350632 -0.07271285428369413
P 0.22245599040694197 5.429706008248355 4.304630518937315 1.6017116517458414 -0.08425762169850004 -0.3582508296253572
P 0.5630139207012652 1.7868985096400056 5.30486096694773 -0.21946216675851235 0.3653355043862805 -1.2959092697281875
P 5.333153020444851 0.853868230848788 8.306359800877942 -0.34507058348965736 -0.9694182490129304 0.20100653115648612
P 6.4980039294435255 3.901979979953715 5.611347309560662 0.7034713084293175 0.28254983924761656 -0.969101231993144
Ni 4.3699689753338955 8.89421151273075 11.714253160522379 2.4310955384102844 0.8698113985518696 -3.3190982631592
Ni 4.642777194672224 4.188124866952057 11.002891008729737 0.4283154476529269 0.7860260885040978 0.31418263566154925
Ni 1.238786702872792 8.459475399995508 8.900454605931094 0.16435648403362016 1.290561632263029 -0.4916689722089081
Ni 8.797172535636202 5.599680762791219 1.8080558665066757 -0.9602838908118301 1.1536943547886132 -0.5874482213937625
Ni 4.405661150381962 7.326709130153686 8.167903321048904 0.3773677529604662 0.7164846899698499 -0.45922730674043494
Ni 6.613800223982816 4.9740817019460986 12.878396581264665 -0.49730997254476933 -1.3329141290873108 0.4968032081116799
Ni 2.6607913684694138 7.2604650514051405 12.216017477035372 2.469318586447225 0.8142866260116879 0.6809880397251369
Ni 8.516803444442967 7.326793243684829 3.936494565565789 0.7451134094501362 -0.20230493825293544 1.399220308513713
Ni 8.059094991757961 6.8406357255779024 13.278773251123052 -0.8164234698490327 -0.14262140634937373 -0.944132220752632
Ni 2.9905257564952987 2.048641126659164 0.3122939146409154 0.8103147858481334 1.3803011030117067 1.4160098692672258
Ni 7.531693805547573 0.04672880492873278 3.7032178366747797 -1.0392285849378489 1.9262887432678375 0.6504960417838668
Ni 0.6141203676285616 7.070331087231828 0.5842871673219538 2.6794011117630503 0.07599281058654656 -0.37352678194782124
Ni 6.313664452971131 5.809525331095553 1.2675367078172444 -0.27329721030109705 0.3986212630226038 1.7711200963810723
Ni 2.341346869086609 7.509095303513997 6.208424406590204 0.6854118798244453 0.8347173830622141 1.381425189313821
Ni 4.340949807089787 5.707439542132463 6.398968657876532 -0.5252030994106116 -0.8404172616604687 -0.7647761779863862
Ni 6.213971226671647 6.957684377136424 3.7055842306842512 -1.3584223006607443 0.14847015182066686 0.9206989294303562
Ni 7.172108459914062 3.9058492023862623 10.958093076638116 -0.33634580202214975 -0.9604453560903587 -2.558744639720542
Ni 7.101238136952688 1.7167197868235782 6.0168399513020825 0.8436488812238889 0.7398346775497001 0.19229383387383658
Ni 3.9069146404473987 2.7082500919295036 8.548241344004813 -1.4488348862170466 -1.4568780682364972 1.0340915208215997
Ni 2.296748005685358 0.6339253658334212 1.751056799425463 -1.9298931727896442 -2.0240336008194943 1.5735799265066321
Ni 9.314582903536461 6.1794940248511905 6.263727184126713 -0.8655366824359159 0.4865707317503944 -1.1516562413126616
Ni 8.461634313961495 2.451685130049552 3.506298714322653 -2.2576108668231507 -2.0721543675861214 2.688882054670292
Ni 3.0584707977625016 0.12553851063515475 7.990203205968013 1.403773217991718 0.8138667648654501 0.5233722168494599
Ni 9.135888379598507 6.909244329146339 9.571766567167703 -2.7243185411010304 0.41093401895168585 -2.3517548943974274
P 7.583189978502496 7.9381116961315605 2.128384492561266 -1.1697151556969017 -2.895369406435691 -0.1082447286417168
P 7.21773537758483 8.978455887143758 5.8806676211409545 1.2170327098359428 -1.100766139331014 0.01764008167926639
P 6.821317651258878 8.123507264717187 11.972056460499704 0.5140013171575213 1.1924575915997397 -1.5125115984404016
P 1.1866176216687305 6.528611908831433 7.875520948418963 1.2367206751831734 -1.2298244622839725 0.626662686809695
P 8.407764270238777 0.07216847512533883 0.9912732915385464 0.8997027867946634 1.6661159861638404 -1.8645529568209374
P -0.08776966596266231 4.416549179690944 13.541542053222146 -0.6478742878903035 0.3884039561699698 0.7196821138612252
P 3.1958095022221364 8.160750867117434 9.908756214552012 -0.4944208239224323 0.4222851822984469 -0.0012690965204107175
P 0.3462832579807453 6.140091508484955 11.253266149312404 0.46581035927459136 -0.9582295793859625 3.163180396811236
