# total energy = -340862.0125208124 ev
CRYSTAL
PRIMVEC
9.31888843266746 0.00000000000000 0.00000000000000
0.00000000000000 9.31888843266746 0.00000000000000
0.00000000000000 0.00000000000000 13.63913518888916
PRIMCOORD
 96 1
Ni 8.705258262938308 3.5367977251378533 0.42766988285565427 0.4313200388072056 0.5357559352257935 0.2540170219152464
Ni 8.005978194177949 0.6907150784060422 10.977444620932905 0.05229700963150348 -0.36473335202590734 -1.1179686192522293
Ni 8.315831234414118 7.621807018727238 7.888070958340711 0.6042146422188239 -0.7576634782010048 0.24305589491805235
Ni 1.226207296041984 7.6231209819956085 6.616098601228055 -0.6906088506443526 -1.6405445654526392 0.8889666313240819
Ni 6.637378282953748 8.221980709054163 9.747453856189091 0.30776747616382477 0.2588962043844187 -1.2756014114087708
Ni 5.428243190512145 6.206594027585405 2.164912905742729 -0.18275838357957555 1.6334136108348127 -0.14826420645744787
Ni 3.9153682486432424 8.436548115112444 2.6382723666727865 -1.5152040576709003 -0.5859284423151264 1.8351138256242137
Ni 9.027263133684793 2.58189122790476 11.962817360104166 -2.0260449748225686 1.367295177670342 -0.5878819664970714
Ni 3.5545222509282053 5.390203487948415 7.9706968825889515 -1.8468717374910903 -0.23777202081129375 0.13891284714953495
Ni 1.9092352233836407 2.55430731815742 5.583247989293027 -0.6628815599324132 -0.04904636390468973 0.890944323875743
Ni 2.177647166779803 1.3377450716385773 3.6081925250524813 0.7774514594612094 -0.8703618717387009 -0.906188137408691
Ni 0.9788467216050245 5.436574276766917 -0.05330870125326349 0.268512387317944 1.1944350270410846 1.8934035625040422
Ni 4.115957322059289 4.407181904327577 10.142388347774322 0.40787106375564597 -0.24920777345206116 0.4162253492576122
Ni 7.897431781766794 5.123338480031326 8.148510592686586 1.1971693952531124 -1.3907230696759791 -2.252500542179779
Ni 1.5682664146858594 3.1218928556510863 8.086329377760876 4.037379897128473 0.14432244820088047 1.1178336363362618
Ni 4.0284809163841935 1.3886448402331624 8.898553442381637 -0.21696382581669083 0.6954301832923959 1.0716373402858577
Ni 9.135259731678687 2.922477962176987 7.0192038941870925 -1.5071601043205012 -0.49410817777802 -1.439170109433773
Ni 5.197004293055895 3.8058526718355585 7.8892032032847315 1.772301004063051 -0.7952751179061917 1.4517559165185836
Ni 1.3476044555955655 5.0045040147954865 6.071051727286725 1.5412588457764231 0.2503886811340398 1.0613961221738235
Ni 1.0674973072220677 8.35492397137023 9.429812089004669 -0.39261593736878836 0.10199823351137273 -0.8269590792730338
Ni 7.003815613725679 1.8802068859299363 1.4996095041914237 -0.4233293072922451 0.6965424425199682 -1.2034290030095791
Ni 5.892389066453286 9.007917121307942 1.7805478974127131 1.2070144063679922 0.4716295370595297 3.067622262498252
Ni 4.164219845228706 2.5799435802232757 4.794279210744727 0.4993992509736303 0.2112894011397329 -0.6673267401879605
Ni 6.957500738237746 6.869250864823114 11.4343003304567 1.0599465342114909 0.03750622447557412 2.2280403522548853
P 6.121037312926509 6.452696552084563 8.183480653402082 0.5310022225908919 0.9838534506016539 -0.6896120339487221
P 2.5670462386387087 0.15276546989159578 12.38485304301616 1.0441733305376342 1.6964007531903107 2.3888294306522213
P 5.334392665152191 0.4037622745932214 10.436025590256657 0.338931560471455 1.8570689897390664 -0.3368139999078199
P 4.4575877718354695 1.128526707538058 3.312059684249084 0.6635824426541798 -1.6846240722703567 0.20787651880344196
P 7.816208350226989 3.3068261965078323 9.934500720941342 -0.41968656833333534 0.06110175240732702 0.3735604633992341
P 0.44784527630261095 4.827883122416655 1.9900178715007921 -0.21073969928385 -0.997969835398378 0.13870150246967727
P 2.754682057139619 2.7845211378865735 10.138732547843954 0.12265987562578232 -0.6072014927612897 0.14406199545064222
P 8.927793318602662 0.254016124552348 1.5308016875381458 -0.6585469371128013 -0.03333589514796839 1.1751196145419247
Ni 7.569323039099866 6.106304150321595 0.3170947484336897 0.0924985215510536 0.35214368828635484 0.08684749391286334
Ni 1.3404009548406013 1.261917276498676 10.963368439962176 0.23889430734119502 -0.31023933474308507 -0.43658128720614486
Ni 8.26933930004605 0.5683683241216315 6.991107445576203 -0.19578024976054023 -0.5078180711649448 -2.531789708398253
Ni 3.680727956910715 6.2720964943469095 13.039627032532492 -0.9497811915082933 -2.0408288179999623 -1.4128546114676959
Ni 2.419649380370573 1.0011747782788851 0.8102372776078789 1.0444363543910336 -1.954971970135143 -0.32386206773284226
Ni 1.8611963535364993 3.180219778322912 1.1390794167941014 -0.8809602160798377 0.8377389434973572 0.7361235472467
Ni 8.926320934231013 6.180538415540282 10.050119237780624 0.7297101875211884 1.1721127093948007 -0.003180197500194523
Ni 6.876556873350787 1.3408855370388653 8.870839068196304 -0.5325723952914893 1.034217761986819 -0.13177135100874723
Ni 3.4918434073604314 4.971729484193664 4.837460144054272 0.26159714825534947 -0.14900648394011112 0.7979218115004193
Ni 5.23891133431731 4.249506312123185 3.3477389123739636 -1.2584166720993681 -0.9973897945251919 -0.5916432333117165
Ni 7.8862304778761505 7.438728136667695 2.8046834848897304 -1.1253641403853523 -0.7863523614952651 -0.4694492415787592
Ni 6.801707561495842 4.360671332182652 1.6236849122792574 -0.20242218055709008 -0.9385390429355708 -0.2273711371929439
Ni 8.039731208064728 4.930446808456935 11.917275952355773 1.2807731854176976 -1.9945813569966488 0.21669231732285907
Ni 0.1817155286825036 7.655112725969466 0.4772547562930269 0.3351337839919196 1.0344782147370573 0.15269653119718862
Ni 6.312736166782096 8.732199169384105 7.411328740911232 -1.7207897235576366 -0.08342047050918537 -0.7014859025681724
Ni 5.739317005132404 4.383390782170495 5.637709437044853 -0.5352265450848847 -0.5021030230580384 2.11157632102717
Ni 1.8365478936440278 3.8680562520934965 3.609405844325827 -1.8947410503685433 -1.409829708598443 0.8776244668383851
Ni 2.063099390220916 3.646909710804939 12.608603281731545 -1.5540002046024914 0.5555228334400756 -1.9535833173177326
Ni 7.627482221779985 0.3257016737859341 13.254457231244444 -0.9429466850849632 -0.8611956318584006 1.00834269399227
Ni 3.928545156880654 8.177902366788988 0.3154583516257056 -1.336062959128938 1.6158259796600365 1.1868464160605494
Ni 6.610949915371499 5.2087554113638 9.89929768801514 -2.139787493354063 -0.919878747521906 1.3946082636629982
Ni 4.575257376017789 6.975877586218068 6.675265155747258 -0.28704052802911856 0.4150179592130724 0.08988910895266455
Ni 6.670982194625678 1.539461730554431 5.455544737940112 -0.8403797235543139 -0.3928028565686138 -1.4940400219987755
Ni 0.16380369323474595 1.0324303300669186 4.8451938895607976 -0.4530088366345489 -0.21657430368775601 0.660373963019211
P -0.06901941525429083 3.7769454799314204 5.021793348496243 0.11571301199430395 0.14055835317275792 -0.9073659597668761
P 2.336450344484001 8.893248199199489 5.3937185726635155 0.487821830548676 3.381896943652976 -0.8642272195958729
P 7.140831230284849 2.924500160965897 3.486476659514657 -0.39453963675406245 0.0926756705588662 0.03156440506984241
P 8.63577663081798 8.12651801599614 11.971164288469266 0.8756742850905499 0.1397955068648044 -0.09393705376979307
P 3.477734610280204 8.149339973756693 8.227385664342494 -1.467580542255666 0.606910186773116 0.5623966777417734
P 4.889341191600341 6.2685087223020695 11.121896710457744 -2.2141831346568193 0.5567507923099057 -1.5466602192976524
P 4.981710013700218 6.5994224503858705 4.505456106024376 -0.8379592870382794 -0.5623745662545863 -1.9512099319895493
P 9.111524522852175 0.9597336814388776 8.740340150314942 1.9880774944398598 -0.5277636610489362 2.5845546588051103
Ni 8.604409252368809 5.915611736416249 5.880377019269394 1.095867416477816 0.12635660775107915 0.5015715760346007
Ni 1.5663933181118 7.764712172773003 11.871407451623549 -1.6245453618109056 -1.5686266962664146 0.23604115416311605
Ni 7.575678521007869 0.4754468919379647 3.306126347986878 0.28621340414213287 0.9218618393902059 0.22964862037321093
Ni 4.819831602814729 8.940970226840074 5.110883785647096 -0.47484110201829194 -0.5856589907038235 -0.9321549937860978
Ni 4.1054269781354735 4.287946726889327 0.5970257698158954 0.8229756691452536 0.3874583044272488 -0.53178203817971
Ni 0.3815507040247128 1.280694836681409 13.539296511161762 1.2796421571370478 -0.12942213405028033 0.2583544729483357
Ni 1.5653309648309905 0.5913198144313356 7.144124525455359 0.21330720290071004 0.6755560700762882 0.7665445827407186
Ni 7.203538030517907 5.1087357818644055 4.226195112720155 2.1472220952552377 0.174829358540486 -2.4719331412519363
Ni 5.265936110758961 0.765963238685712 0.04424049092382538 -0.6230592857291527 2.834815556112034 -2.2501418121396153
Ni 4.589962581957418 1.1993968540341804 6.7712990966659286 -0.07844564300241329 0.36045632191710825 -0.3559687184593998
Ni 9.186998200231807 2.3764749702829286 2.6597402899447284 0.3773101602496534 0.09350870798312283 0.002262827892247716
Ni 2.857348250952608 6.579610493587612 10.257829805733468 0.08144869149479521 -0.378283065685884 -0.7511706713878096
Ni 3.932561597793189 2.3782735157495627 1.7337391208380881 1.2884034482694455 -0.08055677580814513 0.7833536838782573
Ni 2.612438544172254 7.1181304180738625 4.527374131607397 0.4351885206236763 -0.8555713436930878 -1.1891382974185196
Ni 5.6512162339326215 4.8633974062163565 12.387744694095415 0.5962874169519473 0.3408568025186259 0.37210521900994625
Ni 0.6157492804457454 8.393774417227212 3.294928771651606 1.3143859883761362 1.6684993987943524 -0.4033117265197376
Ni 5.792602409164597 2.6198284226957815 10.862316277624945 0.8559289841428227 -0.28302112245708033 -0.010463618535485204
Ni 5.090619862760072 8.208151478626782 11.986112717396871 -0.10062783552640735 1.0659726858009126 -0.4307610809799419
Ni 0.7165116253528622 3.52721790783371 10.208101421414302 -0.13637773943250706 1.3712814160115996 -0.028174405551686963
Ni 3.1835745781570477 9.063522928558747 10.39577637924661 0.6041033134519402 -0.8339902750882023 -0.5979360082989638
Ni 6.714995304671855 6.998522485098486 5.630862849716688 -0.5197986405655887 0.8999928072312564 0.6200670358700482
Ni 0.5177360076249343 6.174136339190139 3.691268551611802 -0.08380176510800406 -1.7901622006141877 0.4531258218283874
Ni 2.747208308620239 5.298179464720379 2.251234701141576 0.6292355897431937 2.1330620017047717 -1.113840970237101
Ni 3.86106708577238 2.498850613121467 12.349131879893353 1.0891282979817694 -1.4388885736376122 0.008208246842405217
P 6.165954355150218 7.733559128757678 0.2792050799736523 0.20617650539319976 -1.3176420334195889 -1.5681248169293316
P 0.7889939395470555 6.0258448676329 8.207268048003792 -0.030411779522637943 0.2971195095316754 -0.9823249297722696
P 8.03365529280957 8.49785708208128 4.905764800566123 0.7925145244419189 -0.027746573985648986 0.5750922709315708
P 0.954654887245533 5.40296104620656 11.548814559017245 0.6965961785760391 -0.25916179934097944 -1.1414024247951375
P 2.254164559663388 7.416288253332698 1.583612760149346 -0.7142162056506474 -0.3177785805429237 0.08609930289292914
P 5.960687199743237 3.080321294373085 13.209775025009124 0.10488481103054839 -3.0869014224428386 2.106460339956843
P 7.086371646310708 2.986722379000691 6.895632637963222 -1.77313918369363 0.7880348914040106 0.9990299012317764
P 3.5155972539638 3.3991204675002846 6.721651786676087 -0.5551834478227858 0.5949417015573302 0.3682593629012948
