# total energy = -381164.5703672213 ev
CRYSTAL
PRIMVEC
9.36032284402837 0.00000000000000 0.00000000000000

0.00000000000000 9.36032284402837 0.00000000000000

0.00000000000000 0.00000000000000 13.69977863817333

PRIMCOORD
 96 1
Ni 0.8042894982109169 4.668648304490396 5.8963304850248734 1.0008643833373536 0.4404857644668736 2.5348966294583506
Ni 3.3649986784912467 4.695203540851523 5.789745423015527 0.20135054475946612 0.37278116203104833 -0.23960316048276153
Ni 1.825122580851013 6.727750879461637 12.165006194841043 0.07511426463633517 -1.2580076095864074 -0.26787423951331285
Ni 1.9803822585112216 6.6499946762709845 6.2791836084199755 0.5565736433020931 1.9560261224312698 -1.0820369383526267
Ni 2.3278468087267274 3.6031627369940713 3.9563183635957477 0.1089972905370252 0.09101268103414649 -0.5440469715899922
Ni 3.074903547964619 8.667350210646307 0.8765203027325623 -1.0285705910033704 -0.07453242399093615 -0.23612600056743852
Ni 2.324645578259507 9.08959438133733 6.139131647543667 -1.2084542241383123 0.5222077642277135 -0.18675413500253
Ni 1.0826149585928568 3.017318840846659 1.867225313721069 0.7774098075899967 -0.0843362974552354 0.2613832324723305
Ni 1.4389811759847575 1.7739309743444909 4.960032351494615 -0.51626208816724 -0.52616752020641 -0.6027704535731296
Ni 4.963255110704745 2.175676037657697 13.341789746979009 -0.495751626918714 -0.3441565563158202 -0.581332852524644
Ni 7.439706407436143 1.0087432894486856 0.7799517223693357 1.1001580734333698 -1.5813037775134509 0.936725900986232
Ni 5.7017939560093875 5.3742294524994705 3.191500411458583 -0.5825042471249258 1.076726581883307 -1.0277128709887655
Ni 7.670176280430033 5.986272892733874 4.408575473965416 1.4314429159928443 -0.3124959919877457 -0.8119278959715241
Ni 6.583985678449813 5.018228287704708 1.0928888491215747 0.8082468475755112 -0.8381845156752081 0.4825564683846787
Ni 1.276476608319786 4.554798695797979 11.37370695289448 -0.8026086754531274 -0.061980812578170674 -2.1024383632816437
Ni 7.7657638989424855 8.320316235288965 4.777071733937643 -1.582244029939533 1.309948007209441 -3.7492687617429943
Ni 8.163530824979174 3.01207705996466 1.5277994089010285 -0.09376221875482561 1.106991037194803 0.08308468443632143
Ni 1.3109600382649367 1.659201495289739 7.257101482153306 0.5635485319580295 0.6501628268141642 0.8863777875509832
Ni 5.9954179283083615 5.685984370456358 10.475837625455375 0.16499823138267714 -0.08911854933522716 -0.46821202673754847
Ni 8.180838062212773 7.6247599932167125 9.199881451094589 -2.001549560784366 0.0530274600396248 1.135576819252296
Ni 2.6082165636526473 1.0971234592483896 9.58835170432413 -0.8902262147627958 -0.13222283672386906 0.3578543655178869
Ni 9.26394911792482 2.584684711621673 13.080589933564402 -0.42746852627159926 -0.48719910936301253 -0.27399912146412814
Ni 5.606842839461177 3.252188065652226 11.211446689659901 0.02498006698410537 2.2944516898005842 2.004453878915354
Ni 5.209497127959649 1.11933550573586 10.549227237964864 -0.5095407102830063 -0.39638980258892376 0.07812708332072996
P 0.16663808630334764 7.3170580951203705 13.254892252343073 -0.9424571470430544 0.7479619346425248 1.3099518638641827
Ni 5.761157124498025 4.956356552651113 5.366394862145482 -0.38606348096225124 -0.9487622633254756 1.3338456397626448
P 1.9893681685946483 0.14785940629358638 2.530951777419682 -0.542157210766447 0.48992139339018204 0.7023402801486679
Ni 3.971659932998598 1.2994936425855639 1.9325865771903947 -2.3516070559656534 -0.8135055248712894 0.8414924970025184
P 7.007643257914375 3.7103665163539534 13.057560730878718 0.2938104997631005 -0.544588703026075 -0.025689177235988018
P 3.0453904495343638 3.0854526319896416 7.325655551799149 -0.3014952700018679 0.19561981292327602 0.38963782857707085
P 7.288883522879625 8.751649279616455 2.4503425477775416 -0.2616927932929493 0.4120635045704388 -0.17516643016493058
Ni 0.5040824107435325 0.14432026816593674 0.7699109038834065 0.9618782318821434 2.4163047532543547 -1.6333400772843998
Ni 1.7552009680143483 6.196187496411924 1.2358528064842944 -0.8368881654612877 1.249456377582287 -1.8426749258009234
Ni 3.280147350463889 3.2952174704996358 11.734477202259558 0.2959892525819741 -0.008602654067346475 0.23180500459458142
Ni 0.6270648865905322 8.717437299038407 4.277454197266813 2.367501872819039 -0.7733788320537326 -0.03282373139824024
Ni 4.754781996769243 2.647866891895768 6.00509275816485 0.1379723376131366 -0.026252248828309625 -0.48220525569284695
Ni 3.3685930425246173 8.42225951312084 10.479344002452512 0.840056021666308 -0.7226239700983684 0.23432777101643515
Ni 2.2493605003417967 5.1445552069608835 7.936405395394459 0.48167920798604785 -0.1677354278081821 -0.17029470389492607
Ni 3.2389244879561683 5.377393241674676 2.5334594079523383 1.7469656106220557 -1.6046442520116042 1.0354045832060685
Ni 8.155162696213983 4.234947098443003 11.117439093670452 -0.1516449500042227 0.00657482500404029 0.7305578802334645
Ni 0.29858868762006724 6.436935004063734 8.000643420103357 -0.4869677100784969 -1.5107439650170176 -1.6417933502580757
Ni 6.856099628486583 2.692515632622795 9.524429122500454 -0.15680566826955575 1.2436253727228066 -0.6011030931730357
Ni 8.641721646262532 1.310342256946701 6.070823754392817 1.1698519383850818 0.2575510032104339 -1.2058890345142972
Ni 6.946567150316084 3.0255652854128035 3.583245841707076 2.098731603854018 0.7553014057267314 1.580737877707652
Ni 4.105353426458582 5.8809786192667195 8.865305129622696 0.01849394503912944 0.03991971901307318 1.934866457634519
Ni 8.79123408559855 3.626526103210981 7.645394825278082 -0.5142160042714886 -0.24911624217951936 0.023787589337900965
Ni 2.9422771313270415 7.645446307054602 3.3885988608801467 -1.9786454024926825 0.22147276943063793 -0.44757429588253883
Ni 4.7949190618085495 3.2622036112660457 3.6147966824552076 -2.545058657593017 -0.2983153296119894 0.12786995907181203
Ni 2.3764081644692467 1.7798654191287544 13.522175339677702 0.28341578679233775 -1.0005417098906122 0.01149257402063182
Ni 7.100843994060917 1.3953059088501019 12.269659286182453 -0.7973458843922914 -0.009991821105389244 -0.6075827873601085
Ni 9.309000352541 7.841404669134331 1.9236952063693038 -0.7658015339271069 -1.974313093665916 1.742624817154857
Ni 5.280963194091902 6.665177120182775 7.12647443050929 0.23521531582771105 -0.6509647538901693 -2.185666001053732
Ni 5.895655605736316 7.9422808701438 11.65153818822183 0.2790112299667388 2.265817571003659 -1.1740932301599392
Ni 8.71332811723984 1.058427883951633 3.655471030034919 -1.252815523862507 1.2792624052001256 -1.4712073403749757
Ni 4.534093661314083 8.661378324570029 6.066302718382094 1.3068943079847817 -0.42231526420543397 0.07836876701789083
Ni 9.168679750394489 5.106823744933495 13.559465930491621 -1.193313768952448 0.3760387497363975 -0.47650486287396
P 7.934848773678966 5.071441723980001 9.112627328152213 -0.4286314362314489 0.7097340015095777 -0.38664017940132767
Ni 7.701720568952062 5.617373202840193 6.751538268310608 0.19147108086222508 1.1807174203446762 0.25868640236645774
P 6.065891800202237 0.847480836646288 8.715278808553784 0.34470985771612894 -1.258486606105355 -1.0495772751620247
Ni 1.3130193093257219 3.4941524152945003 8.974492361427036 -0.48983140477953707 -1.81148847289579 1.6459148286256169
P 4.2879546076122175 6.586063670156604 4.728478553096912 0.033185485613033174 -0.7648062598933731 1.2935235431048302
P 3.748023095797314 5.432591066426727 11.140263305282355 0.24382722586643812 0.0431582805550289 0.03735915737474856
P 9.229718416700766 7.260737031607892 5.736741657975515 1.0202499869528172 -1.5686302958108405 1.5308973000364408
Ni 3.6777925923015315 0.8013260199479868 4.463936168337728 -0.6882794311802276 0.5428400957660844 -0.8020355765584768
Ni 5.538475040243106 7.965616155391699 8.867140688963698 0.3123270705100492 1.4868645872962587 1.3462393854413073
Ni 6.584341370723948 1.273172414299526 6.779595836513809 -1.6993865752915118 0.7745731094721499 -0.3766123628516804
Ni 7.782443994534845 6.72125481529716 11.885872938583894 2.150643976452593 0.17263569332327688 -0.23086886593355727
Ni 7.1646158746842366 7.348705347195439 0.608202899706039 0.8226080013931897 0.5158651098391374 0.47266980539858594
Ni 1.1030391833866455 7.212025910697316 9.905200510059563 1.879298747671544 -1.5722074716391374 0.5671989842264231
Ni 3.913045590350245 7.444920107349131 12.698640081339144 0.3505177226471576 0.004425382761205281 0.2943262630572544
Ni 3.781467529889068 3.17095918262725 9.481233103903582 0.8305082300768728 0.7800223055121792 -1.231019768143654
Ni 5.077432330702286 8.139727523581097 3.5613670227185326 2.8620072860354773 1.0606718424132895 -0.8555962833937523
Ni 5.7919806681487795 6.021814039178427 12.946920776944227 -0.25924741707625026 -0.5706627744053074 -1.284849669479916
Ni 8.830210470585413 1.7044024950739762 10.795288600985797 -0.7770873912535713 1.526918775004667 -0.00981004411188633
Ni 4.01042103055638 4.7609223686595845 13.629649632372386 -0.13343305498188635 0.1493137307678848 0.14535448900982065
Ni 4.0161682688805715 1.1300530755749474 7.82440913065675 0.8349978904171104 -0.32018410466062275 -1.0812977461937572
Ni 5.8384733925075105 2.3232602504549784 1.7269253042851653 1.3163148299677332 1.2691913941173691 -0.026165345541458166
Ni 8.31157369360363 1.45889058301335 8.470258313450845 1.378288443457052 -2.0385027409699474 -0.48817535723335287
Ni 3.132310408945511 8.241418072691877 8.22729240924719 -0.42223993088280826 -0.6783953392972962 -0.6202053612201254
Ni 0.3429229214941742 8.869626790753445 7.766610072142007 0.2086553059509955 -0.6141115896175617 -1.7551723148025642
Ni 9.115410152181175 5.405043635827221 2.1894984266370683 -0.9829419945309781 -0.9098252199406459 0.3115079170428635
Ni 7.245872838678224 8.372902529923019 6.79499450388698 -0.4729166313020694 -0.47618707452322506 3.0739047530728545
Ni 1.3013657071862774 5.891368577800682 3.901930206783507 -0.40225860266487495 0.45634972808232377 0.23944889429308439
Ni 5.997767369382258 4.37507113380644 7.883537355037999 -0.335410434692074 -0.19684674335184163 0.4373230504681758
Ni 1.7621369673599934 3.9827612760808315 13.398876484913181 0.9225251840058177 0.541161679622397 2.408481143444878
Ni 1.8465483602061838 9.061709979109695 12.134962366096486 -0.23327156183777892 0.9598342048689211 0.8720850250773947
Ni 5.41398274429563 9.102820517741373 0.7030126753768948 0.08245784948559992 -0.041127109057613034 -0.4739944377472804
Ni 6.044147769864944 0.8838091862554419 4.502035491059158 0.44842378836702773 0.19100211164560654 -0.5370492001159203
P 7.867061314487115 9.071547678586448 10.851937275803401 -0.7649952359757277 -0.9013950868954219 0.616067684902668
Ni 9.241269055287171 3.877888217148838 4.227107827927513 -1.6269143762637142 -1.8920290507540187 -2.9333320017223934
P 7.563112905915204 3.6110254083170696 5.797472369654975 0.06263053034702762 -0.6356358368425827 -0.73837094851998
Ni 4.619300681615576 6.827017104914493 1.241275241600262 0.46398770424355573 -0.19058687848505887 0.6282575421006407
P 1.4646191006915346 2.197466869610007 11.015046520334405 0.69245130316973 0.6073035655567927 0.8106143193664233
P 4.162938133576542 0.3963160759711357 12.168445177512554 -1.2389644769120276 -1.3596410035591937 2.1778254219633912
P 3.4534911721669936 3.361741286086005 1.4697672783434979 -0.5797585660589886 -0.10961512662668219 0.4740011226154998
Ni 0.5378011022992911 9.25222999352435 9.983084013643063 0.3562487115936639 1.0195599028643278 0.5166505818549102
