# total energy = -340858.9646621426 ev
CRYSTAL
PRIMVEC
9.38281990236772 0.00000000000000 0.00000000000000

0.00000000000000 9.38281990236772 0.00000000000000

0.00000000000000 0.00000000000000 13.73270535708495

PRIMCOORD
 96 1
Ni 3.8813160513595095 9.177467517585507 1.0576774365493944 -0.6772308866755499 -0.9918873766497239 -0.8157418704009758
Ni 5.449898353340541 5.0653903932554645 6.202005493743262 -0.40011455973867865 -0.4813987006311516 -0.31298321603680934
Ni 6.750892014187696 5.550669839219354 8.28110984210343 0.7027673403837574 0.56605690020218 -0.43347410903573086
Ni 6.534683694904133 0.45180342107390425 11.297869409516158 -0.01939794491063756 1.9966999460015484 -0.581542911652921
Ni 2.224000421449621 3.033287404691641 9.273339294905108 -1.1272716418207103 0.34451136855207765 -0.8591297504683075
Ni 1.4358810799341004 2.5309687577635147 6.506665656358256 1.6745823717636383 1.0542073177348683 -0.3648590789704942
Ni 8.267258923346047 3.1183614328539493 13.149079136389592 1.2017243616136464 -0.33302882183377486 -1.2876112913854534
Ni 1.9397478921480749 0.6203010393756077 8.97857988386361 -2.4940790812213565 0.7332128013578083 2.497924680219691
Ni 8.901218533670797 6.219120695548806 10.049716975579964 -1.2400854778903483 -0.22061479230571682 0.1399734272035654
Ni 5.6037109201944855 0.27451316223057753 6.407570880398116 0.7848001865167968 0.19004386149739527 0.5054274594455811
Ni 5.800618778914481 7.622058694764052 11.346496812003638 -0.8426646629337488 -2.2673067539546756 -0.23607097895978696
Ni 3.2831143677278845 7.520536583292101 2.83875621425592 1.045956647690302 0.45068995869338513 -0.3296236528069678
Ni 7.498674612891949 3.285826002683096 7.585521055736055 0.5434358203685544 0.8289156887787725 -0.139640726454495
Ni 4.071965569196715 4.716490234744886 8.77773968531756 -0.03239127184651196 2.7574312644945995 -1.4000782856386338
Ni 4.1850285491631665 1.5189940987343349 2.430825920818956 -0.36110141170027493 0.22025046698776263 0.678169082219103
Ni 2.2529182724252728 7.940061227297077 8.68461801251482 0.19959422418999173 -2.6677223898735414 -0.4220306430854796
Ni 6.632602803529019 4.716630977043599 1.7022508927611193 -0.851324909711908 -0.7095005453425329 0.360313882801973
Ni 3.0116318563296023 7.644371040520086 10.963601758661818 1.0055970129263325 -0.4450620709836464 -0.8220580424269908
Ni 1.3896613090366117 5.510267416668686 0.3613886918164175 -1.0817039804932402 1.9503599252844281 -1.1163452247161936
Ni 4.798402252596099 3.837751618497748 3.2804271281044493 -0.5455011875380154 -0.35833387625746677 -0.6077429670870566
Ni 0.0005789199887078865 1.0118714480101232 11.425528304141183 0.14312971344435996 1.199715558713734 -0.6999391269063429
Ni 6.966227731219235 1.5232351333355658 4.811130047809749 -0.6520063077808061 0.061546810364545616 0.09864654343032044
Ni 5.338955890674706 6.56383611637764 13.68303383722252 -2.524612473923523 1.3885566581522795 -0.23706033945624977
Ni 7.83952431191612 1.943698059331965 9.683575885476989 -1.6193861862074692 -0.06797096872333455 1.1029227806627004
P 0.9945226139887152 2.019905322675327 13.40739098347427 -1.153964320620548 0.8319686166724833 -0.13066886197318786
P 6.142735158627074 1.0205224079710418 8.42699204956587 -1.1316504876146962 0.7811011403986547 0.6302000105389921
P 7.012325525457839 7.435631445888249 7.279816585264608 1.1999382162475012 0.4774152905033714 -1.5183518592712624
P 9.605568058992088 1.0685155318323196 5.819948326219783 -1.6461030333770232 -2.1237785195203163 -1.2302484371952684
P 7.288433767073835 6.6548307039058265 12.533386938155854 1.3576885078185132 0.4534924611391867 -0.44867241404272407
P 3.558790999627826 3.9478120960916456 10.550851510634915 -0.5163379357104978 -0.08048041404425495 2.7280687521720823
P 6.799907865419624 3.669695931014005 5.099310225527392 -0.14462866658738963 0.3565279333969795 0.21275930081704
P 6.481586317009515 2.6511439152249507 11.54390477502506 1.6065658945143493 0.45965513830647287 -0.4083734573133612
Ni 3.7603527370252787 5.577898782610444 11.927362797561734 0.6876811354745962 -1.071650195801664 -0.88144486902574
Ni 3.462504501668015 6.872474594636266 5.219870078605312 -0.32519312783943993 -0.0057330458290352874 -0.12870891003333962
Ni 9.060735855032592 0.21475398219685748 13.592013916080568 0.070581152652672 1.8244782002872386 0.8722048384847109
Ni 3.4023137119182407 9.163890577169617 6.784065912276441 -1.5583055168460647 -2.1104884872796297 -1.234080666457165
Ni 8.63374248637589 3.0438524599150623 1.7786326765548863 0.6002263469950372 0.3311002373524943 -0.04945825463112773
Ni 1.2511427386428593 0.8525849440182179 1.5605712503382634 0.37179411552743064 0.8238575575295747 0.9583205964378722
Ni 6.019397990854543 5.658225103896153 4.018505076171416 0.5222036504626555 -0.823974285613097 -1.6445757980992195
Ni 6.386012913363185 2.166943493551199 2.324919217601087 0.6080728396226496 0.5443022821339077 0.9049097849168996
Ni 3.043608506597292 7.12703049890928 13.406471467122676 -0.40766331862021404 1.4243433288335856 0.9271842800443838
Ni 1.9324574410747195 9.090329269042067 12.347747846152847 -3.228185083817395 -0.9833505428233066 2.074044642630299
Ni 6.3845304278167365 4.794273811833838 13.059445996030961 0.9799258334124736 -2.564399524013474 -1.8928911416439982
Ni 4.953631625257092 7.150009024879226 7.10346179356673 -0.6691545374253185 0.7975623712784715 0.9799204340958351
Ni 1.2763637585723049 5.178387693482517 7.309245799925585 1.257266360545009 -1.3191312163706055 0.8020533171702896
Ni 8.605331307675607 5.529661705431396 2.931259559226314 -2.8444368812518817 -0.012904623876810035 0.12858703974349467
Ni 2.739342422418697 5.074913955468407 2.7592433834567753 2.3671020662774587 -1.0022561214785577 0.724366663821088
Ni 6.72014451332877 1.6213043670790803 13.749459510805302 1.1989372857868126 -1.1434112276950503 -0.6711309444253989
Ni 8.022067073347433 5.991343359311 5.303488831398923 -1.0388377772573334 1.5918111048026777 0.3669457862961939
Ni 1.1450324282328515 6.5215195985644705 2.588505147759554 -0.6510467720810142 3.6750392137044576 -0.6603073714473336
Ni 4.628207282171911 8.89558884172226 9.72623018480707 -0.5117446599128607 1.9709279792437666 -1.394467624320076
Ni 3.040183777328599 1.5350011895080082 13.181639398055948 1.1927962058860813 -0.5138388234377279 1.123732261208884
Ni 7.044574277503042 8.33676685327065 9.492156038124827 0.7913860672644307 -0.6143473597774516 -0.8565707314918797
Ni 4.773584693922965 2.3024220302927416 9.838192559997584 0.7842093470103333 -1.0898104116504588 1.2798375609773056
Ni 6.9445252687576255 8.825987083598514 13.255507524394693 -0.49715133547971796 -2.258405594810304 0.7611393525647472
Ni 2.007857781905458 8.924544223977568 4.336019702068902 0.9421247034043001 0.8882634346094702 0.27018694680688954
P 1.745204504046465 8.186754328481967 1.1620547401212444 -0.021230113023369888 -0.5971839606242876 0.19797108676427194
P 7.797770763297804 8.230515800561928 3.6500980350591563 -0.0651772080282813 -1.0639471707304515 -0.15106516624135272
P 4.756432899119756 8.681416594360083 12.87126603639518 -0.8066103404133529 0.2364381324912186 0.48746804675368305
P 1.3291045893101823 6.561040036043201 11.850266981172496 0.25089030336080664 0.04676990916568719 -0.08799806257753878
P 3.169253848068724 3.6773992261635864 7.073208767317284 0.42553377114273166 0.24942220345571234 0.0069129250697493845
P 9.095958960990606 4.5849900136469754 8.783177029457855 -0.2673697890730686 -1.2912380895047635 -0.7251547069400222
P 8.105114412408266 0.8716001668563929 2.104578704427298 0.6514414364162717 -0.057626906484849146 0.08936640367997511
P 4.2633375641673155 0.3867626517104651 4.715879413168469 -0.8249983560022371 0.19596459785720444 -0.9451295516688948
Ni 3.393803494256036 1.6237063689771227 7.902883679950929 2.7210694380361136 1.6923558936969756 -1.4281377628790115
Ni 9.14403653023111 6.850875343193713 7.6653904336919405 -0.9514770911534777 0.9364952730326644 0.02596042861950368
Ni 5.930608366006201 7.730251991195018 4.80548534334935 0.03698686163699436 1.6761150063580812 0.6905157767099139
Ni 5.95242342230678 8.903930168626008 2.489808203363778 0.10908573648577341 0.9254043053258255 0.5315516673364588
Ni 0.3610499720175138 3.2909114910766077 10.6308850879393 -0.8101173251253468 0.7123732389046377 -0.2070393676141273
Ni 7.865355215139991 0.13295268162063226 7.513917942124604 0.3410822882658706 -1.4610409413649352 -1.2259148428169209
Ni 2.2787960897487145 3.5934136051113286 12.354175077794094 -1.3299915561238773 1.0477651616539503 -0.16030416834111746
Ni 1.8360020523564522 3.5961440057063694 1.2550281643693413 -1.2869633733888095 -3.871258607884946 0.7200927190360825
Ni 4.427124068590085 2.7774648197302065 5.384415653159142 0.20734198645621066 -0.8692372712159547 -0.330659807380966
Ni 9.040440815558116 8.094943435621243 11.28360095527259 -0.339827332812847 -0.15764564767234784 1.8457702768967954
Ni 9.041895152644821 4.135656150774497 5.908689160404571 0.21105183120763008 -1.1415985999663438 -0.830858157217124
Ni 8.98561699879928 2.320831122964458 4.0230651266497315 1.122420484375996 0.30315003199647145 0.13932550920692136
Ni 6.9079885680116195 7.141770908994532 1.3019263131466288 1.1278002606306705 -0.37037949456809116 2.6372013384665483
Ni 5.267458802928286 3.217819323944769 7.623780442218313 0.5943596038016151 -1.7321370302496557 0.03952248357465451
Ni -0.15759853468933574 1.8826252845102527 7.9499047436690935 2.2068536908749414 0.06272000473704037 0.49518829821607624
Ni 3.5878589757221055 4.682693317413835 0.4521318197709023 2.4063247592235073 0.48958509309668585 0.2548441458022321
Ni 0.10638522703349482 7.969251180050241 5.355370195832657 -0.4341145708332072 0.6651605857745769 0.12429432590541173
Ni 8.879994595024812 7.4443949996881384 0.21458978284835847 1.4653516529251474 -1.6866591004225144 -0.32751817642819075
Ni 4.642844481238107 3.0830538815167086 12.592547494279046 -0.36889031161707436 2.081088436850958 -4.939067575563649
Ni 2.4800951081885687 2.3539337116218553 3.7615940840999307 -0.7767166381777139 0.5193949773692668 0.17347618694670125
Ni 6.0325433215543764 4.694609498704906 10.223504627749309 -0.5660317033911993 -0.7905931390494901 1.8866657295595768
Ni 1.805536036094953 5.635668804822347 9.7915017715404 0.5851589111389536 -0.6464784359840415 0.4549500195213197
Ni 2.427654527687947 4.619809658348677 5.268332343462301 0.8812818610853146 -0.1309092601187681 -0.47189924578114856
Ni 9.041191441151254 5.130469632180553 12.343175598008642 0.1905683665422976 1.3019295077803386 -1.0010955255115532
P 8.573486016886715 5.142404579111452 0.7329868299815068 -0.022005043516181457 -0.6837049244356677 0.6750763022263923
P 5.076068042317857 2.5896582963270127 0.614904979642935 -1.682299537902238 0.019311041623786097 6.082099308432094
P 9.184767351478776 -0.14011083493319704 9.426156344566152 0.25368483538680825 0.7411875920331688 -0.41743531040531334
P 4.66883489240052 5.987674676724536 2.0329070962304736 0.9478533783579612 -0.48785988287546295 0.4410398371981308
P 1.8146373714117545 7.191237135582345 6.686564339137737 0.09535501716324223 0.7913963516770758 -0.8530202951364599
P 0.9152011927158206 4.718929767922584 3.7507728778928517 -0.6445971598009286 -2.467883653772911 1.4039578231986982
P 3.0958895791593726 0.7389890198806387 11.094858964723949 1.3436232879746988 0.47023908446990625 -2.9176564999686656
P 4.893037374251005 6.771468538259598 9.37198088066339 -0.02351376685122402 -0.37014243885662057 0.3047472012802622
