# total energy = -381173.5314683164 ev
CRYSTAL
PRIMVEC
9.17660349859043 0.00000000000000 0.00000000000000

0.00000000000000 9.17660349859043 0.00000000000000

0.00000000000000 0.00000000000000 13.43088680549122

PRIMCOORD
 96 1
Ni 0.351544658980992 7.043336653640908 2.226370588091577 0.21554097732723523 1.218639135091114 -0.22756756947446613
Ni 8.791378632106174 4.258090738465418 2.6748550485945017 -1.505408925957349 0.5782632124603848 0.9838261969081443
Ni 0.5961717957150477 5.8041006195503035 4.008501812348478 1.7363233004168612 0.20039255172157103 2.1541324492218257
Ni 0.23848431851156174 3.927485252803946 5.986858179442597 0.6866082141253916 -0.2478134642076958 -1.8705058319702625
Ni 7.331894943163349 8.425378987669442 2.442071236028284 0.13616356653917194 0.1307969029106199 1.2297018206631791
Ni 8.71511188240921 0.10787188898601521 12.495385148049921 0.44288846037109536 0.6660527585715432 -0.03388662544511584
Ni 3.6229229671954135 4.981106132746977 9.308437095792891 1.0092122410814168 -1.8355010337603033 0.4703103040274738
Ni 2.2573709892257705 5.823747727130764 11.76442281534488 -0.42728006440987704 -0.2783928796564496 -0.47124978512260773
Ni 2.8131152592772435 4.065767487334513 0.012005750045546505 0.22600356742145591 -0.14934998332245894 -0.43195664394993993
Ni 6.910569557669826 4.2704057400408395 6.229581171000125 -0.3381962249673272 -0.4984155469041223 0.6252953741485232
Ni 5.013178361141982 5.3350936035158805 1.0661515316950707 -0.0305534473068248 1.138136866669988 -0.7238064204422437
Ni 1.171732940507297 2.488254327256765 7.86484544837638 -1.217371067011968 0.21140201545819723 -0.02945841447043314
Ni 7.061350325841021 5.886451457208895 1.9278694489365216 0.9425304234831509 1.0488954186036517 -0.3988470058801647
Ni 2.427624509515478 4.3739545312308925 4.727040859559628 -0.020600449859170974 -0.2263270121991457 0.40193567210781744
Ni 7.520721908452052 5.374938414872422 4.208098439223556 -1.1478384102284682 -0.09083887446044356 -0.9755868397174875
Ni 5.909989444571753 6.262297596944008 5.546835464806063 0.45070615664330116 -1.2536750436493247 1.2641936837924614
Ni 1.7142812550703528 7.732784033196022 10.531400259321876 -0.2566387758088096 0.6505268950218022 0.8535573985868525
Ni 5.944052995874259 1.089134334560676 3.728655789961436 -0.6502962670682348 -0.24414064334179889 1.5189766373394549
Ni 0.5056326749672259 8.06258197777058 5.814459169310614 -0.33017206911127006 1.567739665675771 -0.46636160379237107
Ni 1.6068966437174634 6.085730573611163 8.990286096076398 -1.0122068049333666 0.5531458485674667 -0.8647823207683945
Ni 5.678592216758178 7.674127185155714 0.915157866328235 -0.022386081004684026 -1.8950853210818395 -2.0779146671086663
Ni 4.620126090293669 5.551450378585704 11.551663268753122 0.21413252701548283 0.08907998278780788 0.19463739440534866
Ni 6.262646307867902 8.584749056492347 7.7597219520668475 -0.3597456690033288 -0.33771080069047643 -0.3807446398524991
Ni 5.41740773476143 -0.05754005542351926 10.248397485413262 -1.6648947121622293 1.4976331386666724 -1.6125182554430424
P 2.6187364490160143 6.493300230817387 2.715712039290662 -0.3355071081709383 -0.4558216234929956 -0.10921969096047641
Ni 8.658455533879666 8.022012214756469 10.594672938802148 -0.2628287066696054 -0.5973839924502358 0.5245112155499095
P 6.486775665899262 6.143745059423244 12.562968995741919 0.15694785027437486 0.5760556632861047 0.4744184126585765
Ni 6.32624934506555 6.970676309025271 10.215303901075378 1.0169767155181841 -1.449871297901361 -1.0416143115612062
P 6.082426996437429 1.5758889013006616 8.602173590763144 -0.8017887506549933 0.5346285064895696 -0.05271764210868986
P 2.319212118597427 4.465977508725917 7.66026592593092 -0.33961753079488605 -0.7883843043236294 -0.648087175232058
P 3.1013431910823113 0.06460512227368073 9.969102059221843 0.4192677356283618 0.6554423300455485 -0.3202236996493066
Ni 8.43046282587569 2.999767369593238 9.984467363721011 -0.46468653008279326 -0.8544398011918058 -0.9033457828638894
Ni 5.1930673148550826 8.238148751348044 5.442356166045407 -1.241528638094778 3.246835351928731 0.9378733843271138
Ni 4.581997303746818 6.64453065254834 7.832557569804756 0.47674011881321765 1.754617984960991 -0.11933389657634286
Ni 5.53218868834218 2.087851597196893 6.25100303365114 -0.2024782306060061 -0.1728372678111217 0.25019481995567877
Ni 2.102580045429792 8.339715396233856 3.777302799165328 0.36860131962174586 -0.3843148737022607 1.3733390698715768
Ni 1.2244617028414024 7.800351363002149 13.300834887079741 1.4576640544729025 0.43264338560431936 -0.7649512701116696
Ni 8.482732758046776 5.581246809372137 10.14549013879111 0.6252982023620005 0.2989665900427432 -2.726115999321086
Ni 2.8393419913953903 8.453532806472268 1.5201483777765015 -1.004029925549529 0.45982097446037584 -0.672136502871778
Ni 3.9476646033735077 8.174830188851468 12.319642183689858 -0.864389199095034 -0.35716865230477196 -0.13138722819645113
Ni 2.096890551408361 4.0839922214096145 2.4334617468494018 0.17400249176381646 0.25693368134140915 -0.11207644368298118
Ni 7.1074535806211365 1.5258855901348871 11.38103809603137 0.7470610200948101 -0.05150973784351774 -0.6585538790913368
Ni 5.54471475179259 7.312890197811115 3.368386016600481 -0.41157448074916214 -0.9385560122164353 -0.17144732944213054
Ni 0.3470499587040612 2.1425716824384997 11.966892636700779 0.2917754716109427 1.746122031674838 0.32356921908277175
Ni 0.35193191163857984 3.1485659914601927 1.0593654335840248 1.5442097008746307 -3.121031274247012 -1.7424816067087734
Ni 4.14458533273786 2.59701542909871 2.9852967839119553 0.6015000715011383 0.04030821270074348 0.5810348616682509
Ni 7.35182652544488 2.890336375713286 -0.1270803549306288 0.4633012196994924 -0.3933985811710838 0.3970472336672646
Ni 8.94193916179912 6.351604299873961 12.091464108300022 -0.038683532613126924 -1.0762969505450561 0.9858679099285215
Ni 6.873670435959864 0.5842688236260174 0.5840155493760311 0.625117196699446 -1.4311773210362837 -1.5008192497041377
Ni 7.906414543485546 2.337134024764936 7.238831338858598 -0.3260307932493869 -1.3762037930138815 0.49340832349751795
Ni 7.420173866528141 1.8762391260126827 2.2659924079888913 2.523785092926221 0.8728974936763612 1.1272927248666327
Ni 0.09787397973383842 0.3859376503405455 1.6718495592547122 1.0111781065585361 0.3087820334712682 -1.6015144481333707
Ni 7.049741922716648 4.340358986694666 11.290352149631381 -0.950154515687312 0.1997376917463915 1.07844844967042
Ni 6.161850497655961 4.08365268708898 8.547322280094914 0.46324182721646673 -0.8937018320162221 1.4493627336960586
Ni 7.237137337896733 0.4379359550551252 5.55332240565082 0.6102076265774652 -1.0811403946802862 1.102203643108489
Ni 6.453326947015201 8.370484546965889 12.052340577959747 1.4860462051600214 -1.621336882175937 1.1614048360589933
P 4.878961361855761 3.765775150149646 4.898902120740552 -0.13603424005015927 -0.29961656492191624 -0.006397161775595434
Ni 2.8008736705279054 2.2629228341982968 9.338670332894518 1.6156298044888306 0.5301200770962547 1.428870784390294
P 8.960457547178555 4.14580582097149 12.755755665337473 0.06037438732299924 1.010228341050757 -1.82671685980977
Ni 8.751295229064864 4.410982125386499 8.076932349949152 -0.06038004374995407 1.2254240192234314 0.6435394079603755
P 0.4380983809328339 2.4090051815001807 3.345687688435947 -1.5752442015829322 0.26073582869631867 0.7933899850683368
P 6.762560123683263 6.022944254103688 7.852192747800978 0.35218302616472247 1.1408545227114675 -0.2596451667353012
P 2.972925805056646 8.163304375156438 6.185930822271507 0.8209439834272055 0.926920484860036 -1.0163491092365142
Ni 4.511557697120192 4.650050993525746 6.888499826828627 -0.8031709757145007 -0.988998485137703 -0.7486278503612978
Ni 2.1143811572226325 1.4051214912283734 2.7501756904953205 0.03932476574155164 -0.7684070898707541 1.0659546880787836
Ni 5.1620228660252385 2.8026722847669383 10.729182671732376 -0.4467975656175144 -0.1635051917769184 -1.4883098043832172
Ni 4.807218677566162 0.04896084903539617 2.1063387821252415 -0.2683372951926604 2.1501616374995356 0.6061774223721496
Ni 3.5652021326876655 6.384630895008046 5.140013700765559 -0.43106035738791565 0.6125079925758677 -0.3577273530217194
Ni 0.919458940276372 5.489792781279256 0.5551808266112859 0.10383605805105987 -0.28834407733189055 0.6469414916633891
Ni 3.2229331842822586 1.9339416073139104 0.8825543126044544 1.1866088461284465 -0.48290202464955545 -0.5747708830364101
Ni 5.253816428438753 3.842739321694398 12.854029744973465 -0.44648929034847623 -1.9279550752266668 0.63755002314616
Ni 7.514206520137187 2.6667392606710276 4.682047056113691 1.0767708048576812 -0.06533893041712618 -0.9391525081498535
Ni 3.180849281730186 6.408141352561122 0.41602681477098374 -0.2530759981582158 0.4243199533402886 0.5284791990587221
Ni 6.1306041635543895 3.7570114940359898 2.166764879274148 0.6519428015327223 0.3120398782869336 1.5516437885551728
Ni 1.4060116217446295 6.214065370207485 6.484646693942855 2.7915976259636635 -2.2781475533239215 0.8760298686577558
Ni 8.65269262703215 7.451043959896038 8.324275761248279 -0.16724126178058293 -0.42645499740542037 -0.6335627563636379
Ni 1.2921758582996976 4.083735276518325 10.096010811671503 0.24895529112162287 -0.5664716191420954 0.27158896936073873
Ni 7.783255351128075 0.3385148000115879 9.310115496529214 0.1623631077526752 1.9782875049326314 -1.2763367469128988
Ni 8.23066981969084 7.57204665048732 0.42723144735189966 -2.5155580770307386 -0.8053415010032582 0.3953019688413837
Ni 9.072623168830098 0.29180864239726545 4.023906576241668 0.14777595396711968 1.4844346376985273 -0.627680329440932
Ni 5.1546907600202 0.9721326429909153 12.456139568886282 -1.5365092469065795 1.8268377016583504 1.072119422128599
Ni 3.9316789604939366 0.7266172110612555 7.922678237443905 0.7718618811885739 -0.6957340876860598 -0.5496262654499825
Ni 0.9881641688867876 0.9088094921927087 10.105909613608466 -0.5797364545718016 -0.5683649795100664 -0.6206007968863313
Ni 4.229046789146337 5.067971859209671 3.1766326325320446 0.5092895135041486 0.06869113471881073 0.6303475918604499
Ni 1.4646042335621134 1.221332481129615 5.868988381204405 0.03203543116898999 -0.5466111327727425 -1.3050526267903524
Ni 8.410274298702866 6.176367884013872 6.2097707198816305 -2.195522582132838 -0.003239847093536356 0.23969494886561946
Ni 3.064985488964712 2.7894579760720006 6.252883319659191 0.646815507608486 0.2124489686654728 0.9767793173636918
Ni 2.8072789396036457 1.7308909069716287 11.907958655242009 0.8436761349173986 -0.8483743117240163 -1.3434507669525768
P 1.5688045635836534 0.8616344101517812 13.394542688933369 -0.8489867484970347 -0.7184680389484659 0.9390164967926216
Ni 3.661216932600952 0.9500170291334155 4.792260814251753 -0.01576677591595349 -0.701258874159031 -0.12594548835558955
P 3.1373980652923183 3.7363274302871083 11.248931715495035 0.592163881701877 0.8803647485876838 -0.180533865124431
Ni 1.8356418331887907 8.385203818595528 7.942340945249907 -0.14788728273400337 0.4346871555072256 1.1782306493670804
P 8.084798534263944 7.552940962499224 4.286360182469324 -0.3693096585426801 -0.7854362774388989 0.42494113186405524
P 5.552423098531304 2.182627555670029 0.9326613193870712 -2.2425688848883634 -0.39100257013508144 0.14887252946540813
P 9.218081507110277 0.47259598556955557 7.226353911405469 -1.6933033452119095 -0.017060297916396426 1.3329935761749947
Ni 3.985316206550819 7.092734308991498 10.09465450970962 -0.8173128144325216 2.0252983264645317 -0.6233073971842168
