# total energy = -340887.6279152448 ev
CRYSTAL
PRIMVEC
9.12486560526659 0.00000000000000 0.00000000000000

0.00000000000000 9.12486560526659 0.00000000000000

0.00000000000000 0.00000000000000 13.35516316885900

PRIMCOORD
 96 1
Ni 6.376109339680231 2.3462584432085585 11.128176011520264 0.8014372808528456 -1.5648649152311371 1.0813440260506602
Ni 4.600574740584031 0.6386119317248602 5.862623040046555 1.2598217799770108 -1.653013387343611 1.0044454158203926
Ni 2.9043169738615755 1.4344197481952263 4.612031921837309 -1.3346923040336562 2.2393452357447434 -0.554985987099999
Ni 3.612132798819137 4.175264754748374 4.490286139966112 0.6255977358802903 1.737680071555072 -1.15512774480103
Ni 4.122158036928947 2.9085509115021617 2.253510571742577 -0.7538045094662308 -2.1700439782457592 1.5111661401561007
Ni 5.089850034308724 4.890289223533659 2.250278544345388 0.4567109680764845 0.9623454013265491 0.63913330847288
Ni 5.397941996586243 4.428516274741569 11.570419010458586 0.06199649630745452 2.0007172946910576 0.07285709317104226
Ni 5.796808121899443 8.05724720409568 12.085034055967567 1.9843902753962597 0.8962960751059597 2.3499456091028303
Ni 2.218501199876976 6.302927917530436 0.07021857828794538 -0.9233659347395582 0.5148456674356875 0.42391294770985705
Ni 2.880793070332626 1.8076267514279742 0.31084310925733927 -0.057055607362411415 -0.5014353075670526 0.39858166803392003
Ni 8.104787753896233 -0.14001741275807397 7.064961868938079 -1.37598936301023 0.855347914828372 -0.1900654587639501
Ni 9.102108189894512 2.4358007493876035 1.302224170233512 -0.5665461811337728 0.12403978669244442 0.00554664084984206
Ni 7.100943038990582 0.54873109303188 4.858020961295713 -1.7518239671556217 1.3101392972846404 -0.3709348528509289
Ni 1.125369675029213 7.455507941792901 1.9743070214830185 -0.42442948233495936 -0.2816124150350118 0.398591695336249
Ni 7.328626685559373 4.112531303715975 3.675060609488917 1.0649087633127725 0.5066106811204049 -0.7942834434168837
Ni 7.896375823484595 3.86131462875263 12.497200585386194 0.3037413857235672 -0.1673001400429764 0.47887773398151073
Ni 8.707640249802784 7.202557542364662 9.273277893827075 -1.9969927946516188 -0.7365421228413573 0.8775007967763275
Ni 7.347515157361128 0.7114283592504672 0.2417441519790922 -0.6212559139718268 0.4377346840842977 -0.35083705365978934
Ni 1.742055467192509 6.543258627827359 9.426781857948914 3.646579158591552 1.0422491169317276 -1.5137819805123929
Ni 0.05599017535051692 5.077768712248085 1.3261586927146733 0.01515845290799325 0.04772610243136942 0.252078667241953
Ni 6.174668806590595 2.3219954255656274 6.751114853923668 1.6648512605188037 -0.7330456796523246 0.19621193798132014
Ni 3.6672561119372062 4.348792323953195 0.2327680216837363 -0.08751649495542992 0.005533014003087245 0.18750643978752224
Ni 5.89917086425311 5.767462554114687 4.989315002535682 -0.15693525186888457 1.0350981077092432 -0.9366253708526255
Ni 5.862397655866118 3.076202067257548 9.002742053405433 0.2796882014291054 0.06638176985934374 -0.4136599025232811
P 0.3343150010523417 5.584344751159313 12.235706574292264 0.3375056266582058 0.15541187324582267 0.7818380185646794
P 4.343134907278273 6.214580968745608 12.650291193096141 -0.1593492606270159 -0.20428237369428046 -0.11517282322011778
P 2.7091452234423765 8.876714884592506 1.4208957848824817 -0.42855610290882323 -0.47063991945275074 -1.4794698374940842
P 6.229828619171083 8.023047207809215 5.788087487841019 -0.9495083974628807 -1.6964565461289105 1.4286758947706686
P 5.136222601311874 1.0975114603380252 12.389304524529832 -0.0878895620241325 0.32861192371300174 0.5994773846441547
P 3.971789376628887 6.245048894999743 8.601806408573085 -0.9289426574963873 0.037223146017516535 -1.3666997101781884
P 4.859538426445777 0.9787148350302711 3.5489212048290506 0.6305224268754174 0.280553120532562 -0.3579487250039061
P 0.018202281908280826 6.051145500899599 3.4259463035608984 -0.3988264370548744 -0.6707504211575287 -0.4470053107529463
Ni 0.4146092559410108 0.19371177192244518 4.97300886770006 1.2437305308421032 -0.3279519215314997 0.10344447903959605
Ni 1.652084292330042 6.714331608184511 4.632505382794602 1.0539082984372108 0.6645718031506426 -0.028918997027195355
Ni 6.041892887176421 5.851128446844299 9.152146215411076 -0.3422575395208944 -0.41196374576778083 1.067079545711846
Ni 8.860153253519952 2.512568243720051 10.23223191990378 -0.19604918715121075 -0.021150923046002284 -0.46984930523065527
Ni 2.385677862620917 5.387119905979054 6.69002844113292 0.03775047927589628 -0.5033242970596492 0.4127425329153343
Ni 0.4754775844438071 0.04317247663557704 9.110691950968866 1.3570537024479918 1.9986321300272545 0.3337021937517156
Ni 1.6687462969242477 1.4341825016895038 11.47152462952127 -0.33127250126430047 -0.5284177496931673 0.08501378313823423
Ni 4.14998887702332 7.121373613079534 1.3342022617452274 0.8198888026898138 0.2249224185421352 0.17459770214565415
Ni 5.661121370357366 8.365001546345823 7.920386082350275 -0.281886751742321 0.12220556169718308 0.02319777827270198
Ni 5.561267966044995 2.8121923307163965 4.486627068858621 -0.2904356697535966 -0.2711634517875459 -0.24382722586643812
Ni 0.8002863005091592 7.688000392535376 7.008402301973828 1.4845305398464435 -0.6720511422468233 -0.3938562375337927
Ni 5.125373136107871 4.891521080390295 7.031733670838518 0.03053339270216677 0.11947736413274263 0.6478133527453811
Ni 1.1310088419729254 7.473894545986399 11.492131313516392 -0.5494504019937505 0.6215533906075876 0.39931648931741553
Ni 5.027408578975677 0.3443943275993073 10.163413095999598 -0.835219262399297 0.45349657490424483 0.2099254309126707
Ni 8.052766895083765 7.402693219672826 4.815764621166849 0.33024868798547635 -0.8676889528922281 0.03678348737693665
Ni 7.366932871367957 6.570897845744033 7.472400805486906 0.5197883561529435 0.1918390057246051 -2.670569886624665
Ni 2.5166196840485435 5.433145728089225 2.3398911119895898 -0.5532126972496602 -1.2783566055564048 0.38247010718403807
Ni 2.6370770348963557 5.2832333110694005 11.368569683389858 0.04248388019582361 -0.9215265675379742 -1.1724911757801422
Ni 0.718737376599842 3.497761733329668 3.75704752694726 0.7609537189165024 0.019043389784696236 -1.7651587365913148
Ni 1.4785202236628028 0.9871553357146303 2.6493308169169243 -0.7146736049030401 0.6443724453846322 0.10369516159782143
Ni 1.0245399100971382 3.5677859519802335 7.671913254474268 0.6226047146902374 -0.24523670461945507 0.2693785919729812
Ni 3.8609313843972326 2.9157504304642807 6.499490297467793 -0.989985788751637 -0.0956110990381063 0.8695434896024637
Ni 3.8214754655224548 7.098670947455008 6.12164603753473 1.339894674170202 0.6007932752421008 -0.27225102842476984
Ni 0.7722364636402723 -0.03854434480086677 0.15567476964920043 0.9555494614506381 1.2120740802790866 0.05485525727698294
P 0.4863498618118222 5.703232625123115 7.785713103376882 -0.8484403890752614 -0.10499742534901271 0.2311933391525115
P 8.841593276879966 1.797133155982555 7.859553340823338 -1.5412781290501327 -0.03515623618615881 0.9014393098697959
P 1.870606573831701 3.3560251958916663 10.396967681098461 0.60579818465586 0.9096606693383238 -0.08619134838610318
P 3.995952020750166 6.278719649081133 3.682112305628239 -0.51998118889004 -0.3824608512126575 0.6743476515904838
P 7.195294149343312 4.201708615270832 10.266555101875907 0.6974101898369022 0.06286630050691754 -0.3605056870978049
P 6.702852527253782 7.862248826122969 9.946484928519084 -0.0935596158257163 0.6714461616729726 0.2336268882946686
P 2.466086178329645 -0.3408447548790741 5.779313017075528 -0.5452602751718029 -0.770792302273479 0.17894158093664667
P 7.023847049496364 4.336318632671553 1.3848899776928458 0.8841589255227934 -3.0781164771613567 1.2942303393638679
Ni 5.559461242655262 2.902346002890958 13.8087047439397 1.039614764632674 -0.58588370512012 -1.296022141156968
Ni 1.5794868615789484 1.2571509840924735 7.048294389424511 0.9488818196224755 0.12978028872064745 -0.753748973637947
Ni 7.156732467297795 0.9474347957373161 9.195457390003844 0.6788231708633341 -0.27061220726976626 -0.7144180372488084
Ni 2.9985129614990242 1.8004089827346468 9.461038428402126 -0.7593997441658211 -0.9327736012067032 -0.6330963582501806
Ni 6.7696282937490695 1.785243456099614 2.3790349604606864 -0.6951339922082158 0.3330149378767039 0.4928550220972092
Ni 4.451875930689634 7.065529435578692 10.691062099538351 -1.9041916542584818 -0.8244216575631609 -2.199257366584922
Ni 8.462610233719435 7.310960945748649 13.243526993141886 -0.4748950951846789 -0.1816993461874419 0.5374567199669841
Ni 7.80331131918213 4.20923662939472 7.977613589476791 0.16620742119942988 -0.26778270824077105 0.07808620278046552
Ni 3.3010570054888775 8.964331844128957 12.377965966529414 0.36740549954143176 -1.2514081019920191 -0.07573210072599215
Ni 0.26401064902771204 4.926806935683719 9.987071418242284 -0.7977392631759681 -1.1142816573189456 0.6361153475821625
Ni 8.69192723123147 2.5638773630153504 5.6132952122633855 -0.32108090544327933 -0.340655228030781 0.9474119199451684
Ni 3.8691985126351023 2.835999105079092 11.617162047005287 -1.0142729434337758 -0.9996438806666912 -0.4761716479042573
Ni 1.3425506012869792 3.6454659328731522 12.814933880661652 -0.1489298650659048 -0.010932587752103751 -0.0018686777776225883
Ni 3.1121357880089064 8.747543287092192 8.145607840178915 0.4078019010806073 -0.5446722638788167 0.1647398355149679
Ni 5.581233171988106 7.6605527967964 3.393093137437691 0.6128106114179511 1.831558761283104 0.6359873066447306
Ni 3.2919686393465835 8.468988514777129 3.5631578201455234 -0.3494535430487014 -0.6460323495855583 -0.1329147205845711
Ni 3.8652748204250753 4.070958416020904 9.044490138520114 -1.7476394967606288 0.9625824570380197 0.29406041099037744
Ni 7.364022039240052 6.035012738510467 11.388709174266019 1.0506486538493325 1.2318497202441174 -2.0067048797330607
Ni 8.19568966505038 8.615351359076719 2.6143533820809397 0.0005188486179474936 0.2867404802901965 -0.281738913310547
Ni 4.786420878355214 0.42295303304996007 1.2858213118224806 0.8917513931580705 0.14201899687868444 -0.1410869719827183
Ni 6.511312473345259 5.742725043460312 0.056019374920451996 -2.3381576153289667 1.795082777844257 -0.49784810443642646
Ni 8.281244404960166 9.15360893136751 11.417595761310858 -0.031835913563674205 -0.41943382889258085 -0.7741283086252475
Ni 9.100657336263362 5.091173139821408 5.589683710024631 -0.38644220445790867 -0.07708655787135756 0.27307609542922645
Ni 7.06610430211179 6.357704485755526 2.2447087263802716 2.165632479441625 -0.9059217711211819 1.8769862974882836
P 8.497010977049202 1.466639648645467 3.5765394355548343 1.6659177541101053 1.6462297887628747 -1.114647011078164
P 2.0826684504852233 3.184541596582301 1.7181683940124923 -1.317358440740899 1.2724991183343635 0.46004774575920127
P 4.596450301330701 1.589186593716758 8.104447396409176 0.22179415732579863 -1.746789747165824 -0.3040481183307086
P 8.890986174398275 1.8932179908001792 12.39489989211864 -0.3082734692659658 -0.6621711641289499 1.068788300872837
P 6.6167229208109 8.021495980656415 1.1198035070103383 -0.6266202636075338 0.32129353567471763 -0.5199495643211561
P 1.9845943949657716 3.4667919394672735 5.538612749721614 -1.774486441750144 -0.7619518211637135 1.3575848923611133
P 6.98540399070371 4.135763211545573 5.923522393092407 -0.032490259318221464 0.3165663054023774 -0.23071331419229943
P 2.4221682001741627 8.72535161394153 10.289351753616161 0.5278400228128264 0.540046077960715 -0.5339134827004158
