# total energy = -381170.159197433 ev
CRYSTAL
PRIMVEC
9.26382389832020 0.00000000000000 0.00000000000000

0.00000000000000 9.26382389832020 0.00000000000000

0.00000000000000 0.00000000000000 13.55854267685782

PRIMCOORD
 96 1
Ni 8.29996002060929 8.135684632536394 6.151307793847514 -0.4894213138253119 -0.18649291092134335 -0.30028196642005706
Ni 0.8066205953771 8.612095300918782 12.960272043034356 0.4572686403521673 -0.866077128320418 0.1236284101866387
Ni 8.992958890262999 8.816473782375063 3.701725808087529 -0.23894572940442074 1.4763130370326576 0.46717098706754373
Ni 1.852950043553877 8.01842315042808 8.089134844145963 1.0151838852838193 0.20485984346430527 -0.2912211417693694
Ni 6.741349451777128 1.5139589379456027 11.540692942323664 0.10651309066259075 -0.42375122532101217 -1.0829638210422703
Ni 6.158228796634931 4.646483912585985 6.938041738597191 -0.052847997038967046 -0.149937994615445 -1.0323812229987124
Ni 1.480951933620123 3.8181498405211243 1.374442971837541 0.006033350678273481 -0.8599717867536285 0.20391599149379722
Ni 3.942868700816924 4.268556955397584 2.583607283480813 -0.5825854939848224 0.06797199716459908 -0.7324715523164095
Ni 9.060343944841597 2.09515271773004 12.888533917635511 1.2333005937580308 -0.50796848069988 0.8714013687468088
Ni 6.087953429019693 1.8679944934625434 2.452333341439094 -1.2115315775120554 0.3612299668583392 -0.8933570470822937
Ni 6.140664586643039 3.392634620290346 10.234543806182971 -0.5381807426172022 1.1958815296796244 0.35024698548427424
Ni 7.323099060991688 8.562913660176719 12.221860056174819 -0.04318656268980304 0.4498641203579801 -1.9270600742162234
Ni 3.8959289054430237 8.116693793673852 6.108828529650352 -0.8540309957891614 0.647417145748227 -1.226734767615055
Ni 7.578687960609984 3.948964296900608 12.81008415186793 -0.9495819310132935 1.5095046932932776 1.0461661925979466
Ni 2.347879095783201 0.9566380321849548 6.20883613986526 -0.13177212233969565 1.404193336248272 -1.212846439668737
Ni 8.599820734336895 5.345976722748299 1.4745589687913232 -0.8525346137492931 -1.0834567015182888 -1.3252393861508724
Ni 4.1681371050220015 3.8504713218827855 8.269653420931826 -0.6106028051333549 -1.027538035973798 -0.37423666353065227
Ni 5.883306296672185 0.3400119789949338 0.6955399365317554 -0.5214801420330697 -0.5594262822595398 -1.4722470944934
Ni 2.666184082767059 5.875015174339515 6.420037427576305 -0.6671693886744897 0.021237569222537618 0.30161019831317737
Ni 0.19979474142253364 4.2517801704317 3.556595964735224 -1.2701241903442835 -1.0473293596681124 -0.8696355350956378
Ni 3.837446385570233 6.813069975910685 2.0226632962181457 -0.3451801124843281 -1.0531948173099541 -1.0648030909728436
Ni 5.98701480450933 7.071882686223695 6.089467137834395 0.4548736577574295 -0.2485241171214752 -0.6303699604579531
Ni 2.1168208016810075 2.8334146306434445 10.88500134401982 -0.19621656596701043 -0.8197558766563752 -0.5137655469976314
Ni 8.512175697030308 2.4150696100612548 1.8361927126180475 0.4011401727897156 0.15508740002686838 -0.6305226839857334
P 8.29215061711606 8.455286554857205 10.108367746397866 -0.6695980527206403 -0.08653819020256064 0.4197253919910707
Ni 5.181414156136505 7.566876585219867 3.8241602094255227 0.12918096457375172 -4.318084969857866 3.2331575973313225
P 2.4243056424251344 2.652260555542474 13.264037458508575 0.13491735283689665 0.8587119462045985 -0.022694870494354463
Ni 3.504189586916062 4.828768174194872 13.343572018047281 1.4669351953621834 -1.607377077561735 -0.27112771345360404
P 5.409748886031095 4.356137145937322 12.215392980755334 1.4176813434323778 -0.5025367681613474 0.5827711276330673
P 8.678628083704522 7.132569996169308 0.2388834460959442 1.777066029551862 0.6337087950231989 0.46099082639876093
P 3.630751948155104 8.905017410593683 10.149911364387652 -0.009542649383112597 0.0028680655764144153 1.26345063497885
Ni 3.900829468251943 1.882047714220824 1.188835776618901 -0.5900067261495581 0.18764502224791557 0.32852347776425356
Ni 8.410069830716687 3.753442031030954 10.83304518803906 2.132213537661547 -1.1631297891699002 -1.3740006147149757
Ni 0.8979257694810464 4.22692533108136 7.898800319624125 0.37216846814771387 2.006248251811616 -2.076195627535031
Ni 7.528237176002472 5.983596453514072 10.516249277957986 -0.4590856389562481 0.10390830604989201 -2.4627759002327005
Ni 1.6482751197348622 7.891999746546569 1.9116456313748817 -0.7386663682732116 1.017624376404512 0.42707617592918706
Ni 1.4745043122306944 1.1292786531812053 1.009056452975102 -0.7075578197938653 0.3606859214294111 0.5696052796750707
Ni 6.064905035317254 0.1023050385260836 7.039201768497221 0.6428691213662282 -0.22502372000668985 -0.31783617325373653
Ni 0.3751255768605803 6.024422125156618 5.192854052190823 0.5750418773096097 0.6444989436601675 2.419140422930937
Ni 2.0775236609713006 0.9457159838830349 9.212731067786542 0.4849889890855712 -0.33377469886086386 0.29839554803062157
Ni 4.6827054637823435 9.108608467023958 12.213535584076341 0.13317234512133194 -1.5520641639220432 -0.976897588109111
Ni 4.610623650519206 9.025308163096167 2.4924401403520138 -2.8385855646774276 3.2160505053373902 -0.9562374886565982
Ni 2.401257248722694 0.8131478856515127 12.263498165167727 0.13731722052764092 -0.6008878918384362 -1.5589868591838054
Ni 3.8838303515140096 1.2710151578626088 7.728924950042737 1.1726061040914515 0.1929900886099128 -0.5821090685690362
Ni 7.781982574677526 4.4548709803748645 8.705614528919385 0.35718536447532034 0.9586777226669749 0.17233950223909675
Ni 9.306252148551915 6.715985102115841 3.080311284356997 -1.6709769138005675 0.21691163242251674 0.982713937680572
Ni 7.458286042221474 5.763784441548037 4.668626304317324 -1.3642571621749666 0.8512830007303792 -0.9503110958698344
Ni 1.8089376165119588 6.039068230640362 0.1849327888434241 -2.655936967202839 1.8801302424339041 1.0235535974047534
Ni 0.4734064103125723 2.403286026142644 8.861863740021304 -0.6830608630937656 0.41643797948905054 1.5827806191692935
Ni 5.392981364889047 5.5303082894248075 9.241651799418234 2.9410496820816254 0.6637372230644892 0.08226655941040024
Ni 1.3283026444606352 8.366511331042702 5.937868366297841 -0.9834747271059966 -1.7416069174133038 -1.17053148095061
Ni 7.248265892049441 6.348526265861427 12.561826642432958 -1.5370255244213658 -1.5002685194069902 2.638514400851017
Ni 0.261351924426289 6.553543951162351 11.667423905156511 0.33799130804537275 -0.3379054331997858 0.3854585003884007
Ni 6.647479124853164 1.4512613782277113 8.834787435715239 -0.581405100523476 -0.5660245043023477 1.5785424127182297
Ni 2.5450595861193888 7.14774413961167 4.244474718955115 0.11804577389253862 0.24391721447708314 -0.8723040830667365
Ni 3.3956731545083527 3.1528683317828894 5.828193955910707 1.1044790694062268 0.3052547370443001 0.2580168871032589
P 7.14414977596354 3.8584660018527237 2.7469201602572135 0.16183448894271482 0.8760293544371235 0.19958239711544984
Ni 9.178485490214271 1.3797909773377095 5.848192698806538 -0.025685320581246087 -0.9524044880637533 -0.1659006885922885
P 8.354459096232866 5.763914135081731 7.005956683899171 -0.3998939590874403 0.5549798164524119 -0.12541121311867434
Ni 0.022460140888892983 1.121710109107695 10.893136834112056 0.08400231115458436 -1.0889946006173825 -1.1169162667283152
P 6.513098096297056 8.970558964229037 3.3819886339387204 3.409196145688561 3.0749470782944397 1.1918194437951086
P 2.469429728327299 0.09421494117064114 4.020569023236223 -0.13870947288947724 0.3159726376824365 0.016871578944358038
P 4.460938784987042 6.226327165648852 7.361326230048409 0.6392670058372668 -0.7185415724988786 0.3617598712198802
Ni 3.3015063852216557 6.093085587424497 9.305254434724842 -1.8264818609808287 1.7182078217630732 -0.3274515848563135
Ni 4.551492662977939 2.1278262243974457 12.475540608083024 -0.12346103137083898 1.629963704612999 -0.5483270870225847
Ni 7.168013386163494 7.734051550153239 1.83430845084993 -0.33598481913830525 -1.80501057848093 0.44908147655568464
Ni 5.694342818077984 3.4099301793910115 4.331927068725925 0.4866913164886586 0.5052932478605621 -0.0732450726380803
Ni 7.636225570451566 1.66191146842055 4.0136674744788605 1.3350743699634233 -0.9901979047624432 0.7557230666451824
Ni 5.56376922111822 1.2606489389908122 5.120736110014728 -0.8928831927696688 -1.0038895433169226 -0.9642678151602424
Ni 1.106600812432181 1.8248436020373162 3.488992283914112 0.05393634500713937 -0.254202141342859 0.3841053287946159
Ni 3.240291037317426 8.845488078627492 0.6571932641475592 0.7411230573438204 -0.5767364914032131 -1.4648538873531223
Ni 7.88195776150901 3.6398397593376175 5.23279780780424 0.8628686486854494 -0.6491881216057207 1.0987758483738626
Ni 1.4877145250199544 5.017907665441945 10.143552675707044 -0.8757547606194982 -0.15935080328891266 0.44617201621837355
Ni 0.9797234811827363 4.099492170401793 12.474807839617645 -0.03666110286645944 1.24499191405303 -0.027817793543216607
Ni 3.8670165112527846 4.373942215348933 10.826441934409196 -0.7003764715540777 -0.467307255535092 -0.8415171795928669
Ni 5.467758950888281 3.654356171287667 0.7647786822598127 0.9763545711214475 -0.4660371305734168 -0.17007153214052645
Ni 2.2171572776420714 4.770767373161521 4.422186357118855 0.5394660370875289 -1.2117393226474875 -0.503093926216398
Ni 8.76199323439916 0.44179268509193453 8.338937559396676 0.19440959466525873 -1.5040812082848614 -0.47136805586802694
Ni 5.890420913377761 8.26082962872862 10.201393212588043 0.6733855447875307 0.5385651225398145 -0.24076324222913373
Ni 9.320055246066639 6.883113747930037 9.009150201562486 -0.32527668869218174 -1.0408686916444332 -0.5299053899822874
Ni 8.167403965348754 0.014269994236028356 0.5629320038577411 1.8427006368325363 2.36534137483261 1.4868080230267104
Ni 3.796111203616741 2.0778942139247163 3.4856026507727447 -0.8962798771560435 -1.0477224813414732 0.948574829905018
Ni 7.072697902721209 7.550424034088222 8.12423825180539 0.6755894944173849 -0.6635184221854638 1.234240331963481
Ni 7.878974810234016 2.5628461278833297 7.4119131928663 -0.16146219320496064 0.39726140656059966 -1.3754584302074249
Ni 1.4925780325335323 8.202773244752258 10.424187249446689 -0.005900424644835 0.11420120333546782 0.6110252373827542
Ni 5.126146183134594 6.383988183503284 11.534523235649297 -0.41234581169754786 0.4002238316230333 -0.06948843380912548
Ni 5.973174651699264 5.666088155380057 1.9159848064593763 0.11991496589079348 -0.3665431515411364 0.4122964465168512
Ni 4.507156002101782 5.278489766107513 4.587370526310004 0.057199074918811176 1.6756892316745722 0.9691166586121116
P 1.2524504548964956 3.0029240791833343 5.6717687321559165 0.1137142363967203 0.8310147373996463 -0.0759565580319724
Ni 4.490731242441643 1.780775592052386 9.843800348718315 -0.7583209092793457 -0.37599221276917827 1.5236686434984854
P 5.621084499187753 2.3628864903965265 6.941702801776936 -0.10258753035593947 1.1583580788128696 0.5875726627867687
Ni 2.907293625730646 7.090262112713101 12.006129684990654 0.061977470144061006 0.5143245048248949 -0.43462853435514825
P 5.089563342808654 7.163427793364978 0.03546747593615825 -0.36000175087819286 0.8005515358137827 0.7799837389647599
P 7.0521877967496645 2.0510476524497676 13.522775131848519 -0.767701064942665 -0.9207236120207046 2.140940890232216
P 1.6975308710676085 5.70565394698099 2.408024472034444 2.0217856853255824 -0.5706892567678687 0.10089703002739397
Ni 4.453592572685581 8.240662284238987 8.286520064988913 0.03062595241597306 -0.768381121728825 0.9284109533626334
