# total energy = -381169.6393823126 ev
CRYSTAL
PRIMVEC
9.20980784752930 0.00000000000000 0.00000000000000

0.00000000000000 9.20980784752930 0.00000000000000

0.00000000000000 0.00000000000000 13.47948472650030

PRIMCOORD
 96 1
Ni 0.7198357945925079 8.229506418017044 0.7716078067128502 -0.7786740190144009 0.20122533203551152 -1.6877849864968415
Ni -0.07713029620831881 5.382193108318896 7.468079132561857 -0.010410653810362717 0.5286267803801799 -0.0022399450741122716
Ni 8.484562828103636 8.85312090634604 5.386887347223394 0.7650628559888695 -0.19325156980141556 -1.4972050499903182
Ni 7.163277788995065 0.15550207447338898 12.216955220305557 1.064634426605463 1.3373109726034258 -0.03532464344322304
Ni 7.144756866026764 9.09863595581843 1.0432713417603763 0.6998558231639174 -1.0717589534653864 0.24773864510570237
Ni 6.094313847132913 6.210569247743986 0.29679894179297 0.2696081914852841 -0.44784169061131257 2.3361655245996027
Ni 2.8337933122255143 4.842323399975361 5.273915243001281 -0.11538416789997546 2.857325564289092 0.5295125254192429
Ni 1.3655565839661659 5.101478174418438 1.5013045422412907 -0.6633834392694962 0.4564669703864784 0.5512604586192957
Ni -0.2022713191365552 3.6009979099522162 2.5848660290585674 -0.15567772531269963 -1.8822228632968747 -0.431732957974908
Ni 3.7215727103007987 6.698099619822551 3.628623648657197 0.5261145554812875 -0.0346777538878435 -0.5081718549599378
Ni 8.417368072272344 4.066489212581182 11.089814766157895 -0.31430861971645224 0.8204166501688258 0.03723060221668427
Ni 3.6634404050914915 3.4750445819987164 9.037832806421749 -1.140509737777539 0.4193404978478262 -2.1888911928592494
Ni 5.2719425022256425 8.02774716417986 1.9455884210417589 -1.1539882318799481 0.30418207280541165 -0.21643674966862725
Ni 6.285214737877293 6.235159433882903 3.0651399937742663 -0.8545992095878057 -0.6642457872697914 0.5759553902628146
Ni 2.862343715607779 0.5751764265390995 10.696779782409346 -1.7528737485763748 -0.630395928599882 -0.7483776820237046
Ni 6.583013864769396 5.5940094719926705 11.687872038555994 -0.18824511772575966 -0.3161567286687846 -1.93562750417026
Ni 5.401008745128562 4.014619576500887 5.52685800225683 0.2634920512852172 -0.6842960210524472 -0.8470897885846379
Ni 1.112185568659883 4.65961002813641 9.513374772022026 0.037026970846310424 -1.1490080050565374 1.3662384542710535
Ni 0.008694979301030924 4.451698622860727 5.194467759215228 -0.09488296262283015 2.120575439201987 -1.6553289228506651
Ni 8.8991331048292 1.903805366182192 12.217089683495681 -0.4388947658306699 0.05647016717258662 0.0391707566621906
Ni 5.197785131892096 0.2898252755216634 10.661732780786483 1.1401153305525977 0.6510740257745239 0.09174261722163554
Ni 3.862206471477308 1.0557570778459686 8.596379101479142 0.8403573549568107 -0.14640041377583174 -1.1165133748629417
Ni 0.3335506787919785 8.766834219478804 11.782457682999926 0.48526769666825453 0.5345230912599569 0.6022089246427048
Ni 8.290724008753145 3.0144621067899924 9.006115150225563 1.1286412684747271 0.6552646668171037 -1.314667267061981
P 0.15321251631828223 3.285184399506658 0.3923138558179586 2.3798861054160043 -0.938387347849055 0.4122565944178513
Ni 6.6465246975836205 8.04625887734062 6.411718812321844 -0.6653480191950347 0.20726922423674624 -0.20687635967370177
P 7.569227685860694 5.253347900797 9.272038212231744 0.4736329406428036 -0.14586099633259395 0.28790339025004613
Ni 7.633521352316046 0.9959946367016093 9.882146517799423 0.34096401752045147 -0.4296084554327375 0.940552988041806
P 8.273787172682182 6.633336253182523 1.064242994515781 -0.17596758590998726 0.5448460704525196 0.4706556031820346
P 7.104998126865075 4.3425347740575075 4.085280903891237 0.3162783418483133 0.20783949491791948 0.9150507300056434
P 0.7017956235779339 1.7685225031879719 10.283525587181625 -1.515825750415299 1.119981021696568 3.3306707984881476
Ni 3.8167192320240804 1.749909482144244 4.636565247703153 -1.5336458093158556 1.2321844778757165 -3.0149303314211755
Ni 6.534828151706169 4.082090626558458 1.9673309346884849 -1.272384190023054 -0.5000646524717709 0.9971211142448375
Ni 7.371410229651772 3.1177685179960766 6.53370823910898 0.2676860347619067 1.2855724065785537 0.4709780195184598
Ni 5.3930698910267845 8.572783574554832 4.436030898269144 -1.5939415208821195 -1.3132333628289319 -0.009915459341499053
Ni 1.7658148197704282 3.2078035965331786 4.323464025578909 -0.6750320792520181 -1.8972090522930616 -0.39725883545743845
Ni 5.462290804517463 8.15273346234138 12.939132147975412 0.5740545736956758 0.620290464734764 -0.08169423184669801
Ni 7.143108310476626 7.686652732029685 10.726905983862158 0.33929460023782854 -0.19200149944439837 -1.150399228977109
Ni 2.3569371070888994 2.4662298931977165 2.1928155737363295 -1.6538862768668676 -0.732246323679481 -0.24481530081132033
Ni 0.9195734956740758 7.131522372587953 5.1984979709958985 -0.9350659967853059 -1.5808453498197936 -0.22706774701991217
Ni 0.419737899737755 6.802815131582662 10.313854404400379 0.24938235135671244 -0.1946307095371293 -2.1635637698380545
Ni 6.509749845767489 5.528739565937797 7.2418392892955135 0.42279143251090406 -0.5146379223002556 0.02968390021767791
Ni 4.026150255544304 3.996163122185384 3.4487800528485417 0.38383484874204865 0.16127090312976095 -0.5605058884769637
Ni 5.3930514714117 5.793659679902584 9.283617703255137 0.6330997006842902 -0.8233034847983176 0.13733701802198287
Ni 5.058247337813165 4.073230791702413 12.748721218992301 0.918604765905489 -0.5910300252077498 0.7261458672086978
Ni 4.340858589084743 2.8645448596104757 1.3838306840923238 2.139080954205342 0.10206276820072101 -1.3152797038349993
Ni 1.4819132924602074 2.2381950584413075 8.561238159819347 1.985259822485407 -0.10225148717275938 -1.3585290014419378
Ni 2.7559980679126155 8.41341706483654 5.17938393642185 1.0377998229111225 1.296156095631671 0.5384694775022146
Ni 0.5119179424515442 3.2649320327203353 6.849762125531401 1.4579926414569149 -2.7185942370227436 0.36990101226977584
Ni 7.393347991218402 8.240033228038312 3.3602470939216484 1.1771546426940824 0.5885383691341477 -0.3760510910315717
Ni 2.0185687779713524 2.986731376279025 11.712216322833521 -0.8558107133974036 -0.7140213160310219 -2.1856811705623844
Ni 6.138769588141361 1.5428177497398574 7.520703051879896 -1.1076294421097506 -1.377664436719808 -1.725717499876557
Ni 4.213975070569433 5.066941396133441 7.221646786258219 -0.03007445078787724 -0.03741417898240008 1.1270991207985879
Ni 4.926399733032359 6.374706437769378 5.444107881485977 1.2748923011568882 0.3555678834765554 0.6883884459542661
Ni 3.9495430764044093 1.6093954484657895 12.36365271876816 1.1817826283843968 -0.00495065913705599 1.8920619608744833
Ni 2.614397276944126 7.326991327873495 1.792421032780436 0.9709020326473086 -0.5976786408725191 -2.066817271643924
P 4.436272195226762 2.8997631636536307 10.827611545418195 1.9489406763393982 -1.204758263343964 0.24758026515096718
Ni 4.601357995429049 7.682517528443028 7.527375557444558 -1.0974280760967163 0.1217561328645903 0.10048951017633016
P 7.474081164137413 1.3960042077022194 2.6916509845735166 0.22071198000521342 0.06275162930592419 0.293575758044475
Ni 8.3203519596179 0.5460025191861967 7.534505790444089 -0.6407207075646578 1.761921974821572 0.29198193119479393
P 3.7224660616324377 0.8360129118394676 0.9381644131797012 -0.49717061875342766 -0.7862567164576652 0.9791904979083458
P 1.7492740054238 5.803247089554499 3.5843300002614993 -0.04603508788219168 -0.6933522177174446 0.10449168935718779
P 0.815407809424261 1.13048545624716 5.799319106637552 0.41147729304966557 0.1494746818257813 0.5158208868647632
Ni 8.732398749076776 5.736899636017133 3.2982549583712095 -0.8721361900303043 0.7070261156601114 -1.4747456925455378
Ni 6.672312158703085 2.1723265148961604 0.43845775454897784 0.1465852760931282 -0.18947796169159625 0.6810805994389432
Ni 0.7353147181294667 9.110442929088128 9.506999743240993 0.037043168796226524 -1.6414233685131667 -1.6822018359821094
Ni 0.9271513253201812 4.994579938270714 12.515849393314484 0.6565936700411724 -0.31667686283831264 -0.5469538608241419
Ni 6.319852824045259 8.813002984690188 8.574528833084168 -0.7722873987617667 -0.6930472848825161 1.4001801013238209
Ni 3.2822741003231757 8.349418112222555 12.891212598350165 -1.9989766578508668 1.7871144149267995 -0.00906262442290052
Ni 8.730998858330292 6.662245839058952 12.296942398813611 -2.21111015215845 0.4884939169150362 2.424865498340172
Ni 3.6556028588726823 4.792940411931586 10.9629994002184 -1.0224423666184455 2.084573310075765 0.9695876847112593
Ni 2.9982436357073574 6.2609376851948255 9.155697160410526 0.1278031103896186 0.08267485059241245 1.956100170202315
Ni 5.3268697944101016 1.2908005761423464 2.9757984137451263 0.9183193734545863 0.43447298261389045 -1.773084419196295
Ni 3.7006019785261484 6.147113673775016 13.038192837904328 0.26690056274613383 -0.5720660825107374 0.659701876652851
Ni 3.3794375698983017 9.225648411639336 2.9936995166658065 -0.8924605034099534 -0.030487369955579754 -0.5052014594777041
Ni 2.4118828188884445 6.744903861754379 7.031936723629105 0.12828107846730166 0.44555006636365846 -1.3289831694640208
Ni 7.7455126120348625 4.483186954849102 13.605786829893548 0.0762244669813784 1.0830959757447605 -1.3975866295650317
Ni 8.470886263902777 2.386537428531028 4.6212521007019625 0.814278655591888 -0.8051586955684907 -0.9640202179258108
Ni 6.5769077623686085 2.423560854852545 11.623710072348503 -1.061260625037224 0.5168115329128068 -1.0142762858678855
Ni 3.226453456807077 2.9100965677165016 6.4198602821895605 -0.4335005913982921 -0.11698030874250176 2.3764876212574166
Ni 0.6774052902626916 7.61035868634624 2.8919965329529003 -0.5119063823017055 1.6670567528105549 0.7501568854113145
Ni 4.79785844915937 7.220691729216044 10.895628737063046 -1.3976843314851606 -0.042691368220939385 0.5140817926864696
Ni 6.016279147823905 3.0383339279405823 9.001060807846148 -0.8362343339273727 1.8148365634324164 1.8297263360600553
Ni 6.569843839983384 1.2871534923554506 5.0195983804603665 -0.6514944011413941 -0.1563996910803887 0.7170202507583457
Ni 0.8997926710339379 0.8839821944254432 3.542488923614414 0.2708567191804045 -0.451443549029958 0.6486101376150636
Ni 0.7241800608103834 8.267367936824943 7.248444563265115 1.5410369595736042 0.2953963561929816 -0.025359561810711168
Ni 9.168437087184294 1.2439318655577192 1.3448022826687682 -0.2405531831008567 0.6498440100221647 0.05000975625922355
Ni 8.008830219487226 7.251102513721928 8.175172237438332 0.0009628781339015677 0.1766854379126183 1.20132764039586
P 2.821525848578683 8.375362140070244 8.791319413811735 -0.7093372802917913 0.19704240430241546 -0.2760531757796794
Ni 1.7098928683713603 1.140441258200782 13.315034126752339 0.9562140916178304 -0.19336932632620246 0.12737913547832258
P 2.0935366113686533 4.763551916062939 7.6863524923037945 0.0038952212893481296 -1.7246407218726103 -0.8864562061974024
Ni 2.7564769779048337 4.051081204562301 0.0042494052001860695 1.2474676292870324 -0.8543636965382319 1.4862909741809758
P 4.593594127670581 0.6725194873613074 6.0370969967933465 1.2270075616604674 -1.7996775963037908 3.4734554698882634
P 2.0386093191841934 6.871465037005693 11.730696722648636 -0.04932378593579247 0.0009173696079468071 0.20183005549904595
P 4.5131740882080225 5.177716961256627 1.6046109534473747 0.024524981724557762 0.6271491395278102 -0.3105185565464007
Ni 7.81791090912776 6.20962063756709 5.450833803934386 -1.1511695314842303 1.0791344199938513 -0.2475234437711027
