# total energy = -340868.13748535555 ev
CRYSTAL
PRIMVEC
9.28810204342797 0.00000000000000 0.00000000000000

0.00000000000000 9.28810204342797 0.00000000000000

0.00000000000000 0.00000000000000 13.59407619630175

PRIMCOORD
 96 1
Ni 3.481301358632091 5.130338844299923 0.7321792196127029 0.9718759665248038 0.45073263900586247 -1.8857784418586168
Ni 0.28543451884645016 6.961961838229182 10.083473706612034 -0.6052155726795125 -0.859336981383107 -0.2309107749150862
Ni 3.5219553808958137 2.1221548231294505 0.7018609972062045 0.19634357846317796 0.6949020787030676 -0.29887994386620786
Ni 1.3679052156476461 7.492293883743011 6.032480112804935 0.9741423939614772 0.8714736167456409 0.9596249170715924
Ni 6.712334810045538 1.7708137904198697 9.34859164932998 -0.3843220727911123 0.26152670002873024 0.20953256634962625
Ni 8.101676965008851 2.2757335889806396 0.29035999931399686 -1.4358754978429014 1.1953325991546897 -1.1362571331487723
Ni 2.2473027088917075 1.8654781255608022 9.21032617717452 0.4701010162301453 0.2426828278493498 -0.21843064017020447
Ni 2.4905580991331733 2.12108669140445 6.665311007460028 -0.032750712068459725 -1.0103859496745438 -1.6271388335696944
Ni 5.470366968826453 8.526700510539566 9.078898605679456 -0.892727641028411 -0.18756043295390923 0.2359869038864129
Ni 0.653660392102803 3.0031312937061214 2.773639941754035 -1.2069609274222375 -0.6981527244298815 0.4016399952442696
Ni 7.385137051470549 7.502817303259757 13.404071396382083 0.27090222770635924 -2.1290629078477075 -0.14972613571495505
Ni 7.305435848581584 2.9780905708313226 3.6586010080700566 0.09922607008287428 -0.7921957076499195 0.15232783500386024
Ni 0.9472749423423672 9.190651190800008 7.86715053298613 -0.27754081606879943 -0.2698190219445095 0.15677610058320096
Ni 8.449182011610384 8.369109284643159 3.5679286991500394 1.036173343051293 -0.9632121202022186 -1.3659021539775573
Ni 3.4513100774144627 0.24613005779701103 12.5086974389626 -1.5316701736467233 1.0249826165417961 1.4387919001587477
Ni 4.805571071287969 1.3079133651104324 5.516054213540419 -0.2906354444692285 0.5881961553033804 0.5083268924805633
Ni 3.1638897623697066 8.25878520960352 7.718063493241118 -0.4030093647879704 -0.637191868475793 0.6987019120651321
Ni 7.909701185669375 8.965609768495293 8.971858803491646 -0.3850895470847562 -2.828293952943432 -0.4073537577995952
Ni 6.5145446788812755 3.9282726890860826 7.856560239135296 0.13898663781026388 0.7427119990974951 0.11854585345740874
Ni 1.795027872220538 4.785861718936216 5.88774362001636 0.6033522942185287 -0.8712064791271834 0.22718653198596353
Ni 6.849789430900194 -0.04781329125181431 1.2484797295008063 2.5657274987962784 -0.5391004262179941 1.7332006956274795
Ni 4.725907020806829 5.862036940231278 8.98221782360376 1.2947571584016153 -0.7461495640241342 -0.010082066826350378
Ni 5.743344285328808 6.350544662634864 1.6140519920281788 -0.34165127339546325 0.7360371581804808 -1.0671227402449557
Ni 8.199517831018914 8.239447381330029 6.276969891796423 0.11992627874470314 -0.8669800997506616 1.0669689882759108
P 7.004501345190079 6.374619422906183 7.222097424966441 -0.09299114491675597 -0.09063112932501166 -0.7983573563759413
P 9.202744299547406 6.109146892784703 5.471153671062171 -1.0801983424819912 1.2283301371266329 0.4167069168797211
P 1.9572167085854282 3.0440268066207143 4.508557075732316 0.19130370204642536 0.668223798080933 0.5906775269643375
P 5.586468243283052 5.9265799607271905 13.09022550246081 -0.08530097536134987 -1.2378542745669843 0.5381995116702796
P 5.473924311875804 3.346475270631132 4.890985385690395 -0.42719470378492236 -0.03189659159828055 0.6336650862694572
P 2.690512358053306 0.6093087764501867 1.8872113553288818 -2.214435616987257 -0.30951711186507985 -1.1167128924682574
P 2.9277676344308547 5.990918642980059 7.257850115827703 0.5441557292537145 0.49407423921629107 0.737887066905026
P 6.2145947142971645 8.057883564283822 3.0657906871252503 -0.11652239526947673 0.24219483246933773 0.2348337641185762
Ni 7.688551478084446 4.83427130633364 13.28845403203742 -1.5275109000627112 0.5542938461289809 0.07163144829405729
Ni 6.276973607037205 3.8078245829138293 1.6117002446127862 -0.24165310103325482 0.17732152883472044 -1.9383346186887782
Ni 7.061298088654248 4.817905670686239 5.367702791470363 -2.0430199121140102 -0.008453272973675763 2.527387979786131
Ni -0.0025579432788277834 1.1580219757359853 9.628235036606537 0.3182740321221035 2.366001377014112 2.0726025108671338
Ni 3.707559522293111 7.299017770129623 4.675424329052709 0.6423638995950357 -0.19358118522669243 -0.04630119705938478
Ni 1.6958588076306897 7.8261639966723635 1.4861046723362246 1.428832989173823 -0.5494198058661313 0.03139599781277819
Ni 2.865212267753639 4.075414800281398 10.606750509879687 0.6780546681284257 -1.0699833496222024 -3.411144013443551
Ni 4.111610533605987 8.381546053162948 1.3717235543619746 0.27799281600455344 -0.8131815658729673 0.9926548509433677
Ni 0.03286316234258701 6.179996534509098 7.739529225672849 -0.07121184425813543 1.099924360156009 0.25310633717551895
Ni 1.7479650596068113 6.096682259959043 4.0988449662769355 -0.38155659423083316 0.6089079339294351 -0.9554484170963997
Ni 5.491822484346033 1.3211117579906586 2.4298594240370677 0.7051191284453856 -0.7559806911819432 0.4406667701294281
Ni 5.119397460195133 5.370148348715517 3.6237046802091855 -1.0596778539311364 -0.19220281682192705 1.6343543774815272
Ni 9.043704129745779 4.271152260913267 4.683295066650671 2.30169423029561 -1.6822095492915934 -1.875300168035112
Ni 7.070010328289471 0.41906151288482135 4.7770259475449715 -1.2578065493191952 0.1325730209744362 -0.8874777054833812
Ni 3.9123250180267246 5.70642408005161 11.619482421950488 0.5427719615323103 -1.1620087881915795 1.780968964150694
Ni 1.4303212607955136 8.772092164231033 10.91650499488911 -0.4462442642172056 0.5441156200443984 0.7514699477957832
Ni 0.4383974835379212 8.706889688496208 13.237095472268798 0.49895162191325043 -0.4952847145846245 -0.2829023374910289
Ni 7.231530421313491 6.056083966307059 9.279316340887219 0.26666067882118594 0.2362157320677674 0.7782125059969501
Ni 2.60208962742716 6.3198567737704945 9.500301649067517 -1.6294373997958842 0.15830050764752737 -0.3645502894808238
Ni 2.491013216129043 4.28989565066154 2.5246240706791307 0.843321065570825 -1.5189889786346291 1.6597221668223545
Ni 0.11497555649946754 1.0273383812076378 5.797669464862345 0.7567638492048709 0.017816459356130604 -0.15356093608001295
Ni 7.30413551430767 5.81690605282451 3.331350525405122 2.5207342219150393 0.18745270373145137 -1.6155362163337597
Ni 4.8437265941253855 3.480836953534265 12.777099436441167 0.878287554343681 0.6454983314589593 0.3487657729530574
Ni 6.328299658448978 7.146079883313433 5.050226178494284 0.5315462680198201 0.6016646221034606 -0.9151944546723593
P 2.6799146337209074 3.7138104149098536 12.561442712353328 0.0020993057311899333 0.5883144260487997 4.070702936760634
P 4.755201694377718 3.440823810305542 9.351201605979766 0.8451270084313122 0.30340148588564525 -0.38260380454842496
P 8.290810585149627 4.141072393012093 1.8666159180504769 0.7357656496866489 0.3140078006465818 -0.39116454963424246
P 0.9466340633073668 4.626505753668068 10.028458421103128 -2.0117375570609615 1.16061473605753 0.06416162227957337
P 8.887710457385893 7.677777279814874 1.3631190567094473 -1.0441938993629243 -0.17590433677221964 1.5326464215170637
P 6.042904149630747 0.047277367768922655 11.063701905885967 -0.7074094671414591 1.4203185239449088 -0.6192741076551076
P 3.086148348993568 9.256912510157877 9.719859375977098 1.1689327690049223 0.22322754733821554 -1.017994358149421
P 7.929568435754389 6.551854984440649 11.422408403447074 0.26177481148379433 -1.843819580928328 0.2845856387307228
Ni 7.148810585288653 2.160923360695998 6.188037244372864 -0.27225385663824725 1.5867545162153769 0.8557688044158746
Ni 0.6317358274344188 5.4788748702186325 12.962209450814377 0.9742172130634705 0.9797080609747127 0.33152164116062904
Ni 3.711284051177678 7.8152597649754 11.18725873978307 -2.2062484531907747 1.1896926272600932 -1.276881563672775
Ni 9.065122492857533 3.641706879421328 11.850227667666706 0.33578375887109263 -1.5513218864393798 -1.04400955126626
Ni 4.954598667180459 5.870489113011719 6.4798062487536665 -0.25795003842106545 -0.44185153446614867 0.15587132938074444
Ni 1.0269947214352462 3.1665090071214474 0.4590532934790435 1.014570934290169 0.5940582705111125 -0.8651425323212908
Ni 1.887890315581904 2.0549089649641887 11.620230114157987 -1.5262731710008681 -1.239683357355923 0.07804069425451075
Ni 5.03928758082008 8.336535911081615 6.493115170047175 1.080677339000939 1.4943570390185619 0.2829491315685643
Ni 1.8738188411177643 4.072619081592483 8.120638625153102 0.7459348769101669 0.4478080091598997 1.2113626560343589
Ni 9.290888387114856 0.977637747638257 1.5486916185600923 1.7698862239739712 -2.1974277695753512 1.4710111652037698
Ni 9.039041502563602 4.001370051483958 7.083329466495131 -1.8080277680406993 -1.1307968813651492 -0.14074887191700922
Ni 5.719148779732054 7.1544670393801795 11.311018983113023 3.320033630489276 -0.41638501476392803 -0.5901231971227643
Ni 0.6318667896720059 5.530526005198885 2.1669912777041977 -1.6916670951600672 0.9393134592077501 -1.4859544167771634
Ni 3.7445540323859614 0.31462423686523033 3.578531996343612 3.593854317394011 0.6261137562847604 1.2392861219175044
Ni 8.07292100135144 8.71817473237339 11.448155950880766 0.18991222101553745 0.8378816397228086 -0.8266919416545763
Ni 6.195080412086499 4.500159702753419 10.8956114095379 0.028568555666312088 -0.13454377154756184 -0.09972692097869278
Ni 8.214211608314143 3.6553232368895974 9.525871793753838 0.9740269514295354 0.2617475577902847 -0.0860044291862777
Ni 4.148772229534056 1.9355104143130224 11.009380441593212 1.387783784541997 -0.4648243412122382 -1.1498068468087488
Ni 5.4870298237364645 8.841056321258254 13.202063538119363 -0.13601161434233996 0.5001276444992225 -2.252507998378946
Ni 4.275703430871966 3.5942446784234705 7.070157080300384 -0.19107153143096123 0.6015337529525511 -0.3415731118593601
Ni 4.602923262800443 3.2265194338625744 2.8625586570246586 -2.451254529856662 0.27022242803051527 1.5384478586901893
Ni 1.8463446355303545 8.711589468086212 3.8592360848636025 -3.5401686549450964 -0.7252238696150607 -0.10760452395455662
Ni 4.551662228102366 1.500595040198604 8.267794668501352 -0.3077453646766377 -0.7670521185047564 -0.23896835511224007
Ni 6.762611305936224 2.1733879935216587 11.789299576452274 0.3785633159304642 -0.6846171518372919 0.1454755879687172
P 3.349921156457004 6.26417460254111 2.6402553671767293 0.2336340873835202 1.3384790247695981 -0.6688804578283255
P 2.861041909975158 9.26629349313397 5.702211925814325 0.4410102695117759 0.47733018698873275 0.5231631861624474
P 9.23935799746004 1.1582541782848983 12.125562304445626 -0.41995499150337356 1.7869107835564257 -0.28946636386179175
P 5.9309825210545855 1.7279120474826675 0.3121378119714679 -0.927316434746874 0.8052947069257227 -0.5010594122848726
P 2.0966589832587816 7.14386931504778 12.724327227554763 0.5243728901998325 0.9119780046175907 -0.3258266476583808
P 6.652760924096368 0.48370763131245115 7.510849653831762 -0.9914477180091441 -0.08066990434724172 -1.5579111096211233
P 8.894630093343507 1.3186411228702224 3.700090030699671 -0.6529866694162044 -0.6124228890612292 0.19423373120902676
P 0.6261211698016977 2.16725784623035 7.701179581504541 -1.0689433383934623 -0.45429773064930146 0.6365786603718263
