# total energy = -340856.9670379898 ev
CRYSTAL
PRIMVEC
9.42459260727434 0.00000000000000 0.00000000000000
0.00000000000000 9.42459260727434 0.00000000000000
0.00000000000000 0.00000000000000 13.79384393316350
PRIMCOORD
 96 1
Ni 1.9681565289181204 8.02575689678774 11.375134599163928 -0.17087165944431862 0.15954492157758976 0.5368877348373914
Ni 8.555550947108587 4.246071143933927 6.079526682632339 2.041381090959007 1.3998972799760794 -0.017849112366278935
Ni 4.046976624543243 2.1439723045031243 13.190887925518128 2.995986700439137 2.3941498144238706 -1.6736521466398853
Ni 8.195097977233269 1.0113530355415048 10.430766855767716 -0.07132831523134167 0.3668385712943682 -1.3227559576073866
Ni 0.3659230034400212 7.3464888072935794 9.116240697001816 1.5359055518843097 -0.351474173023156 0.842687031531252
Ni 5.607274482637636 1.0585231216740667 7.307412561314993 0.5439626394063019 1.327633854524978 0.22585984275474005
Ni 4.3234470494580695 6.059532409359565 6.561593653395962 0.8972471261653193 0.07109485906429691 0.36870853462357145
Ni 1.3066726457240883 2.375694763592296 5.660220901595503 0.3689453332247259 0.32280225900976023 0.3549878426033693
Ni 9.460688823666281 5.053457145693032 10.08724516655916 0.6186310747544701 1.089083560786763 -0.9646851052033194
Ni 8.907097676944892 8.720151457459277 1.0993909827123542 -1.0822840213664264 1.8124194693504916 3.192814160517269
Ni 6.062350362557095 8.282812660876777 10.512633579681902 1.4506593410202953 -0.438748984281425 1.1667522164138358
Ni 5.039075217333734 1.891402646507814 4.070784087995683 -0.685143199544091 -0.5063800531668375 -0.46521514889275367
Ni 4.040549052366938 6.771927941961809 12.496574416343242 0.9253703667640966 0.33314709257919395 0.6587845070449041
Ni 5.9891401269771265 3.1800083481527572 5.679435761057453 0.12376442154387073 0.40546322564510173 1.190594827359388
Ni 8.108693311965872 2.2081349311545697 5.581995840275048 -0.41609345166543826 -2.5930369852445083 -1.7496583269628703
Ni 7.050952431480417 7.734197699066075 6.887735451328381 -0.2113181974951393 -2.0363682111254477 2.6950485884923197
Ni 3.242625341612246 0.7868045763652417 10.567836246116318 -1.3345997443198498 0.47453539785241494 0.7726874624136628
Ni 8.510510818911282 2.084587946317056 7.6940404523123815 -1.0976651318081871 0.5473120154945089 2.0932101598151562
Ni 2.2933143993795637 5.505705647822327 11.42567586208163 -1.1478908607329588 0.014785128728974535 0.46616080063547466
Ni 3.041136975692557 7.248397647160172 0.9816759357966847 0.8324000477829471 0.43080273285115483 -0.025968913259935923
Ni 0.9182653916374232 1.592690182977034 11.493982482114191 1.1053218770224964 1.3736949105490988 0.6262124866461537
Ni 2.9997630140298304 0.21528314215789704 7.239023004867254 -0.1987187635635739 0.34661324538642885 -0.22643911229697777
Ni 5.612552254512608 6.829022124137845 8.6155931418605 -1.125975805827422 0.5397971951747026 -2.644218136104014
Ni 1.0887383656582814 8.154487407573887 13.706073857256461 3.3063445630379573 1.787086904122974 -1.47858152135186
P 3.2015529669138036 0.4717574088814236 0.007964723234890744 -0.4943963984424002 -4.518042748034864 0.8072662288297968
P 8.00920731212265 8.974606033981363 5.6076109405946655 0.9048419077934416 1.6646363162945201 -1.9963333066907492
P 0.3150999452025679 5.889182897502211 3.9373290289221736 0.9390949154390407 1.4902070214059304 1.7581920754654947
P 2.5643939573078116 3.2089135737608623 12.14229361218385 -0.4932391449095054 0.15932072138192563 -1.9001059142248824
P 0.5806623466029435 6.513769500534609 12.532576360204656 1.6566612685088438 -0.949614841133758 -0.5231266764975571
P 7.953272354840581 6.800880290533084 1.7933510696634682 -0.31803491952810387 0.06859497546057863 -0.9039744175868237
P 8.952835224997104 4.332117674681237 0.3466761003631145 -0.11362424778607529 -1.4452052598842595 -0.06706414063834902
P 1.0003828097156702 9.090113841302179 2.9264877487606884 -0.6272514694336294 0.5149569962025712 -0.09962484818318972
Ni 5.734468784824461 4.085249895229423 1.070202076865969 -0.8152919273477507 -0.8377782813757249 -0.33520680332170016
Ni 0.9677077470540133 9.27100004772421 5.854562598920921 0.300145955062825 0.8623724257753212 -1.5391826799736847
Ni 8.048677506073332 3.4378934763935756 11.050276430748243 -0.9894013770030768 -0.5371111637021072 -2.17462439852759
Ni 2.9230562545826926 6.048958016424354 9.121621196936498 -1.2288988651459094 0.8798268738063428 -1.346914814241777
Ni 6.376962113861227 4.286398975814293 3.5541910645771093 0.0615663507485714 -0.09200795506788025 -0.08183924206499453
Ni 4.393613141617295 2.2651631411821684 9.298692328260335 1.5502582210615559 -0.21226822011323443 -0.21570192838513172
Ni 4.7194213089704755 4.223207082204137 7.947116210932131 0.8445533953160294 -0.020611248492448372 0.1795542748199811
Ni 4.646597481688496 9.257532304850397 12.130168873760367 -0.48839390100206204 -0.13212744879658533 1.1920780967731341
Ni 0.4078077780235042 1.5570652228209731 2.05434442855494 1.4376436454869175 0.4461067101980769 -0.48085388387127503
Ni 1.951823709883609 7.288857423337413 6.760832369053944 1.025875817780027 -0.15841003664219816 1.3046229954521014
Ni 5.895987453383872 1.9076600688012544 11.440434774146283 -0.38240402983279304 0.03726479788872937 -1.17575416280213
Ni 8.484404697315439 2.3287414430903133 12.951398659639375 1.4556151423636736 -0.13477311394954852 1.1897515055224863
Ni 2.2999964355569835 5.5580781090887905 4.933781783509516 -0.880226937458239 -0.8577346698929937 0.4478848851444222
Ni 0.8405775320970991 6.1665486587172555 0.9717179112197286 -0.4864997693031428 0.5535009179140403 -0.20895072570422724
Ni 2.8137969521781394 2.839478967105458 7.582876439736521 -0.48320670037416785 -0.720186050080837 0.18458900903041114
Ni 4.017628443081345 4.414102206003347 10.328651394579643 0.5595196133042944 -1.5304023626778933 0.7046735562675348
Ni 1.3788273269290623 4.210088049257779 1.9161996921868116 1.6418064628841982 -1.8203011860914133 -0.3693564526202155
Ni 1.7367639305711349 2.0006336751344658 0.34460080506513446 0.18086759431476593 1.0329556074449435 -1.2539120993607953
Ni 8.684517072710582 7.797144553267749 11.332401611243398 0.4073604426678146 2.6884333971686476 -1.8912636333429038
Ni 3.373410413592578 4.63525969674994 13.566576691845373 0.3488002257354187 0.65825614534526 -0.06711787669441989
Ni 4.565847572001425 9.085571187652649 9.087729419365807 -0.12113521145113976 0.7526904504664457 0.7380284775788967
Ni 5.598745226303976 8.865356156169444 0.9513626760490778 -0.2301232460167843 1.5293194140263597 0.07216803752381763
Ni 5.885507306374999 4.186338075820404 11.774342436409018 -0.6005104538943594 -0.3077250529616636 1.7633237402651052
Ni 7.733528552989069 2.743753379723154 1.7525077125660289 -0.8583941578538636 -0.4438497958431001 -0.39428792575457255
P 7.824683212943942 6.595970797487298 8.984523532809995 0.522616569630358 0.9041423106232558 -0.9634846571373149
P 3.0933020959210746 1.1987327862882775 5.038684096739428 0.5748529012272552 -0.38080994587279576 -0.274570677696882
P 6.372249817544288 1.05206727571986 2.659619098821257 0.08308879820137947 -0.3167542530434674 -0.7779327699730021
P 3.3989416350377555 3.7606198019554777 1.6874280730513076 1.4825448768749823 -0.3753808044374245 -0.9354637464443567
P 9.241208910408519 0.22916368218907332 12.661865749333993 0.6716665052138949 -0.8359895649064183 0.5401337525785149
P 2.5972292380442443 4.928628416257312 7.176757548713008 0.03514363778066851 -0.05450173059230613 -0.48400117125100517
P 6.760797498061199 2.203224718392319 9.164822587110933 -0.6792499739881076 0.27058058270088237 0.17994971048618688
P 4.5198084369849285 6.630587326231533 10.445167633312282 -0.14289779993921195 0.19500506215741256 0.949332791116965
Ni 5.577690686359891 6.423048371840894 1.2045760337212823 -0.04504572738572887 1.0906717312094893 0.8642999818153373
Ni 7.175479573951853 0.21534063217296368 12.282425052679201 -0.8949261913416264 -1.5636320712653007 -0.08213440470791017
Ni 7.572820399396173 7.707903085617553 13.390788247579005 -1.4527211086453302 -2.307993690151077 0.6797539102077196
Ni 7.490713348369822 4.444204354875954 8.545521295627616 0.2957928203004519 -1.1240731894880707 -1.167568284557228
Ni 3.6969472541209942 7.422743186294291 4.946361729757217 -0.18863952495070094 0.7174421687871128 -0.6769323815985245
Ni 9.194651422797158 7.114134900497938 5.894634081881646 0.5828698579944607 -0.8639788510304927 -1.0475394187963896
Ni 7.162935441156161 6.467306258849588 4.729164452835379 -0.1401109812226942 0.5622059018872059 -1.6025837699381495
Ni 4.12351374132297 5.240290270067041 2.9904920422558843 -0.4161659567745865 0.2989941008465689 0.8844435466427478
Ni 8.463566923001933 1.0305603553293492 3.6015722615846704 -1.2138167740018064 -1.5444333868496627 1.3716848220976054
Ni 8.182987375698737 5.747851706364568 11.848333028259072 -2.0565727110977807 -2.2239813516941638 2.008864092167908
Ni 7.268057347394442 8.393250037360566 2.9783804982620863 -1.1495795612892912 0.3299638097552059 0.899194222589361
Ni 8.838854201682976 4.840527324315815 2.4012043084744152 -4.2592768985807234 0.20131300665331134 1.5314382601415755
Ni 3.867343888941518 1.6647129198851336 1.7259680597090272 1.600152791899154 -1.607552683907651 0.11868906390349236
Ni 1.9903797183488061 7.242450729208195 3.195123509818971 -0.15558336582668045 -0.24024567916276685 -0.027488435228255885
Ni 3.869247656653562 9.100509166977346 3.356980521253938 0.1408494020506155 0.6621040583364404 -0.4548901128176617
Ni 9.056618839081374 8.864102685349136 7.668936164913519 -0.6117567162321399 1.35567841936702 -0.01860167426158732
Ni 0.9429964651679837 0.328994622122695 9.598073937868119 0.09207557508102207 0.002696058774924389 -1.0589008665557957
Ni 6.445940707348585 5.66307749562283 10.257791652402563 0.26512907266800795 -0.9707439098028895 1.5837203573747434
Ni 3.6423882873634716 3.536540687492382 5.286394434772711 0.04549335644610874 0.1745467943030607 0.5665240696465855
Ni 0.5466621862169633 5.52043628610908 7.585427676962512 0.09651072803424025 -0.9554327333671158 0.6618857716780472
Ni 0.5415182435573924 4.019551059978657 12.285459771507309 1.0979772637319674 0.535445088853594 0.042440171442081745
Ni 0.8518399202945839 3.0344737887004047 9.372847850481481 0.17331369322690798 -1.125288035731778 -0.3383625753418624
Ni 5.683575984601517 8.685035425305445 5.397724320178927 0.6840558800171832 1.385266674547098 -3.709275509179508
Ni 2.577871124774258 2.6323641193833436 3.275375801014974 -1.5806396615668907 -0.2231416724926286 2.2425663137852023
P 6.756905141303407 5.121983358733964 6.24188037009911 -2.577398764486619 0.10378617864973094 1.4550466714547134
P 4.832054615537958 8.427913689067971 7.182068306662198 -0.35911626294944604 -1.92951290663209 -0.41262837593497326
P 1.0432364324219159 1.386461246962504 7.612077597553331 0.7079964499931808 -0.49810470053192274 1.037049317898343
P 2.547552210271071 8.293980803147925 9.357509325969843 -0.32160129672312354 0.20208382338106487 -0.9537856846819961
P 6.713109059333773 1.6231975893328987 13.667037194566937 -3.309627604664603 1.0509589860008997 2.106692253461991
P 0.15430225797964942 3.212136784441649 4.161975503861829 -0.9375157438773789 0.17604240501198068 -2.1797992578603105
P 6.330696788621518 5.668411815053607 13.237193776506162 0.16398933050218853 -0.1571854202064777 -0.9486604476402888
P 5.219914300792595 7.0856349323730905 3.3603875114910853 0.26851444420047305 1.1888241086122107 0.451585473924461
