# total energy = -340889.2204896493 ev
CRYSTAL
PRIMVEC
9.11214476578623 0.00000000000000 0.00000000000000

0.00000000000000 9.11214476578623 0.00000000000000

0.00000000000000 0.00000000000000 13.33654493443590

PRIMCOORD
 96 1
Ni 6.35369804174977 1.846320986199797 11.552982114565971 0.7002492019475941 0.07543025321485719 0.1425887533392254
Ni 4.396792067303284 0.21843724429371023 5.976878965327598 -0.2792079193585772 0.8175074469418308 -1.7388969746813085
Ni 2.664664478656842 1.707260545722479 4.630741826757769 -0.6948100332098937 -1.1174099185352822 1.9304744992144112
Ni 3.433529025317947 4.283190959156326 4.767507829196152 0.2504498733892784 0.6396704119232725 0.9533599099984872
Ni 5.278975245625219 4.7310073111160795 2.7508352975718444 -0.24512768984541652 -1.5600469250172035 -0.7676465575556457
Ni 7.385138150483766 6.230793433850022 2.4986548701884574 0.6508385127249501 -1.680505422116293 1.3253532860209176
Ni 5.282547206353029 4.343823170081959 11.711406773774586 -0.3957331428415314 0.220535088107717 -0.0863741538208706
Ni 5.422500637012299 8.002103244765808 12.579508954870287 0.12099020123284324 -0.44405162744126103 0.03961555750909306
Ni 1.5565365600114958 6.394338207173323 0.6407805957060321 1.3457673309008953 0.6559745483999347 -0.8884297849840055
Ni 2.8621246546049104 2.026686778664775 0.37253727962115674 -0.350878448420686 -1.8828769519411055 -0.10451174396184582
Ni 0.30502904429449024 0.1727143245487993 4.890791502315994 1.380230140564455 -0.570487682280024 -0.9201741672751378
Ni 8.460170759528587 2.2775805712145734 1.1020109358989714 0.24473739638553335 1.0121013897037536 0.2560091126446107
Ni 6.691703937763507 0.7378258481224846 4.817479742021108 0.24724190797494194 -0.46561829786844333 -0.34689529540322195
Ni 0.6000775564839542 7.6090691068254275 2.6715368581999908 -0.0975168007012514 0.14234347009763873 0.4902623216693685
Ni 7.6633137043066855 4.035905575913193 3.948951112552804 1.0431929689022357 -0.8752675365704347 -0.5467134626785617
Ni 7.589687575019172 4.1028616152702035 12.702778959773058 0.16094694413143892 -0.32862477922880823 -0.7311250655908441
Ni 8.0712917595777 8.70016642700068 6.808626422658645 -0.658254345573047 1.1097809412351145 0.11068959063778355
Ni 6.71398313158875 0.6768783569897551 0.43600883483960934 0.03774585129020596 -0.4794917134164259 0.03927642900211946
Ni 1.9100148777492663 6.26763383492792 9.28163516155011 1.47155906728744 1.2002061251969072 -0.10463232870011012
Ni 9.085810615578168 4.867990182598651 1.437092744674049 -0.5338384064881063 -1.3386224923259977 0.17692686449946304
Ni 6.757730538359709 1.8260738006457309 7.089413517156539 -1.5379891738862157 0.40555115737321773 0.430467203888607
Ni 2.8995573450892054 4.371742781485045 0.1622308020555712 2.0945499616725023 0.3263208136859799 0.5107689262631526
Ni 6.218391804894538 5.6317974889435956 4.749650759200517 -0.23620210522101256 1.6412122809436251 0.48686229484888416
Ni 5.252659371691761 2.6655483566940803 9.503595160990177 0.5374356369210616 -0.8348055719006462 -0.8664532807129143
P 0.07823596329822446 5.736013088035339 12.302896133865785 0.7483560847571499 -0.2895044161885788 0.5675597099999516
P 4.033108147486057 5.9722910004642005 12.646525134382408 -0.2362944078245027 1.5271437465312798 -0.4205895397635789
P 2.2223700863936524 8.38696378889791 1.559135343683872 0.3833031446082947 0.2137340060254835 -0.9451897154828689
P 6.446113413437141 7.792578589216667 5.557258322755761 -0.0994456422928481 -0.5637567913140935 0.080090634805004
P 4.622253863956864 1.0781398503922266 12.838638303812418 1.5465566038402525 -0.6343834524927203 0.10625058102982346
P 4.33354467084479 6.116481578415388 7.91143831607796 -1.0993695160938033 0.8528801700141699 1.4103506140989193
P 4.524526111901347 1.0725176571038115 3.9071937981873393 1.4306733848166717 -0.3899756715324639 -1.7472785138767843
P 0.16401040391817653 5.691810074028689 3.55976412211059 1.0483673140143235 -1.6687832485833585 -0.07887835966445769
Ni 1.6060792908204322 1.2042063725076642 2.4555115986120235 -0.1648928161530644 0.6531972427651137 0.9761591672811899
Ni 1.8239415587827017 6.5657740978187755 4.904074275665302 0.09782559019092185 0.49475429600245113 -0.8891851750927912
Ni 6.1397175474355805 5.73999509527527 9.058501517870907 -0.31488994614121896 0.6079607395248174 0.6619104542683956
Ni 8.559420239751308 2.564221307476613 10.218927679886642 0.3689489327691517 -2.1365365905169336 0.7419872051163285
Ni 2.5220229653070003 5.270482726751956 6.872121669453353 -0.25149065594896686 -0.5412377842759711 1.1073077971042737
Ni 0.6187583643617177 9.183583928357253 9.509409620532052 0.37829257876758077 -0.8380065953364472 0.7627601759976218
Ni 1.788021484320898 1.1190624923019072 11.595819218080022 -1.4158939125146517 -0.07194383732815351 -0.3469006947198607
Ni 3.891915465145709 6.968968277115046 1.5171383799124343 0.8296322552298229 -0.7590791276016089 -0.5862953387362418
Ni 5.710909129348816 8.207408977312461 7.574224265439853 0.7647473816309797 -0.9444554084200056 1.3051022490813653
Ni 5.390999952736689 2.7948952509064866 4.7810448313829745 0.6128934009397444 1.3479388846309173 0.47031236091000295
Ni 0.8469920754372355 7.536536434903572 7.277605730716201 0.563671687799455 -0.564407537524215 0.2588964614947348
Ni 5.3149408808105925 4.75232061760166 6.653335430017105 -0.6356515205718666 -1.016460438003398 0.6778404952350906
Ni 8.465947859277138 6.844532828903378 9.49316631136523 -0.2860583666215073 1.767978208317981 -0.8917958732427609
Ni 4.46191656557282 0.3340894962157446 10.634721221678683 0.9491535852266236 -0.7879593009710687 0.27975325033908593
Ni 8.50251489601362 7.094160033337958 4.929666645308484 -0.8870979535464593 0.789451312135563 -0.28718450980615057
Ni 7.580074262346113 6.3695349492623565 7.0400685198878925 -0.39827930630215275 -1.233052996523599 0.47388927962798383
Ni 2.2962331314437243 4.983094794623385 2.7894179407190203 -0.6371944395789543 1.259467739071702 -0.8160097793503818
Ni 2.2086198600205265 5.317419384172745 11.42695204102939 0.06181754752742903 0.8168968099410253 0.7776918576067896
Ni 1.127737254069446 3.4192776309855626 4.237980141944331 -0.41980843862318024 0.05123051604020209 -0.9048308520498481
Ni 3.580307452367854 2.9204697172073786 2.780803319106593 0.4694952643253463 -0.7359643959610165 -0.8545133347422186
Ni 1.2836096015437266 3.1129911107205674 8.511129517626049 -0.7713790280148843 0.4894583377108344 -0.4985333034289091
Ni 3.9717378528386065 2.625454919953356 6.732100808923201 -0.8438553408077403 0.7553638835335507 0.15869697175499767
Ni 3.995657232712334 6.9848142967723446 5.79226144613916 1.0850908946876023 -0.5608239339380149 -0.1627793693544874
Ni 0.8995290569991268 7.750343798468199 11.737372741351034 0.7315261576840046 -0.25675344700980296 -0.6019399872520342
P 0.3932218481214851 5.503972322898394 8.057940645143038 -0.750093893383863 -0.5106491128558367 -0.8229990661840213
P 8.704904742251857 1.2436255105395675 8.100430575943493 0.27384202706097355 1.7391643694100822 -0.6835822828148743
P 1.8415371102250513 3.271988923831682 10.635521267984554 0.4198490620531285 -0.3696395310782731 -0.5706949131948237
P 4.093412321201992 6.153030390862443 3.659641429104092 -1.3631297334387427 0.8720485154125047 0.9880291792458984
P 6.878183979331445 3.9323642755302717 10.38816845487054 -0.17277916087967662 0.3494502006145917 0.5576285669291687
P 6.204760036402693 7.947412152193575 10.307575179734854 0.39788849862163733 -0.42467450846622995 -0.4407539305265958
P 2.2613062807557243 8.552485897624106 5.93209550770268 0.11869703432329236 -0.8013418929255619 -1.8655955391528387
P 6.811446631447566 4.0587406105659785 1.4384531878798195 1.8595398198770619 -0.538254533277931 0.13106352630844526
Ni 5.1271213539697245 2.972208474892341 0.5856220501099803 0.12722512639896152 0.10765774578999525 -0.12460774338077252
Ni 1.6429561404771849 0.957440381513218 7.252906351254971 -0.7663337522814931 1.3912624871192167 -0.44752415937089374
Ni 7.016005168127687 0.5858553210146535 9.167340619190432 -1.037501317834097 -0.5891212382208112 1.4640393618716268
Ni 2.90803163967304 1.4600207232029152 9.297945900587813 0.060838728553927475 0.08154639341492408 -0.4687951529345281
Ni 6.58714207717264 2.1818301545619514 2.682499679505165 -0.576980231982903 -0.03354286895245191 -0.2596950461366302
Ni 4.207605718755347 6.891806635678578 10.375551779299812 0.36132689744751967 -0.7793970132233544 0.3086393372458168
Ni 8.444197169845294 7.172014197772674 0.4334619903921019 -1.0571149782999667 1.0087679544551464 -0.3341112562646762
Ni 7.625188490824142 3.9370023571895962 8.39743546560301 0.9168607866311886 0.1506267931523535 -1.4767364977233213
Ni 3.056441140626718 8.585863683710759 12.852535235715434 -0.3967255886617877 -0.5758471468197244 0.23663842142748276
Ni 0.16406234314304521 4.78598088017444 10.21003240421703 -0.3599284744380962 -0.3282216302531186 0.4435322646026813
Ni 8.611960866171085 2.1741759530023588 5.786580023910106 1.1812979754384947 1.0681740643276056 0.1774022614739848
Ni 3.6829557625688234 2.4973199409878855 11.48872691490213 0.804279635397647 1.1908300832986458 -0.19319834796597696
Ni 0.8781565215729065 3.4977696455502443 12.689135345493083 -0.8061855941711085 -0.4567947860395423 -0.8849163725141083
Ni 3.290267886127567 8.28834304666044 7.9198141994988855 -0.24425042944678585 -0.76723518104984 1.0146017875281041
Ni 5.674989054887012 7.745951744716146 3.441108507290887 -0.19067918108854903 0.8537579446334329 0.29048194961049967
Ni 3.2417821641054316 8.327288353167226 3.5038173759967943 -0.9062051066895555 0.0017321521997583072 1.6312317726921455
Ni 3.787116688792283 4.392163097788673 9.732836675271038 -0.8801454334880261 0.7908605337782638 -0.7870874398890767
Ni 7.2840662413182855 6.363347803001686 11.43908759535923 -0.9997480103447234 -1.6235742561468876 0.5312066252922141
Ni 0.5428633110404687 0.33863098914110296 0.5254354230608529 0.22973552366006242 -1.216801567661743 -1.0294221403703885
Ni 4.448549049277674 0.37657760458725614 1.7463270437539582 0.29835055372529906 0.5392644625996842 -0.3164189811912357
Ni 5.936817421093372 5.75545840485459 0.3068441835214794 0.30551416135327386 0.24388687545978 0.5061522534267476
Ni 7.8079781137829904 8.633073705472961 11.669756982716745 -0.15246641746425357 1.3830411276506889 -0.09431089216944402
Ni 0.17867640083503933 4.966702046283257 5.778431032892554 -0.6983445287257134 -0.829944387153603 1.2840564841546596
Ni 7.929689030725232 0.10121223619407381 2.5501075065294065 -0.18777563428850888 -0.3407979242562324 -0.07393618516783396
P 8.811726414731746 1.8544945800080765 3.549734384424109 -0.9935801909711146 -0.18260694560337584 -0.026687022372883073
P 1.6478402500437823 3.28929288664319 1.5083232911163031 -1.1862141817931895 0.04837144932485218 1.3909110173170691
P 4.712701012386053 1.0822312033687234 7.941525706708459 0.6595157287839738 -0.20232756396075477 1.8044307947180602
P 8.639461318917338 1.4941730415902414 12.258991998205747 -0.5168282450833551 0.33545440055613196 0.2850463804172252
P 6.450623925070472 7.62242751097586 1.3919885395552052 -1.242154444604235 2.9406511610916257 -1.8240722230980715
P 1.8075305861531459 3.170306500970376 6.3576773153462875 0.489901338785524 -0.022163937691548927 -0.9198954596924545
P 7.199724229847344 3.8775820615109 6.1616441012604 -0.062224553157860574 0.21266674110323375 -0.7215276517103961
P 2.630894870347495 8.312663360901576 10.135214406400952 -1.8224004918226033 0.9805256717800017 0.7460197233144894
