# total energy = -340891.9458279769 ev
CRYSTAL
PRIMVEC
9.08274489298280 0.00000000000000 0.00000000000000
0.00000000000000 9.08274489298280 0.00000000000000
0.00000000000000 0.00000000000000 13.29351524880387
PRIMCOORD
 96 1
Ni 6.489711905922069 1.8183291552504157 11.216709210583382 0.6992863238136925 0.5302748575065642 1.7941769782005361
Ni 4.693063262238232 0.5026863212210299 5.808268994801301 -0.8769762917314251 -0.6326042491051105 0.7618790589442492
Ni 2.546937851253498 1.4375804979940399 4.674119381645683 1.168604439131226 0.8416531909500989 -0.5347349501604469
Ni 3.5456401259978225 4.172839977576586 4.718333274504899 -0.05434232219630641 0.6184338711419995 -0.1519712229953899
Ni 4.922675047911924 4.584415470298805 2.726659028638938 1.0003046541791418 0.2652630271427109 -0.025382958849478863
Ni 7.328712280844378 6.22897355420788 2.7155063264384345 -0.8640930080108536 0.3159322713628043 -1.2550870935055027
Ni 5.070378642003126 4.3003526302297885 11.668914545111539 0.3161101917015653 0.37268963075850653 -0.1381163193901686
Ni 5.693146114174897 7.867691433283563 12.695851439988191 0.29261982188910896 0.6256306460007547 -0.2540432471674915
Ni 1.9466955859041455 6.624172858260413 0.419165942456693 -0.5045550841429568 -0.5248662848964831 -0.914507970128296
Ni 2.7670036722617217 1.4196329944935961 0.5270716741552359 -0.16130021370579964 0.384829351444834 -0.31514140003039276
Ni 0.5873919981669498 9.142418319049385 4.831886656849482 -0.35518478910552376 -0.7890008548617056 0.10316859967039005
Ni 8.511113066872342 2.5147849350634317 1.3520564657518699 0.29063004515258983 0.20575741557791014 0.35126257123298216
Ni 7.0639048595106555 0.6560902458774537 4.90769941847289 -1.2316730854569369 -0.13098639321360667 0.487002162860858
Ni 0.9022417096251885 7.529359193712952 2.5986958718492867 -0.5725931586588009 -1.0819798598624464 -0.22739222023886646
Ni 7.602620612353933 4.196073638484549 3.841559580980542 0.03502819524872677 -1.3775369100030082 -0.0836986638712365
Ni 7.439222035444528 3.826342350532848 12.747310638283794 0.3363699703918659 -0.058411092949041336 -0.3638931155127991
Ni 8.14815750645674 8.875712604076194 6.970042867646316 -0.2358856024218583 0.5689113389318395 0.09710105332007148
Ni 6.826263927534134 0.9772034180714748 0.5667015057711954 -0.34064108696339396 -0.7679121525122065 -1.7797402339499155
Ni 2.052191665437371 6.344760383470864 9.218720640611393 -0.983141512136294 0.7752025155260327 0.6616006363374606
Ni 9.139239358409124 5.071968122323256 1.3418738006838804 0.17500599332766634 -0.8244692229716446 0.18190863398477058
Ni 6.273188355341564 2.0807296492422265 6.978337230093991 1.3183490867889422 0.06309641423985263 0.5176527978671795
Ni 3.2818499720689833 4.068570068576032 0.10687211535322391 0.008457386738733821 -0.0050830709498622135 1.3137902637736665
Ni 5.873765575009828 5.473198368847599 4.996686701264006 0.16287964237777755 1.8854375135794303 -1.4095831398052756
Ni 5.124566296802542 2.8911738748703075 9.746180147964742 0.14105586163446676 -0.37307272512953815 -1.7703899030832673
P 0.18772125890527316 5.784709263359094 12.464451261885735 0.15132356210906195 -1.3759217429970885 -0.06916524614175185
P 3.9550539254846635 6.022141292207828 12.62491792881035 -0.04987040246788186 0.3367265824003362 0.9615311329553698
P 2.4681995375665817 8.519414695515765 1.3757987603622746 -0.210303897298012 0.5842281717945681 0.6063412016435236
P 6.199536378679065 7.972760623816524 5.977083612367241 1.6588940144941042 -0.915219908593656 -0.7934807450099302
P 4.847706073269888 1.0139885340516352 12.597479865387024 0.8153978567979957 -0.22270895583058417 1.0402269442953762
P 3.914599380651174 6.2382016228093224 8.236755139500808 0.8575310385226199 -1.4132348776252501 0.31611636234915236
P 4.668966740585055 1.2041176285732886 3.7751719835182738 -0.44858499653524037 0.3007915590666239 0.5419607784849247
P 0.1950673828076815 5.631092802477007 3.5882917867709665 -0.12547934735244842 0.9989386270695507 0.09001175057345788
Ni 1.323319569838381 1.1762790161092909 2.546359280416971 -0.3478823419068396 -0.005305728483629571 -0.20363574124921704
Ni 1.669799031392746 6.6295498431147974 4.860654434094904 0.27574695739317023 -1.4533636273253356 -0.49083747744654815
Ni 6.139844580599655 5.647786887210719 9.198235418245554 -0.7261636078205107 0.12802551081306984 -0.13747945713711807
Ni 8.820380523446284 2.3327122350786675 10.006507051344634 -0.3884821177060729 0.05633441292567072 1.0037167651844845
Ni 2.3868090624312197 5.178218069665458 6.789623227194488 -0.35248487367585746 -0.4441688697454157 1.0521542918605815
Ni 0.7812967896547645 0.07320147252605047 9.097523220338687 -0.4167701660174887 -0.27707673194818727 -0.25094558207877427
Ni 1.4251734687523363 1.0279123816559772 11.380444757320651 -0.29107561733044063 -0.34488289295888347 0.18245319363433093
Ni 4.353114294113431 6.883003833590445 1.6697981231182772 -1.5430938421026328 1.791218409792844 0.8563282764637704
Ni 5.475132993465813 7.798235684666208 7.959983926866082 0.03483459118068195 0.5645492053084019 0.7106007203852471
Ni 5.624771212175231 2.971283683004879 4.76237550348954 -0.3374071534071286 -0.23764963630081656 0.2790138010699001
Ni 0.8283199754455018 7.255459944948083 7.006187650126081 0.4654470623979016 1.0272521293022632 0.2856251357388307
Ni 5.31671176064459 4.516821684342174 6.950487718336369 -2.182454178984654 0.35307262785852744 2.4047455876618455
Ni 8.16144556193303 7.323398875202799 9.074233246413666 0.1305469916833429 0.2378938911011387 0.813978864963282
Ni 4.661391731516547 0.1871054488155312 10.368596117917146 -0.7067540929456473 1.1638900643746923 0.12340600976318748
Ni 7.993269461318549 7.370520154636151 4.7032059632296015 0.46070132018280013 -0.21591584416815074 0.31532831923021826
Ni 7.567543052374826 6.397967101844142 6.968328045449512 -1.4238746167272833 -0.7167184032472108 -0.340695080129781
Ni 2.5788364505923433 5.244095216876348 2.232765712548869 -0.774391589588963 -0.6559107850415349 1.3952543818874292
Ni 2.3520221502820804 5.026436323210036 11.418092734046025 0.16231657078545594 0.9195447612212551 -0.006422615696892165
Ni 0.9322529146181874 3.6018259846282596 3.6623897261975706 0.6618428342552537 -0.9586543256282072 -0.07886576125896741
Ni 3.3935314007336874 2.7114990194827686 2.6686729700116443 -0.4580271157847467 0.062011922926422235 -0.23140031295699504
Ni 1.2195037980721508 3.34391236651156 8.21571132833675 -0.3488310789733541 0.31336193953246677 -0.5971081130810297
Ni 3.573951041185516 2.8506285025899527 7.381410365515215 0.6097862227693305 0.4458691402659741 -1.480527332224321
Ni 3.990485712506542 6.790813975022883 6.148356928919804 1.2784995588921724 0.7679967418062128 -0.8199502520553685
Ni 0.6702665937840795 7.325751306076592 11.104418329750214 0.3088457968296681 0.9251849902261678 0.012287044897469162
P 0.23396332865297498 5.577777091167491 8.162976004412698 0.807574246988519 -0.09415534042818624 0.25475827095664516
P 8.680488089785436 1.7222246337229894 7.918082500804038 -0.05811875851960314 -0.9601525074402883 0.2694904349604971
P 1.8400914115191722 3.079649909859025 10.38565169588938 -0.5386998483454657 0.8586528108318889 0.7337447626018782
P 3.9452536439679737 6.2782111131531755 3.9404906526543946 -0.1984356851055163 -0.9405131359428061 -1.1433580058596116
P 7.086448231822447 4.032166427872704 10.465452690704613 -1.2181480543873084 -0.295159300481511 -0.09364677622288388
P 6.238346946724306 7.951316263611793 10.026102164731201 1.548142460270134 -2.6289879494178208 1.09096123742545
P 2.542015003633437 8.39227443539471 5.76716503372273 -1.288864189955948 1.9171317593589179 1.8809293412964314
P 6.815364633910383 4.1076077052384345 1.5762385866519968 0.5729058048032133 -0.045714728428295465 0.8738775982014434
Ni 5.16382191933742 2.81043735735237 0.9935732488198804 -0.09813232279806325 0.19401673010221424 -1.472287460813032
Ni 1.8265581219363478 1.1657884459964303 6.873890207572052 -1.102310086779366 -0.03984592835234428 0.7915791571118431
Ni 7.003359283430718 0.7075122049198433 9.202156439126698 -0.2124443406797825 0.27902948479918394 -1.363846042779477
Ni 2.825224065701926 1.5814057601041234 9.243220436128649 0.2705962664301662 -1.1111544245438734 0.40517937585609576
Ni 6.49606982720259 1.8761317424350428 2.8072447725950793 1.116094027937336 0.5921176018449738 -0.4177710964781773
Ni 4.302868550507938 6.762539390813934 10.63409382784704 0.10759063999748567 0.27451205654480465 -0.8479531650261978
Ni 8.239075780768198 7.17894690370935 0.4028769481359968 -1.070982480310678 0.464284152438052 0.1658243268283983
Ni 7.85584753421242 3.9953631464031707 8.288945498743672 -0.5566615750302091 -0.519811238971079 -0.2860120867646042
Ni 3.3530950213895703 8.272700101597472 12.653751101817514 -0.2977556004537775 0.5970993713302813 -0.9053682126105569
Ni 9.244690024218919 4.792773633406182 10.406216846408462 -0.41943794265763895 0.26820616893143484 -0.3435294642547826
Ni 8.832860214645478 2.3762821613396135 5.813373497315091 0.1764041592267736 0.45935046258186046 0.13289852263465501
Ni 3.470425917249252 2.3443563137667085 11.730742604741204 0.21904281983290663 1.005073793433011 -1.1084138856842587
Ni 1.0134344866257612 3.359825335202237 12.627336663720351 -1.0330242558993499 -0.4053210436402826 -0.8678236786978796
Ni 2.9903392813570706 8.443982500894721 8.04964878241081 0.6868283005559978 -0.2543859752188909 -0.03587768773321563
Ni 5.6118283009970265 7.874766891394314 3.8150125348109585 -0.6204838116924927 0.2567953559913319 -0.23883465774785317
Ni 2.8283212816400085 8.263735432591936 3.692792397486556 2.2345048769333067 0.6537428308559385 -1.8358982691987218
Ni 3.3289621687576476 4.287818442562475 9.250146028952074 0.6145569046850965 0.5658764087602576 -0.1033172094331124
Ni 7.14493202485856 6.075729485857939 11.481449419606424 0.34769927936175604 0.30695063668948425 0.04824237994615562
Ni 0.5149716416839348 0.0109701390323056 0.21166337389877998 0.4022568028926621 0.5311675445241627 -0.30812820193735324
Ni 4.728894690026314 0.548963813673009 1.7728763760159671 -0.6904586982197335 -1.7094388173211914 -0.43757733257082704
Ni 5.828851402535287 5.759304826471068 0.4527984377561833 1.632910445946149 -1.7415033019559039 -0.4685228731097479
Ni 7.618415505363686 -0.35645504004350304 11.508687662646645 1.4008143924737102 -0.033229965697723414 0.22566006803910812
Ni 0.06395433016076621 4.9587971235299735 5.852855280192661 0.17294294015105055 -0.857815145421942 -0.20949862778789724
Ni 8.253381103649373 8.979274058991203 2.2385214478566784 -1.1831255155655367 0.1792017765765688 0.8023556789020568
P 8.496335441267473 1.5750387560789156 3.7333241456498807 1.223203357423029 1.148745238313454 -1.3736545442294665
P 1.5337758469683307 3.2121489893450943 1.3929742305643693 1.4086783686028193 0.043160594547874055 1.2249506791314386
P 4.713771920123359 1.1303294107404929 8.088040635926003 -0.11891917763642747 -0.3816483826136911 1.0051023326781012
P 8.450558408047717 1.6687181847750572 12.296235197194632 0.2135062062853936 -0.4493265026869552 0.7555865410673182
P 6.356686027244185 7.957656019402942 1.5763321389222673 0.26745309281549423 -0.014229513335820655 -0.15345243552660667
P 1.9624178169564068 3.2563547077340917 5.800226224381442 -0.9875689517800281 -0.4294446761613636 0.6572788690336552
P 7.116929922990205 4.01173025232817 6.170330813139755 1.1829715064861757 -0.058452230599621915 -1.3633315650369038
P 2.612978487868744 8.438287619976311 10.416771904008597 -1.4172026040237464 -0.2521717411763915 -0.47674294702669506
