# total energy = -381165.5564763435 ev
CRYSTAL
PRIMVEC
9.27033917492856 0.00000000000000 0.00000000000000

0.00000000000000 9.27033917492856 0.00000000000000

0.00000000000000 0.00000000000000 13.56807844274855

PRIMCOORD
 96 1
Ni 3.0113213198970863 1.616839836357188 7.89333773297649 -0.9821878899737729 -0.6732963275078341 -0.8643737724760663
Ni 6.079210248769871 1.0300829955659958 4.182509073408019 -0.6071631833241866 -0.1327098036626166 0.007047650875400766
Ni 1.3355962897979061 4.939607467487897 1.7461573581807546 -0.3868304410352628 0.9646028299021582 1.7973641176792656
Ni 3.6735294503397387 0.5385139962960213 10.928151019098637 -0.7000828515730588 1.279990798725718 1.794390636873239
Ni 1.4282718694324616 2.6281596656552693 1.3950015495614547 -0.08229021355948409 0.5038459738910742 -1.1828450082106403
Ni 7.795474471601063 5.343784980390466 12.888222378242212 4.012229366004774 -0.272469315083163 1.0693660277531776
Ni 0.7629192399789017 1.9569871173365927 3.502803177979848 0.35484540348823407 0.2521216046647464 0.44065417172393784
Ni 6.648455419066948 7.091327327227557 1.0430123374601954 -0.9245825807554786 1.348530238358013 -4.39787812802711
Ni 3.141829153256621 6.021205737239071 11.917006035740078 1.0023399394416157 0.25259957274242945 0.3736188274409952
Ni 6.639416838478402 8.624011025551086 7.143783540827851 0.03997216951756341 -0.1805089254237665 0.6666194297082907
Ni 5.147615335432296 0.5128462814923644 8.79408188493907 -0.5794346070606666 -0.6153377487151789 -1.4122401178121484
Ni 4.3102070669969 8.090892366590996 12.622735626992009 1.2830758654089451 0.44156074269860723 1.3166860972642227
Ni 6.051223095132107 5.858845018851594 2.754781372878683 -0.5340744337583124 0.00212167432869312 0.5797575376177242
Ni 6.608389013627261 4.033255687424793 4.024034481156664 -0.3060013854023375 -0.6640380421343596 1.1689232559232254
Ni 2.387891017764061 4.622432086711997 13.471989534684885 0.5799094898145561 -1.1395607436007082 -0.3515045120404591
Ni 1.6139567609079186 4.276648439580965 11.008338524978495 1.362424736951918 1.7730301689195915 1.0780231892075436
Ni 5.960902181620106 9.244141086976908 10.911027775811352 1.3991881697241966 -2.0358629893542552 0.9979400106017071
Ni 7.488718951934418 4.395049210121382 6.311802128881207 0.24791296590003753 0.419993815161109 0.32387029526295835
Ni 8.135148965288144 7.915034034524625 12.219330333333568 -0.8679800017700857 -0.5435957429851864 0.2150380695488877
Ni 0.991555466411128 9.62956470395063 5.176628715604574 -1.1869819131971493 -1.1167152064611026 -0.3289975891871947
Ni 6.993710656871264 2.552096533625508 2.258541976787673 0.3132110157768993 -0.48274235914323954 0.29411646103929345
Ni 7.11741406135696 1.7402095086365381 7.368565160276777 0.1668406839080546 -0.19082599107905845 0.0014632148090878026
Ni 0.6855471360731373 4.705661190839138 5.477894340476821 -0.3532412922259078 -0.25612738339002983 0.23464787336001525
Ni 1.7191843796367212 6.733065803714801 10.268199289184448 -0.16824193513095542 0.5790926503402156 -0.6313323243712223
P 4.771230299047122 2.7322655733571857 3.609407442059829 -0.769644561822281 0.761626833724127 -0.4557953982407505
Ni 6.410986413573423 6.431733432401284 5.166384990937556 0.07111285678642591 0.39271081107543976 1.2720543174874608
P 7.570381368759546 6.612347448408091 7.594012390070583 -0.40732933231956303 0.0797245097148369 -0.5464648370028654
Ni 8.514991838144628 7.691998946955578 9.323196684456908 -0.047502159346021415 0.11968330949596162 -0.36296186194778135
P 7.9928399902986405 5.946217964540869 3.95624790784429 1.8292031165667337 -0.017559606150318145 0.1577135247958058
P 1.691160144642697 3.5202814752533294 8.902979630903774 -0.9555322350594577 0.17136479703065324 -1.6525647298419668
P 3.1378429074585963 6.168947130920766 6.216690304140324 -1.0425471077881208 -1.908646347595726 0.169940662989617
Ni 6.760913902266587 3.9845678666544937 8.767095000886437 -1.524037339691814 -1.3385736413659335 1.1762239033496968
Ni 2.224640346826328 6.050694685805393 4.1664852923338636 -0.16831546868136818 -0.19924892503543104 -0.3212572831201435
Ni 0.23803727727822044 3.302762239428061 12.921179360652816 0.13860277210828387 0.25718462100995065 -0.23683999591532762
Ni 8.241887649284568 1.162046272158763 9.251475779245276 -0.8238063925766651 -1.302352711360686 0.5425089376789107
Ni 3.9934117701226706 4.688121709327827 2.3232350379539977 -0.7958603009857004 2.748566357904802 0.3381023797019403
Ni 8.628488599319565 4.919546453750859 8.417662548299353 1.6442749790293487 2.199810410874915 0.2020023194108521
Ni 5.18171164251401 4.982445704308071 7.2862751414969384 0.11774546904330044 2.4934774430816153 -0.39202509786232487
Ni 2.2484094961894368 9.075365293956331 9.43008554794619 -1.7617625664255723 0.672306452790739 -0.7993004370155008
Ni 1.1799287562154859 6.306426259257313 8.109436752856974 -0.38328206156237216 0.7676293311644651 -1.9989175224781575
Ni 7.936893494040309 8.746518556297374 5.205732018065785 -2.2676222283125655 2.0643502981606705 -2.3695507849282675
Ni -0.027430006259946585 7.213584558819087 5.770286396795883 1.4838011178795865 -2.6006420512852757 1.3799036104629718
Ni 4.617676402771561 8.326025246640098 1.710867031427446 -0.9334498013381214 -0.6646363378399909 -0.9574947581024671
Ni 4.546823201296428 3.1507657601154504 8.468950699177435 0.7613620100985146 0.10318351206872552 0.04077898168957493
Ni 3.2187266158022485 1.0852785943600483 4.945170597960908 1.1884399857999144 2.1100264600415466 -0.08246864811887733
Ni 6.797985988188222 2.483978082174601 13.42699779809987 0.9718330291020101 0.029845622606522793 -1.0786153142655877
Ni 0.6879991407558762 2.1312787621009495 10.382591565113081 0.7050759339122761 -0.4795827304683353 0.7148422692704206
Ni 3.9037026989889716 7.650996237270308 10.444706544985381 0.8500164753131296 -0.7860957653997688 0.3972210402409675
Ni 4.311903539045827 3.4697025053137343 12.305826304947278 -0.32502934856806603 0.12356978903456137 0.09870413614113324
Ni 1.3194288184682408 2.38996757371466 6.058580963248136 0.7530529760121869 0.37850957987439326 -0.8275252361891492
Ni 3.497763821664019 0.946019560922988 13.7300813364628 -1.4724751513438061 -0.2969966108005659 -1.0356192703200358
Ni 1.2534610856804547 0.1997934204987471 1.7162530984243127 -0.34794327705176203 -0.011450407928786733 0.11182010469780096
Ni 8.880539848162611 4.035990437449019 3.208226102743125 0.5021554735625288 -0.13328547366042853 0.5605691376147314
Ni 4.506302549242548 5.029196024213749 4.480979691052116 -0.3992879500723252 0.1273192287746646 2.0774626671729126
Ni 2.3673015947003075 7.256849231236259 1.9354725144341343 -0.21394149405059928 -1.4243343299725213 -1.107218322714261
Ni 0.058378106195127115 7.732806979520479 3.3806358686772513 1.0175233320502732 -0.08228430002221312 -0.4801805119533343
P 7.608056026720417 2.3988114771828375 10.899183063587776 0.928636181999562 -2.026713718754819 -0.06113646230000439
Ni 0.20780762862059096 7.592657993533161 0.7626494731121051 -0.7515169989836348 -0.2595785751634239 -0.7158699392039864
P 2.135960283328863 1.7008661896439352 12.177268950927056 -0.6034140006943995 0.1642767798356203 -0.36166988260923516
Ni 8.372200805523734 5.963108522317619 1.7750706186911291 0.47029410607755784 -1.253793314394744 0.8220739832665908
P 8.360204986773399 0.6637831610498257 3.229216004454494 -1.0030099689254468 -0.46014519056901404 0.10354038118751199
P 2.6551827040302545 8.722499107779505 3.357733496016736 0.2476813095052057 1.5657488604979872 -2.5889278481721414
P 8.294923259076436 3.8716365961625305 1.0588117763289733 0.13252108469057822 -0.31462640806718717 -0.3930643377601166
Ni 5.523759343001775 1.0644666831587302 1.1752722649030485 0.6682911609837587 -0.3885749345301953 0.097899895072283
Ni 8.005234433628779 2.3206532485243465 4.943352684470228 0.8981300429909049 -0.4945691765748386 0.5674992890756614
Ni 7.215596222396229 5.984986522511432 10.545978510035074 0.28722976122178917 1.216859160372556 -1.1733026159378437
Ni 9.26431334478273 2.9330981988651392 7.67977693193205 -0.7114067612263103 -0.8499887073989877 0.5621691351119995
Ni 3.3112816810289565 7.466915114453127 8.334531709766303 0.07401691780709833 -0.2690001255876399 -1.768935687135244
Ni 4.797697117078196 5.044213973499333 10.439306572479916 0.3503611424646353 0.28503429623236715 -0.43723589007100827
Ni 5.988435088643677 6.343971132471272 12.458304841891279 -3.19848241454664 1.2762128197405245 -1.0024047312412803
Ni 5.741417633913021 7.1802484195407175 9.17489721636349 0.5743312243958302 0.12557396394878373 -1.3412349902481806
Ni 0.6739323282583795 8.78126378711365 11.201168066771482 1.0579282182298813 -0.30603969483944066 -1.3601619090596704
Ni 3.9879793514304778 3.1110423572211747 1.005654725095353 0.2317579534067299 -2.306706853018853 -1.1932145243704224
Ni 4.6805200312943835 7.469418106000724 6.480752204276211 1.5567451143374802 1.1384276584375297 -0.19805027674163958
Ni 2.0166602898991246 8.287349392060188 13.187846226066018 0.37121098933045105 0.18647028521352402 -0.5675144585843129
Ni 5.5207094014493325 2.8669265186179187 6.442055954950357 -0.7057709030967716 0.37479562135791583 -2.3743304657050976
Ni 4.777580481306766 7.708889504732327 3.8570793827284864 -0.6430969211063182 -0.11729064089406896 1.1993568898227343
Ni 6.563010703903228 3.9931243896116504 11.487304498289362 -2.1245287674227797 0.26421555971480304 0.7463858484046565
Ni 5.305359424965315 2.063772153028345 10.492262457355823 1.751802884109699 1.9240778516594474 0.22132107434412204
Ni 6.953115842104862 8.127825397426655 2.863706002826677 0.4980411942838391 1.6891368725390457 2.0575834117504823
Ni 3.080394616271706 4.0108585482433305 6.5017819684455604 -0.28426862171093625 -0.12245598714509233 0.12184072215859662
Ni 3.1981557334166255 2.8991594875475326 10.200426621380672 -0.09103659229354644 -1.1694860704052312 1.4520837321716475
Ni 3.0901099316120093 1.457686655286262 2.5073940316193273 1.5557891781821143 -0.12486896746195913 0.7155364671239677
Ni 8.727393846805919 4.3287755561444445 10.792157926114237 -0.26193679098295536 -0.3412517239641994 -0.5076697185125385
Ni 8.033481156760367 0.3997509259989478 0.9082420021984929 -0.5744798341585525 -0.3884165545754601 1.932693875463233
Ni -0.03899568127765903 0.9401514362947322 12.733261244496557 0.7411297422120399 1.013247330382739 -0.39062950306637884
Ni 8.909157384856806 0.21796977430383593 7.095304302686517 1.0424008120182433 0.29808932964411244 1.4125923589452445
Ni 3.0990743494880335 5.179282813678934 8.878787754079294 -0.06435111258256014 -0.7383256971043414 -0.12688779766420083
P 0.39094503092093796 6.426328824726287 11.801039656238176 -0.4883630477641266 -0.47737800950753273 0.8055947546646447
Ni 2.753503920155502 8.156378041747393 5.199640478266058 -0.19931680215888897 -2.1226161237810994 3.9105908298256646
P 3.891938638715264 6.2903607616573645 0.4915346990154334 0.3408334054798582 0.01338979104334468 -0.019345494406147325
Ni 2.536717041116382 3.582503991058785 4.050166639947485 0.039752854417905735 -0.5541766038248263 -0.1350703334749932
P 1.710915237190585 8.766273648845262 7.289802505511237 -0.1984320855610905 0.1779249667466742 -0.12838032304932728
P 4.995146068827361 0.7679771369728612 6.221330108842445 0.43648384239633214 -0.9373105698451083 1.0971581102647814
P 6.522490051849348 -0.297075431614788 13.091892654538016 -1.8844149858521868 0.4865043972888331 0.48848594649523613
Ni 5.951502057808018 4.6431420241835974 0.521212762498685 -0.9452311102437656 -0.04557048954094733 0.8052255442506842
