# total energy = -381172.8229871478 ev
CRYSTAL
PRIMVEC
9.20010241330413 0.00000000000000 0.00000000000000
0.00000000000000 9.20010241330413 0.00000000000000
0.00000000000000 0.00000000000000 13.46527984247023
PRIMCOORD
 96 1
Ni 8.620422378587408 7.244234256299683 1.1320017635506656 -0.7253493394493314 0.7415976829873938 2.3319082919851453
Ni 8.786226624628892 1.8980455325757661 8.454458970773837 0.04688560880794506 0.2682838162469057 0.4200107844419735
Ni 4.143983738540317 7.628964139828859 2.4363674461773055 -1.2726978646087308 0.5327194623923147 -0.9204906700742922
Ni 7.170366633867819 3.1596831794743814 6.35217852427486 -0.43183503077041113 -0.30512746743781644 0.41029201449231273
Ni 3.7414884572136673 1.925434237517809 1.4110270701797385 -1.6667618472779553 -0.08779006033179074 -0.29729434454664283
Ni 0.4903516595073821 5.002371695712804 1.4815311351622213 -0.13103035907766467 0.5993136053727808 -0.3939652523078312
Ni 8.952132071797134 3.293112265055318 4.842679997727581 0.23531173219625925 -0.5652207774541298 -0.44653659864664386
Ni 0.18782193118333737 4.129622378642927 7.461191991877027 0.43625218600150034 -0.8563046223146865 -0.7486630744746073
Ni 6.729332123450736 6.8783829829623375 0.0009549706325106008 -1.1049698929997163 -2.6836004945563783 0.6184714092481542
Ni 5.773294279057946 7.140392700142196 9.30652829759557 0.7141398438867572 0.2338012090890038 0.24421340556126328
Ni 4.383729207833127 7.881893355907677 13.087928639182625 -0.1847450749923012 0.6410312968265413 0.8144858865066876
Ni 5.81038909206645 1.9735691734455112 2.368340968779939 1.0422069508398826 -0.2744272101404822 1.3009815420447723
Ni 8.166259321998913 1.664454931810408 0.5736033864205654 0.16260993365615867 1.1696089691363405 -0.7703359314623508
Ni 9.117669514868071 6.213657181997444 12.786414602167145 0.3143826674874973 0.48251610206504647 -1.7574629106089537
Ni 7.467263139472342 1.333996452531523 4.192751641515386 -2.743334934302533 1.3684578305198756 1.6185243524278063
Ni 2.454200924732783 1.099504241727764 10.368427120629816 -0.390679639578024 0.3057635583599186 -0.09062290179489554
Ni 6.146229631268445 8.064414188069314 11.591531978509703 -1.258916751664238 0.40328010195085384 -2.1976982496279187
Ni 2.630300085396419 -0.059570663251504244 6.492985171996552 -0.17804709414683528 0.10568005323833411 -0.15561576172651265
Ni 5.886878743691624 5.898930877878415 7.110906371845506 -0.8510672851751472 -0.2926897558950959 1.338545102120843
Ni 1.692588845049497 7.816738230479545 11.093316991453122 0.06451309208172115 1.597683761533371 2.4796590491412847
Ni 1.9477536860194538 7.441944457577649 0.1469072356447907 0.07434524768079454 -0.3158811064098947 0.19873933238886415
Ni 6.356350770728074 2.12375164555633 8.93448259529031 -0.09549539939584845 -0.1889809674505197 -0.012245650136572458
Ni 4.033398507299687 3.4437547422877706 12.001105818648044 -0.02599770961534232 -1.3696037711988607 2.8082393482854022
Ni 3.662726380287624 2.1615640665545826 6.072370288928768 -0.367272059287361 -0.6265523864840757 -0.30407537202421825
P 0.661258282358022 6.222940085352002 7.463279495118998 -0.6054641983552088 -0.0023687573424926948 -2.0758724398676573
Ni 7.3424361496659465 7.5459056150667605 7.008435630950486 -0.5807553827546192 1.5792903466278478 -1.0469346953328549
P 3.5342193495081626 5.919603508044613 5.034748696193837 -0.17190472869452328 -0.5189560900596353 -0.4486199635382338
Ni 5.2755871376556485 3.7550862086091454 1.0884107582144569 0.22265419133324882 1.682593157883257 -0.2716018248765451
P 4.529146026883827 7.9592202168542245 7.807788370833049 2.034708306924521 -0.8507646663330638 -2.6309748979408627
P 5.326417703596121 2.070639454212557 4.630575316183469 0.9181892756346252 -0.05926598475016891 -0.10587185753416606
P 4.016829122818458 8.737153278253057 10.883501295394257 0.3883692462772924 0.08356702338937866 1.6169917178333637
Ni 7.514100860957039 9.020663634818055 9.142601792460594 -1.7953427163738627 0.10456393735601992 1.1275328659018968
Ni 2.732347621579536 6.7890315881362975 6.877014927730601 -0.26050802895622877 -0.03529533286718437 -0.4979473490184521
Ni 1.8560102645609209 1.3015292910466494 8.042488503951787 -0.9605826529991714 1.609276865687609 0.2708924575143464
Ni 9.11217705371577 8.647443079432144 7.735372524565059 3.2936134886245343 0.13962041473952083 -0.17816562200257058
Ni 5.082651789540235 0.21962760530330266 6.228795950550394 0.8794206395068597 -1.3197647361895464 -1.2115212930994104
Ni 2.7503338218353957 5.7428419400058255 2.948411107200424 -1.7270040798984645 -0.6562897656475084 0.4464538091248505
Ni 2.152345563917052 4.917049945752271 12.75460892804718 0.5301355037152226 1.9110480150586828 0.6956345859937181
Ni 5.128293497708686 -0.05165305509795296 3.8824708268918218 0.9272878955017838 0.5805967456895679 -0.4322772605141523
Ni 7.948722899978554 5.43009365790982 6.057625284759936 0.2984991634880214 0.42670670840491026 -0.6633322743165866
Ni 3.123213973431298 8.067634223920747 4.597369386473252 -0.09883217707856527 -2.373406668339248 -0.5192882765880734
Ni 7.253627560883435 8.973577510567676 13.322642572455011 0.20074916373004137 0.7226928756630908 -0.07415061517148519
Ni 9.074907438761047 1.4219586318902309 2.73238810203024 3.07184889898509 -0.6714713584839533 -0.5440485142518888
Ni 1.4941058351671876 6.66523500980236 9.292712503772439 -0.6885514538946916 -2.6841175434021127 -0.5715372065904608
Ni 3.0419402685411376 4.214226520613712 6.811627039710922 -2.0138684873610346 1.2194744865082159 0.03507987442226862
Ni -0.02194592434287849 3.961168503100836 12.894594006621633 -0.9653453644951375 -1.8800603084279168 0.08026032761364887
Ni 4.703000362553893 1.6209200470990386 10.687567633896037 1.276459645644008 -0.7607683423785736 0.19694418816165438
Ni -0.09678139755066009 0.813776660476495 5.704363431591449 1.8589808620497983 -0.03131089429813963 0.019406429551069804
Ni 1.3538962740933769 2.1420782496021986 0.5182877705441686 0.30254967940831123 0.3625638551784143 0.8432724717210768
Ni 2.004141113829256 0.0643685166701389 1.8680513586247924 -0.0251063081493245 -0.06066954996591487 -0.7267745019316322
Ni 5.031922424726523 4.430281726142411 5.610335624698885 0.2592157925073665 -0.6987528199077255 -1.5027504052885796
Ni 6.357325981585936 7.146096763650449 2.6034045059447664 1.0214663758584217 -0.8410273844406418 -0.32051783385095767
Ni 1.7883987117832678 2.976766742908141 11.732756310881836 -0.38751821113090684 -0.8156117725810147 -0.9845155096656852
Ni 7.80663651800848 8.186839951140783 4.332534317836322 0.8739182216313918 0.08313610649954714 0.27967328903076993
Ni 7.0834716663913 5.974748922026007 10.912694140423344 0.21685069727759426 -0.7012761005502115 0.9974823542389983
Ni 4.897251325317176 5.353953610177087 3.209004928615897 1.654734740910092 -0.11945628108682008 0.07688755448667403
P 7.277041821574566 5.197791071485035 1.7544724140525731 -0.8218050458759201 0.8126655454684972 0.19809372838506528
Ni 3.9055170834856465 5.904496939850177 0.8324151479948304 -0.5551816480505728 -0.7555911690530084 0.1929918883821257
P 0.6201577447503356 0.20158252439187402 9.735249390916774 -1.0345368358891345 -0.17200294483528442 -0.04854191346444543
Ni 0.276077593809647 1.1761686952991595 11.887458793317823 0.6842104033171765 -0.6426850303798802 0.05281482980818646
P 0.7915344928352847 9.010506721732392 3.7286708745044783 -0.09123816678139125 -1.490002618704608 0.9283644163954141
P 2.667422498712221 4.100053249424343 1.3685437571764225 0.3631878619156584 -0.812561158680149 -0.3436353937050275
P 5.387377582314958 3.5461426822608964 7.54109488150472 0.15222756198057008 0.8536337603507428 0.6191902896920498
Ni 3.0383706287972636 0.8298455593853872 12.742409592221465 0.1827594120208401 -0.12045258356181837 -0.20001408533622975
Ni 4.170765236721804 0.8712386602504324 8.173573403432881 1.083399365917792 0.09590703301197032 1.2326380204733673
Ni 2.6015497652943416 0.9590922784004345 3.996777499566465 -0.11064022545708688 2.0283903351262937 0.26789300856639026
Ni 0.09906210294371766 5.09557793345813 10.771173564752878 1.3510445201394343 1.9230658654551656 -0.2081415995393706
Ni 0.9373248360447498 7.042531210565942 2.6959648964993197 0.9737446443024262 1.4301074850108726 1.6391607977312352
Ni 6.8365133167912795 4.165291175774368 4.05290088443645 -0.8050566227729877 -0.7879780700241461 0.1825308409498018
Ni 7.200653371076151 0.9257695073893228 7.03041099562115 -0.8091122808996 -1.0180416664475886 -0.3767404037891125
Ni 7.248355902189518 9.24831096941191 2.2618838235008454 -0.0853523974245756 -0.4765897092782825 -1.1788410292575697
Ni 6.01215653851722 6.939241660554415 5.022401238718958 -0.9425885304145961 -0.6656508951474344 -0.30593427960982794
Ni 1.126396141138443 5.142204052586875 5.090090992367289 1.3367419874738333 0.8469854017962897 0.47665861484300487
Ni 8.433954702482158 5.7759899090707165 3.638385669281523 -0.18647954118490462 0.1233479028317424 -0.19045189556909137
Ni 5.696850627944935 1.6446103108631502 13.277344948117541 -0.16667227665099038 0.19355624552602793 -0.5951666730839427
Ni 3.9980241134460908 5.78515321109365 8.526282330445165 -0.44587839623735465 -1.3393295456953516 1.89217843184769
Ni 8.221045931985431 3.2826149481796474 10.38286208134667 -0.8252089293511466 -1.5037017134582555 0.7123323583643731
Ni 8.092943705713008 3.2700660084614923 2.302010990271156 -0.41839381766384076 1.8832204513234534 -0.4311786281333348
Ni 7.163411356428724 4.462537285271334 8.663412617234762 -0.4784861549700469 -0.6741712739136196 -0.6363737434498717
Ni 5.3212012455168 5.286029253916723 12.602047309447274 0.8910610519592654 -0.16793983050950434 -0.5766344186077101
Ni 7.2889651543273 1.0516821092827726 11.181756656128085 -1.3271749126106887 1.0798538146583792 0.12285527946604004
Ni 0.6936021624702983 7.651458390276724 5.734364045614124 -0.40012535837195606 -0.5669614142943203 -1.011694126963006
Ni 8.221726739565447 6.405764520893916 8.848452437442463 0.49951726460873325 1.0557327532404592 0.6070521116676191
Ni 3.7664115347037557 2.987015657018129 8.759205003773912 -0.591248311866143 0.6682824192330103 0.7485139504912528
Ni 3.746898117444074 6.5101488830949314 11.198615843835944 0.08467568307252514 -0.6105318426861033 -0.7185420867195109
Ni 3.803533948019558 3.187504289230759 3.59811130087229 0.027178360187004806 0.47046174200367363 -0.3387454126025779
Ni 2.9818451994509716 8.241497759693244 9.040885459965052 -1.0607433190811733 0.8535573985868525 0.9218376710204899
Ni 5.583266163311255 3.9863951839712026 10.444129243486756 0.8068777351421266 0.14347269860607548 -0.6653619031521057
P 5.133822759270718 0.033066088153240365 1.3584448047360864 0.3628343352309816 0.31540699498695357 -0.2835489699360923
Ni 1.3625075699703513 3.559823234578269 3.070527746830157 0.2159850068431893 -0.9306686390485585 0.2849813315072447
P 3.2351056192173666 4.4072906701631815 10.383185004942055 -0.6498707494950421 1.3046373936298048 -0.57820973351463
Ni 8.501391453313591 8.133755360104308 11.130413644482113 0.4134992085757007 -0.7372399202393303 0.25637652328635846
P 1.4152149568070873 2.4653238485738744 5.97423463630002 0.5918905734358323 0.5208337666983224 0.6827173637114178
P 7.11043716662144 3.8778799757779217 12.35086611283066 -1.1726865796203998 -0.21210264106964763 -0.9108181799815346
P 0.25424391071644703 8.795767130851564 -0.0026983900435005705 0.8980343979533049 1.211356485386772 -0.5532859736897568
Ni 1.4078364746560903 3.620166706434117 9.422517669005147 0.44829549031927957 -0.4383275804732903 -0.23619387769089645
