# total energy = -340888.4406711167 ev
CRYSTAL
PRIMVEC
9.10669288589090 0.00000000000000 0.00000000000000
0.00000000000000 9.10669288589090 0.00000000000000
0.00000000000000 0.00000000000000 13.32856555712439
PRIMCOORD
 96 1
Ni 6.203934334447182 2.043541819669648 11.370599078921858 -0.5985846976265562 -1.0701622984022279 0.40244346498217143
Ni 4.650469177101608 0.4165082461467061 6.006464812086591 -0.06948329160280291 -1.2413774572288943 0.08929055613671719
Ni 2.775619731173317 1.4626258986503662 4.872310030201057 -0.39644739529973655 1.024080673552817 0.8220775828110165
Ni 3.236764431103939 4.311354158024699 4.913229132065236 0.8110627197577516 -0.6927361814000005 0.2803520602653494
Ni 5.491526878961724 4.676541638018337 2.918569306270101 -1.2576612819905824 -0.6526133452371857 -0.5857749474563977
Ni 7.263534445346657 6.425855326441521 2.652557351378648 0.9358717805160527 -0.5447038884477006 -0.7412798946366589
Ni 5.101241354159664 4.38202209260864 11.350246531627832 -0.6967008224747033 0.28386341585271757 0.23027648376519697
Ni 6.095391665335584 8.528608861403024 12.545965287504062 -0.8396199625701539 -0.5679042378235639 -1.1962993339433334
Ni 1.7465452538724724 6.593837378159998 0.36695508902749746 0.6561663526957668 -0.016818614219235552 0.24050458925110837
Ni 2.5767022446891628 1.5896369403568391 0.4489180544444883 0.47954210703838696 -1.452030510336209 -0.5303031396413384
Ni 0.5170206337227214 0.014249241912821294 4.6631584425718735 -0.18376548468785128 -0.6104074012930971 0.10541522961272169
Ni 8.75399950327835 2.1875368430770297 1.6423455664623026 1.305719313840074 2.2749904957521787 -0.6909526071370165
Ni 6.963805871769175 0.4631299589176453 4.7632692250041835 -0.5729736819266713 0.5695374025516128 -0.2606342701214479
Ni 1.1380269475794884 7.139182557879683 2.7678763104546666 -1.518418707953456 1.4426619246371155 -0.3925807132554787
Ni 7.652800020577402 3.8999137863104623 3.8987517723345713 -0.3100943245247885 -0.10978121989090125 -0.706801401243815
Ni 7.344465622491952 3.57474111360572 12.705574646045159 2.093892787704478 0.10469994871325194 0.940890830997199
Ni 7.659803067187589 8.657741762485534 7.5028091507615065 0.808510128539227 0.55140495461696 -0.6129728480274282
Ni 7.142005632586001 1.1441921784703815 0.45627535139685504 -1.3888721325101694 -0.5438597952798505 -0.9596794244586117
Ni 1.9853500539491085 6.446318064716021 9.463934491722632 -0.4741893273669059 0.35238614331446405 -0.10787937488249807
Ni 0.08675035371734878 5.091988954477024 1.5553101732665418 -0.11011906284629422 -1.0955930797705067 0.0031637424399622934
Ni 6.571844715528527 1.8078424017699606 6.825465193797768 -1.73680024005328 -0.049047906566586495 1.976155289080977
Ni 3.321620592760275 4.4089050491668615 0.3726495039109174 0.4545689820328171 -0.5846606313462963 1.1096567569524243
Ni 6.209152469307568 5.746313924553156 4.872590516333169 -1.0751160428630775 -0.052612226879077136 1.2545669593359747
Ni 5.585653653685902 3.0639285122291167 9.178142800501755 -0.6473330706748529 -0.21213915073453787 -0.5823512664868293
P 0.01700219508611066 5.482274479279083 12.6409581086946 0.7471142419302488 0.010420424002375602 -0.6330241102513484
P 4.0777219593454435 6.008513817921822 12.574261602753964 -0.5156447662982152 2.0653805391973976 0.4720188020781484
P 2.2063148432203397 8.512380735188 1.6299367871241481 1.5586503017799929 0.647832893129407 -1.9683802731212487
P 6.078708204490509 7.803279009116713 6.109627247209504 0.6189270087283341 -0.03777644741782526 -0.13681714096277084
P 4.481312362037598 1.10662707149116 12.549484113525098 0.7033898044591047 -0.8489175858219961 -0.5266591151308478
P 3.9284632676146702 6.331737658409945 8.42846438420809 1.305343932778526 0.45180093236937674 -0.7907342926130446
P 5.023096824950283 1.024184183374095 3.580852615010267 -0.8254845516100364 -1.265458152327182 0.3883335079433506
P 0.09705821907244715 5.610232617016064 3.8364273895116874 -0.6500499553853837 0.02016387654238463 0.0464858022663651
Ni 1.8271303766989282 1.1983678927538692 2.780019174368871 -1.4378341642311692 0.489427227362583 -0.6416699588518046
Ni 2.050972880832083 6.346363006727188 4.7428365388152685 -0.27239860974622765 1.0836917003472306 1.7587602892641387
Ni 6.25989496048047 5.820815776722128 9.012003032696466 -0.3367908599793684 -0.7561660677198719 1.223411616779093
Ni 8.494376803915776 2.295050455924712 10.230060505523006 0.4156460797153745 1.8637931958367773 -0.07999113311266225
Ni 2.265062117189542 5.2030814975169095 7.334802510973006 0.19264067569029406 0.23209656769307122 -1.2250393821905032
Ni 0.6458211405252957 0.30148434391096 9.033368244207727 -0.33586963371667966 -1.4705257409269188 0.6338833729278502
Ni 1.3536552149865202 1.2139494437942204 11.116089787454756 1.3212243514542086 0.20392164792075204 1.1613791250273804
Ni 4.237945108967849 6.724800724455316 1.7278082338458665 -0.5115968214810866 0.20646009807188961 -0.3207852285797314
Ni 5.532798409829562 8.06914889960359 8.55821836172599 0.1853577688756356 -0.9403174749922322 -1.0488403969960003
Ni 5.1051572319781044 2.70899516810423 4.938766119457026 0.3653732996027514 0.3297270111540515 -0.4987274217175862
Ni 0.8859664457528026 7.667944450372904 7.115094445280716 -0.4461995270221993 0.050041380828107364 -0.2931139879167081
Ni 4.85266507292213 4.454447618864579 7.288698969011065 1.480013111592064 1.4706771789031188 -1.0797262879415792
Ni 8.551539513372399 7.138399382315995 9.498188405272122 -0.3295588610073034 0.4920680074195396 0.07471857185981326
Ni 4.509552215793372 0.16264006583871707 10.274364565026987 -0.656884976029346 0.7825661549799554 2.2203722941866664
Ni 7.931464814168717 7.401956172882212 4.875522871350698 1.213264501042762 -0.4468135064571143 -0.4655529918481466
Ni 7.491256400527847 6.263592277676486 6.943209265113439 -1.0976386494456258 -0.09535810248703577 0.24620781028347274
Ni 2.317115972096991 5.152967368133477 2.732382065372918 1.1724862906841356 -1.1313396412424968 -0.9394188744373627
Ni 2.3770471161043263 5.173958294578836 11.586374874749026 -0.5414085055258805 0.6791214188300433 -0.48360933512922516
Ni 0.8644200110587813 3.4715804998213273 3.8695620905405113 1.227286783463783 -0.7950573454684307 -0.11844455199285406
Ni 3.8292367450339198 2.7124648179852198 2.6999276342813907 -0.2590892942318312 0.43258939243793243 -0.1078284670399046
Ni 0.9620218996795095 3.3872434196432493 8.15520259133696 0.00857077238814653 9.333104475467797e-05 0.7258303928508081
Ni 3.745200185711676 2.5472603075100544 6.94081056228233 -0.7175007899391902 -0.675441913095927 0.5404505124879854
Ni 3.8843959821183183 6.895441930413291 6.314821066234283 1.1734458263839274 -0.2154167930445451 -1.4677816025228785
Ni 0.8287682201950348 7.456323127710323 11.553559818630498 0.13260464554332 -0.6615312165521059 -0.1793673556201556
P 0.1346998222695172 5.833510506207954 7.966976361966409 1.399240620228687 -1.8681265331048085 1.0853251221855953
P 8.503173868968364 1.78843603983718 8.055718349355601 -1.2774333224111871 -0.7481439687463437 -0.38453033214717647
P 1.9970521539414234 3.4659161370234903 10.261928465611028 -0.8597005353701129 -1.3796267026525015 -0.4021745275915009
P 4.159800579758468 6.105600267741332 3.914359732783465 -0.8171102115034121 0.31208795791604965 -0.24991482682141475
P 7.025849768459946 4.042952606994737 10.515411432821995 0.8105371862715847 -0.7212587143197255 -1.6863143154885862
P 6.6983275690641415 7.647162977857368 10.552637770836458 -0.8826900542867508 0.7351290445439146 -1.131386178209716
P 2.29120743164708 8.443197191498024 5.665506598427235 1.1819263530511128 0.704854047709457 0.7957482008878684
P 7.124274902091807 4.236934266089135 1.569425546798128 0.5982697374892987 -0.6820833296718447 0.42608193033671776
Ni 5.24882441445185 2.8021657401052997 0.24803625436629367 -0.809666096520541 0.3771810908709569 0.110236562260765
Ni 1.15957338227351 1.1280642258739688 6.911567151001924 1.0966783424148854 -0.05651464725727686 -0.6436070279735173
Ni 6.760107371669483 0.9656918967977219 9.358358783060448 -0.024567662037035108 -0.9903634838060299 -1.1731360084529925
Ni 2.6882228022812957 1.590365475764921 9.063984034063107 0.5304412078810994 0.7564118651820908 0.36179920909824786
Ni 6.167425603809679 2.314001483227442 2.3052153462059737 1.4802267702647667 -0.017101692677293126 0.9027096919417873
Ni 4.450030872953083 6.8535147176781805 10.601447821839423 0.07037366462755622 -0.11975992837016794 0.07071767823053628
Ni 8.178620451360493 7.244865725514559 0.27389652934541975 -0.03452760146322441 -0.7148268426514527 -0.6573837700426356
Ni 7.661897606485824 4.000788620251998 8.035018837073475 -0.04290759799680353 -0.3052840476203387 -0.14929213350133
Ni 3.294783169665059 8.394166758534114 12.653033583083555 -0.609679264877821 -0.8972833787198935 -0.59506922827413
Ni 0.25523145219036225 4.762636309868412 10.392055817525572 -1.1068321430194357 0.22515921714328968 -0.04772096022504684
Ni 8.445264410718456 2.24163970381971 5.711876966482386 1.5845420819450902 1.1656044759626378 -1.020840055128332
Ni 3.4357274510510982 2.7579436408347306 11.738520388034324 -0.18254935289256305 0.14658219076933465 -0.6787532368573471
Ni 1.214131577646241 3.3486401497075113 12.791277730113391 -1.5192738568648996 0.28846877583521285 -0.11133236642810503
Ni 3.1137330140641133 8.374050074578454 7.980771179918438 -0.7229420155594195 1.0912342885811788 0.7811805874863386
Ni 5.581601175478446 7.803005808338682 3.617879516456768 0.4315496383195083 0.825675841685236 0.0423902920407528
Ni 3.3403166326701763 8.576928972344053 3.6632763790728697 -0.4035654944017566 -0.8300490310522673 -0.5162626023878722
Ni 3.6797048525251155 4.484745585148184 9.317333132892838 -0.454016966184089 -1.1687368509440321 0.9644696467584035
Ni 7.051548854980035 5.820469722403289 11.663481241001891 1.0518712134025239 0.893803647701409 0.12785376112189595
Ni 0.6615247212465004 9.011463916494485 0.052689502051001105 0.7631944353215631 0.17053998713651275 0.3359619363201698
Ni 4.585228831307876 0.15067022908393193 1.2506548789919054 0.2541311788956075 0.46810789705951644 1.1979569241514143
Ni 5.748390250466189 5.32063979230352 0.35097466485122164 0.30052287878626954 0.5746269012593781 0.22912694354178606
Ni 8.231302668057412 0.06343995266650922 11.104361278053899 -0.7486047104328463 -1.244791882227082 0.04018685663153079
Ni 0.16579553482497167 4.8903941003681695 5.911791635806352 -0.142060134529265 -0.5852483855289663 0.02893493786679533
Ni 8.335701792035545 8.891756442254032 2.010201307388041 0.20677994330515354 -0.36751991363210895 1.825646766674043
P 8.5666748364753 1.4871957552879274 3.564204670266336 -0.07943988859488255 0.4759893566901222 0.7734719059881711
P 1.9958227504402852 3.23659140394452 1.6154616992348212 -1.672185589396688 0.48266419760713647 1.3531525676213727
P 4.734615016735063 1.0076919630736418 8.283303704147775 0.2990537504399108 1.0830959757447605 -0.8815225163412109
P 8.75595744218757 1.5708680469061302 12.460515369490139 0.13932345232439233 1.943927796505839 0.6710293858505282
P 6.4307456203682705 8.03436133386768 1.3120002923601792 -0.2528093747603904 -0.36060596012109514 0.9569165170014939
P 1.765505387867803 3.1871238497357606 6.090234545315624 -0.14758157856812648 -0.3830342072176242 -0.5916625165854261
P 6.729782085308075 3.8074171095618676 5.88178872636302 0.09592040274840899 0.7718387412601224 1.0149440013588715
P 2.408301285111039 8.420221006065642 10.320641134148346 -0.06098399588254014 0.6684451700631198 0.2514374341135283
