# total energy = -340889.39008514344 ev
CRYSTAL
PRIMVEC
9.09892476808278 0.00000000000000 0.00000000000000
0.00000000000000 9.09892476808278 0.00000000000000
0.00000000000000 0.00000000000000 13.31719613150097
PRIMCOORD
 96 1
Ni 6.247167091987949 2.141122590303337 11.332241344817804 0.4239396871827344 -0.20008993287948765 0.21739037183114818
Ni 4.4093207644861225 0.3313309776644291 6.112793260519376 0.7273355166414248 -1.3077851952301671 -0.30197735184460894
Ni 2.7661186364937618 1.6831828036021497 4.895108720457069 0.22267887392359714 -1.0904804411342899 -1.1741780765642618
Ni 3.3392599101989378 4.4422679712187225 4.923979608875334 0.5378675822521575 -0.4891361784847253 -0.2617226180896202
Ni 5.206905216449524 4.991060522135599 2.693988729857104 -0.37546282262826947 -0.9748144803278372 -0.3087506660127005
Ni 7.539523778278487 6.088627426119731 2.5108109953916675 0.25296466939133205 -0.36442044877117885 0.4733421488752622
Ni 5.0880277638227875 4.451994721839311 11.724512371389052 -0.16367128504113745 0.3366206529500912 0.08039633897088089
Ni 5.621725198481894 7.768871277008644 12.416141663739147 -0.001899531015558019 0.6946025451847779 0.5339353370772869
Ni 1.7572662493952522 6.640113258780007 0.2045320010991672 0.03129701034106868 -1.2717568408517002 0.5753972037664993
Ni 2.7180217199545402 1.4523157844289247 0.3767246036429615 0.048724718899212864 -0.8314813926234196 1.2529469072340487
Ni 0.6705807495899412 9.37917169289245 4.914431197180998 -0.2826490838296422 -0.9763082912645443 -0.056826522070740834
Ni 8.609166082024467 2.4069021839678584 1.575011145905426 0.660481949351985 0.7114777236735619 0.10509769837230287
Ni 6.8681232155632745 0.43567198801665546 4.813141056317157 0.17463009804548635 1.586326941759655 0.5978935850968026
Ni 0.7907538891094482 7.299949088063257 2.3331863347370305 -0.520287150166233 -0.16207617263987573 1.0730673878641648
Ni 7.886420286613299 3.802013028123971 3.9447933562233777 -0.4901165401201237 0.25068101556347794 -1.244205927816625
Ni 7.834401733481493 3.915776885008172 12.318127135806469 -0.03955539369511897 -0.8843664135479091 0.8752019734398216
Ni 7.885337514561054 8.778997513580384 7.114871498097747 0.5403823782542112 -0.28139309993535405 -0.514852609414223
Ni 6.907712637406284 0.5554311264573628 0.16985963822282263 -2.0167540364389462 -1.1817854565978743 1.4964416894617325
Ni 1.7538359547423417 6.441783994722987 9.489487967166605 0.6433635445041436 2.748937110980659 -1.1399392099860497
Ni 0.4281853926839897 4.953946007840576 1.12308210893292 -1.7486303999189885 -0.9267703324354168 0.29225472524020635
Ni 6.645272349146586 1.8750427321201262 6.8933272372836 -1.750532244927392 -0.8242491365410386 -0.40060718310438104
Ni 3.6055490436527506 4.211910491834789 0.4558952582966542 -0.42385612632999264 -0.3176173723747111 0.28935992019091455
Ni 5.811701649564452 5.600606594000711 4.902046650623765 0.854278078802961 -0.1854747540694741 -0.04582888540865656
Ni 4.926176089324175 3.5006384406074944 9.474772276073361 0.6484448156817929 -1.0988969473327592 -0.25558796594679206
P 0.16088900825384447 5.61181646936513 12.37115566959205 0.0853714235879691 -0.09458600020770161 0.9051663810123959
P 3.945776040102726 6.064406088278754 12.781764669222916 0.8371712439193452 1.0853649742845952 -0.8190470235148087
P 2.3625722222994727 8.423202256782583 1.4660506114277811 0.40018449374466564 1.3178829457858012 -0.09817860265496639
P 6.261789064155661 7.739081397184693 5.926126088389771 0.305440627802861 -0.3249941244547564 0.4016132557713922
P 4.736099550068719 0.9053302799790733 12.684389795704291 0.8594339119722876 -0.2712264438149974 0.719246054765071
P 4.065217626067607 6.175276487073762 8.411567461629593 -1.843604122483412 1.3471040474344478 -0.1824439376629503
P 4.478363405935161 1.1136810998204865 3.713020994031679 1.56841715135877 -0.04290219868016482 0.6617921835229764
P 9.41593134911993 5.645027544917185 3.774626174342018 -0.49785530352527807 -0.20701005703808864 -0.8032784478266424
Ni 1.5511574046267231 1.0266953786485307 2.6729210793548503 0.3969487604161874 -0.35495441826227253 -0.08007058020034596
Ni 1.9189359453976904 6.642242407185261 4.983707680997621 -0.6080622980996883 -0.7165039732435596 -0.28829291237898097
Ni 6.0726770109299375 5.964172332585211 9.212450273836177 0.9876789949953313 -1.5492840300737447 0.38686309404541114
Ni 8.364586983164408 2.69665744450352 10.121668524386044 1.0553013221299956 -0.7826193768153941 0.2194184580047705
Ni 2.1301219902095196 5.222664554218334 7.075626015612508 0.8648165164404397 -0.04147112266059309 0.1128140931799541
Ni 0.8203435925876071 -0.12831940690080942 9.029152433563263 -0.8489708076574347 0.3895229002657614 -0.5914012925042396
Ni 1.4174396056368634 0.8259785567216859 11.693257564670885 -0.2632441969404692 1.3559589267219163 0.2547402732345161
Ni 3.996757315806331 6.846303993871815 1.507467097372395 0.04503467164213534 0.4953183960360372 0.6396341593686985
Ni 5.536349987001092 8.092538230306637 8.191593675237442 -0.1907959091720714 -0.044022942548169346 -0.9117100956681846
Ni 5.457717078803599 3.042580367883793 4.321856439869226 -0.31371880865125323 -0.20499019839458246 0.6136955851260657
Ni 0.6758754139361715 7.14701435987725 7.244474763289075 0.4297627216224147 0.6462467795892096 -0.9283690443811042
Ni 5.070657916362823 4.68566420985364 7.366833464547652 -0.6971906176269282 -1.4586639564923265 -1.2680220563996163
Ni 8.275071760895612 7.132174013514127 9.055400101959156 0.15800020279828916 0.022590997926638514 0.6665541236879939
Ni 4.53185598488599 9.701546598867596 10.480873148309694 -0.21489897286786214 -1.600391133162205 -0.6584505207442531
Ni 8.505456537053972 7.281833128768972 5.04106457331474 -1.0660924992082286 0.03495491880863012 -0.3432340445015508
Ni 7.045452161161626 5.900297880427562 7.057328077822048 0.6812500351372719 1.452854806009717 -1.0366315136346342
Ni 2.1946970595774453 5.231781676876734 2.6083860452560836 1.0647614391016307 -0.0495353877259663 0.5865838165109382
Ni 2.5009031761673852 5.183866738833688 11.495324103843048 -0.8869747977050337 -0.3864064661239668 0.8957358317271155
Ni 1.3156590327258284 3.1020600393588005 3.7380175602663646 -1.335877839701325 1.4431329507362631 0.1049989680109095
Ni 3.745381320114112 2.7128626295879603 2.3742961869155885 0.44545724953953597 0.15886306501921674 0.7651708423216436
Ni 0.992419728893849 3.307541058315524 8.125034130368721 -0.37445803551283896 0.45592446761944705 0.505775072592987
Ni 4.032943739770857 2.5847224715058843 6.616036593843488 0.10575281545779854 1.00154469723383 1.075051251063413
Ni 4.170756054924668 6.799781191324513 6.10231220903214 -0.6211407285502013 0.9760038726502481 1.1182324144365774
Ni 0.7141272938322908 7.493528713370094 11.493951985981884 -0.30196835298354446 0.3004367468303665 -0.4528519993417104
P -0.18507031082566344 5.248141543682924 7.988093492211591 1.6765035000457513 1.511546663423971 1.2409794504595273
P 8.763010702691354 1.5959241146859304 8.00106491941899 -0.862919813638359 -0.7985522459955666 0.7471258118944745
P 1.815617654193971 2.961909300529132 10.59646679897294 -1.3070981964654715 0.4207818582800431 -0.3957305717383701
P 3.860346235073072 6.295327701000832 3.9018855565026045 0.6241478908076412 -1.351944663356201 -0.6513118528169428
P 6.77275738464243 4.242546571665958 10.336421347722915 0.9333916944066764 -0.6900889735851405 0.4949368443269024
P 6.557513219365884 7.831262604422463 10.1698637093132 -0.34073698911130995 1.3570989538636307 1.5146931794727527
P 2.326203819838771 8.467768790495995 5.980819725415359 1.00102867682936 0.1510844495150624 1.0151244928007936
P 6.964280652942481 3.8919195041595454 1.694293500686153 0.2723924390986405 1.1187556339298992 0.7221670850666079
Ni 5.738719173673212 2.8977891774016453 0.3178117951835409 -0.9905748284858876 -0.5240754135640716 -0.38317484656054657
Ni 1.7197149867094093 1.1602948916158762 7.044303876850757 -0.45513513894893226 0.4887453708042098 0.2819204331937338
Ni 6.956919622772177 0.7245164461789582 9.096137808113037 -0.485960351859905 0.61362025180344 0.3626121919178465
Ni 3.003946333145705 1.9727105910175917 9.047929884691147 -0.2867811037201448 -0.22226158388052047 -0.13020914872794992
Ni 6.423913706398538 1.7333178792985382 2.4289770854464443 0.0038499698737094984 0.104606103447865 0.9941036675747524
Ni 4.4041161794955 6.884783346888153 10.545967766284202 -1.659730651462787 0.6026966629124008 0.2113765615369005
Ni 8.250186201543594 7.299239371928172 0.2931409704570095 -0.4743811316627378 -0.3554943499261426 0.07725316535620888
Ni 7.465030880868988 3.686292902405882 8.066864704066177 -0.08422856823277752 0.17379191841490715 0.8997912327434117
Ni 3.0771107875331203 8.217166203412523 12.6769186685438 1.5482661303321918 1.3432149967926865 -1.2536773576421698
Ni 9.286726616835226 4.990732960842482 10.317284489065084 -0.4791451287102845 -1.151568309584546 -0.43883974422301847
Ni 8.716133042076509 2.3727630180853083 5.8979194214825466 0.870151812610424 0.6762980904486353 0.07252259264975897
Ni 3.5298186924692585 2.4367011627166195 11.765276464424876 0.5754226576877961 1.5226129485404616 -0.9362502469013941
Ni 1.1369288527069241 3.172740487273419 12.750536249386695 -0.6394914631432471 0.2040707719041066 -0.667987770810727
Ni 3.201520386443596 8.601859645403016 8.24339749374376 -0.5361624266355928 -0.6679286354380174 0.20311020776305022
Ni 5.836305142247399 7.845293146477605 3.713992759201257 -0.9019836124090402 -0.7041115131164777 -1.291684947234195
Ni 3.2870502796461465 8.289639139514472 3.7545566758912874 -0.6007325972074945 1.5532250169993638 -0.2733674014174002
Ni 2.8338055381462905 4.504877672827951 9.33194554345743 0.6905767118548365 -1.2032497971192375 -0.9026029911605938
Ni 7.254663739289949 6.162956542882672 11.582245222648861 -0.21011800653945104 0.09062290179489554 -1.0830856913321154
Ni 0.28784175664837486 9.338044552756758 0.8525665249054276 0.6452628184093855 -0.25019970505168526 -1.8785814098895455
Ni 4.572591871254907 0.2341007770502659 1.741409553130988 0.06892510510648775 -0.45997318376752394 -1.1188175975160861
Ni 5.992642868311891 5.648494235269331 0.5053278969978049 0.4487950556635174 -0.08263499849341252 -0.49703743560967306
Ni 8.345479241065966 9.394912832811643 10.882399601196433 -0.9615691852821568 -0.8615833542151226 0.7950159507075341
Ni -0.057663526083174835 4.929670076450746 5.806231375969412 0.34338805358091185 -0.724588550023907 0.04409673320889825
Ni 8.119061596124237 8.826930649473047 2.7460454984731077 -0.9612390556362479 0.01273390262690065 0.2565508440806936
P 8.494819893952505 1.6278431429151377 3.8759035767111274 -0.1997852571548753 0.18717913835509054 -2.106564469634875
P 1.8067825982046437 3.181712027134878 1.5020596063585359 -0.07057369645350427 -0.02332273388634048 0.6421163023606038
P 5.001369603943948 1.4542265586387688 8.337496754331221 -0.22244336087402336 -0.44176154585550365 -0.3851810783572979
P 8.3456157249381 1.6184166568132394 12.605299211588918 2.1111294632977384 1.6925690381490461 -1.2605339755526872
P 6.313925903309982 7.719864467988545 1.4401878275512994 0.4937122278911819 -0.06355561326445829 0.07404982792756279
P 1.8009865831014498 3.269589442938094 5.9733613367496 0.14881519386491143 0.43421535807712963 0.9035147043415859
P 6.749518730680801 3.8836576804331715 5.929548194010354 0.18849220073955925 -0.024364544887293522 -0.069041576079694
P 2.3362490328276664 8.548458055700275 10.389250615055184 1.907634361391444 -0.9720973385069904 -0.1587334814198879
