# total energy = -340869.4182564853 ev
CRYSTAL
PRIMVEC
9.28543436713163 0.00000000000000 0.00000000000000
0.00000000000000 9.28543436713163 0.00000000000000
0.00000000000000 0.00000000000000 13.59017178238726
PRIMCOORD
 96 1
Ni 8.7617173046458 1.8356375214396683 3.713840402594201 -0.9276630194530152 -0.195503856170702 0.839105999048213
Ni 6.211017767481778 0.6950528331913455 4.9931374093286935 -0.015915899899308073 0.5459609007832533 1.1337963303131053
Ni 8.777307548960117 9.279538123392959 11.871395348420712 -1.332248470478854 1.4861549628237438 1.7817266682523247
Ni 2.1671368140337175 2.9004539937377882 3.2311036690865964 0.9748080525699341 1.3803347844631195 -0.06416650737557981
Ni 8.823159023900017 4.715923551716649 7.481362686936084 1.3711148085267482 0.16830158472429724 2.2073923369872306
Ni 8.333268791750513 7.042602699168226 8.56443153758361 -0.758637669188816 0.29351559423050094 1.3635835331467097
Ni 2.2189959650137396 5.129738220038164 6.110467655730218 1.6299246238449479 -1.65426731435537 -0.7564087798582974
Ni 5.56898569311067 7.597760249534126 7.44754977766236 -0.2121221814536734 1.598041401983106 1.1349756953331873
Ni 4.107904023458311 0.3052252274887547 8.348619471857974 1.1165933361712577 -0.19592063199314644 0.2677264010815389
Ni 5.592719263371178 5.826535786348426 -0.030907496858030653 -0.6342993774193463 1.3260611107212195 -0.24710435395581315
Ni 2.2730743348092 0.23853816635653982 6.9394545228787585 -0.7265148205123423 -0.6485903401207217 -0.36280039666925257
Ni 3.5907888977235927 3.414439928088395 7.364337428974344 1.0499796528067658 -0.24405656826842487 -0.15319018300415552
Ni 2.593356822679191 1.4440336121412891 1.2914674255687828 -1.511186451871075 -0.12039601929227006 0.011341907375380466
Ni 0.36230372113052606 6.2493851823160576 1.967258553694245 -0.047434796443195724 1.319081851189909 0.5719213294027569
Ni 2.322101428305085 2.717233802665668 12.604530533611051 0.34006695962747885 -1.0143724451261174 -0.36891088044236464
Ni 3.900068145860132 8.100092963745086 5.174566440110027 1.5220992421288366 0.755032725446377 -0.6096954628277371
Ni 0.36542455562370163 5.749578106254885 5.00145530144112 -1.6097682035017309 0.7101592619724544 -1.085740355346143
Ni 5.1689413239661235 2.8118523789389753 3.2893651270676436 -0.5505680605379614 0.07498905191238052 0.04679227776319038
Ni 9.365939090245082 2.434288046414418 1.4729029561541782 0.1972691756012409 -0.928422523326859 0.27334323304768404
Ni 0.6521197702752617 5.988835893775427 13.279459973426583 0.3615549542979257 0.6741126527615422 -1.8270955833054274
Ni 2.5851299278236315 5.871198725688427 3.694284349258655 -0.18954069660873163 -1.432125800992482 -0.29221050226583223
Ni 4.276583224300403 4.95317568541236 2.0888773160409113 0.6215438775258909 -2.3498718184421015 -0.045274812677399454
Ni 2.590859040832526 2.045516194600176 5.518874060879876 1.3836975302877654 1.2849165181621096 0.29648496127147006
Ni 4.863914804772977 1.349396464999233 1.2385608775913488 2.2860688650535272 -1.7500907865145987 0.4857839741830408
P 1.4780090165165625 3.4794565395766877 7.872270188656396 -0.9700581965897745 0.22581587689068205 -1.3853381512149818
P 3.3138229612093406 1.8519241733320513 10.755805192420919 0.004103994866044545 -0.9476037242410003 1.6220256807128455
P 7.030847339250462 6.90458400262981 10.527368650120092 0.8363544044450048 0.5913758385829428 -1.5833760866614472
P 6.498671238960758 0.6741067503299787 11.7992048103349 -0.0142595952428077 -0.4040383202731171 -0.9737814110776326
P 6.458038178139168 5.589376506996458 1.8726436915946871 0.4693916488679465 0.08123631837367298 1.0829658779247993
P 8.158312637271449 1.5124394071761722 9.322939172201503 -1.0049195272433338 1.242372474152312 -1.115250448990118
P 0.7993041190844697 4.120430074429135 11.952487832441093 -0.9715075274417915 1.3050117462500879 0.7069690371699309
P 4.266452815398128 8.346918380280618 1.1590218467417752 0.30689587219214887 1.2191482135170488 -0.17623986573476744
Ni 4.953407821271716 6.553399589162413 11.226936061504183 0.23052459522026106 1.180659313413231 -0.1750407032203437
Ni 0.1451768378975015 2.2410952988243844 10.874800819556867 0.949822329158874 1.462879537235571 1.0640659556965029
Ni 1.5336566247212664 0.8357884478276572 3.9953339169093227 0.15784079440228946 -2.151170024159392 -1.710835183448086
Ni 1.8461393477169117 3.8723696951218316 9.971924179832028 1.657168032941933 -1.6302172153847019 0.8183595105294811
Ni 7.534257163848831 6.388908119223096 6.2696627139024805 0.9174421130559554 -0.15736591164839994 0.73870699170316
Ni 4.217072875396023 4.933165574335915 9.580554263479879 -0.17876443192883407 0.15166526171919686 -0.25620503070550066
Ni 2.1136062848663357 5.965845158264858 10.758305759897896 0.9283441046804399 1.5517036952588308 1.1036105507583445
Ni 4.823383883729504 8.989340442895443 10.771543075141784 -0.43847773289790937 0.6271419404389587 0.1215923535932164
Ni 8.690052322145565 8.299794800831448 4.917100844325076 -0.2894139133573016 1.224493279879046 -0.7772177461838485
Ni 7.612960505604725 6.6259374024938245 3.472791454782872 1.5094715260624971 2.330299809847445 -1.083567001843908
Ni 7.32978261349412 3.7872408327789775 9.61451666824703 0.8257347199476296 -1.2047950301191703 -0.30471146294632034
Ni 3.791577130631738 4.850441639495983 12.209016527897687 -0.8873373232507752 -1.0935755351198457 1.1015670379657545
Ni 2.049750352674821 4.403477970458502 0.733400748613439 -0.12911822965661635 -2.4053215147699736 0.22320620718197687
Ni 0.5845738064634314 3.3755432434947847 5.456590152727916 -0.26124105046751134 -0.6883905028367951 0.16308995861637074
Ni 9.283577287345745 5.190743523876794 10.142970237896108 -1.9968881507529546 -0.6318779124620473 -0.24923219893209334
Ni 2.3978520019299765 8.517798229069399 10.764000516799605 0.1878309130064765 -0.14095173195643465 -0.41686606816540467
Ni 5.104751116137137 5.77066532771874 6.260719912056668 -1.3781107802286072 -1.669069155254893 0.30185933820950595
Ni 5.8855911489684685 3.346869822147192 5.732565333394439 -0.45611961434938864 -0.67296851185477 0.9665743518062321
Ni 3.442212662301689 9.295741206375974 12.866169003603774 0.3039085074290508 0.9760408965357708 0.6589727117963102
Ni 0.4012319762010084 7.632822049731183 6.884617533094924 2.014367024264008 -0.15477346833087538 0.08124943099979555
Ni 8.256013977756998 2.142288991648303 7.144543768989044 1.5831297749785962 0.2263727778354166 -1.4032026902002284
Ni 4.043955236923054 0.5633928021123968 3.5603531009317724 -0.4919944738691269 1.447448290282165 0.03642044761056308
Ni 2.511366437154823 8.205510500195611 2.890452652373315 -1.229264476015444 0.2456732779362414 -0.1111341343743699
Ni 8.138683229004346 4.2480212281653 3.4049901415257504 -0.5582160640015225 -0.6660440168207948 -0.19497112359568358
P 2.802390521311645 7.297627154256194 12.812066491678943 -1.01737677917008 -1.1377470874307372 -2.3698487757846607
P 1.865471622084039 7.355410412366968 5.118588270441601 -0.08252161284399982 0.031063554174023927 0.5217117984279015
P 0.40618668398309254 0.9074330023722683 5.740951009177797 -1.010707851790337 0.41417926536186084 1.8116321975625058
P 4.241205719334622 7.501266015517226 9.24325993129288 -0.21191057966349952 -0.6160854255144809 -0.3042736040779534
P 4.061950408740294 4.225392624595324 4.662842437572981 -0.8132044486911029 0.48675096608200047 0.3391508755711127
P 6.245708150303866 7.570349647261427 5.2433603663017525 -1.0995093841057775 1.622107441793374 -1.933004721835432
P 7.870157752336262 4.28405799897165 5.777073205980391 -1.2055097967980077 -1.1590988136336362 -2.3860140726906134
P 0.7334750320884328 4.292721309242798 2.452753989754431 0.73850310322247 -0.7686446598028568 0.7164618071517145
Ni 7.532102943074012 8.932281448665858 7.018929484231149 0.2108155468271079 0.6005073685705659 0.013224211999757868
Ni 2.760048940565199 6.428111223151055 1.1157303660588465 0.13327338947557046 2.1611099089809236 0.41951533286279363
Ni 5.9206900909030225 8.223227108981625 13.096169213053221 -0.27616193344340184 0.5214976255345664 0.37513809229899914
Ni 7.584704928803972 5.816433233749273 12.220186905449873 0.44731512868388124 -0.5525395824420355 0.1629619176789387
Ni 4.537160369144155 7.046103307927306 2.745486593836109 1.4432080269485725 0.5668655121464045 1.3161358811877075
Ni 5.389693240778844 2.027539593651685 10.122897914409355 -0.6335475868549862 0.5440935085572114 1.3972428730723678
Ni 6.342843079292588 1.8218393659595764 8.22840095301494 -0.7130651227653397 -1.230857531534177 -2.649792287757682
Ni 7.8981997641464075 0.31697780177620566 1.7298114258766761 0.38345895345986863 0.01647794305036517 -0.2655137097009363
Ni 1.088754322114861 8.646076504949257 0.8591571005172581 -0.24073084632930153 -0.10729702001646683 -0.32914542761896864
Ni 8.113417562072092 7.600044466390184 0.4089240300366128 -0.18898790942905516 -0.5201051160624139 -0.11350520570970775
Ni 6.076982522289904 8.871350428302222 3.0616621340823817 0.7267485337897032 -1.017371894074074 -1.0390452652824491
Ni 6.525775421899107 5.633157330070908 8.577803491625925 -0.5361536848848444 1.5506585418237682 -0.4059090549332686
Ni 8.409037936244152 4.043388825426226 0.18531962778413194 1.578748872302081 1.1965492451706103 -0.5787162408374034
Ni 0.0641261383318048 7.27951127179209 11.088792011601718 -0.5158319426083569 0.21427188080682452 0.24929107719448682
Ni 0.4564208839476259 0.327243778020344 9.768683663705652 1.2367073054467346 -2.755680857462396 -1.6586299621994403
Ni 4.839429114328158 2.2496471838830416 12.41140092697476 0.12166383026110014 0.48582408339235683 0.594747326158337
Ni 2.329650486451326 1.8128882072228278 8.975466146853483 -0.7045596563974897 -1.3650156376075457 -1.2986852898114278
Ni 6.236534141142136 3.7272662121558864 0.54700308189846 -0.9980719081938809 -0.9409540801349665 1.49515742343267
Ni 7.435803703178971 3.082151373572537 11.77142650486098 -0.14298470322606344 0.0066565860845691814 0.7721431598744186
Ni 3.0606463075618424 7.029166675628728 6.999549854148714 0.3361272582534405 1.2777703940356318 1.796310479603771
Ni 7.162310519120677 1.6183305007797837 -0.08826362498759123 1.1473527288413015 -0.4083544311499677 1.638764333623765
Ni 6.086407238179738 5.334203484958502 4.226176315256509 -1.8829707972064926 -1.712932689407063 -0.42829153639352696
Ni 1.7172482331683556 5.639759273910978 8.308079265380128 0.1616316289032894 -0.058414435383151005 0.5897146488304359
Ni 6.923841993521944 8.97091814109699 9.561039066055582 0.37320693671455724 -0.06648821353022097 0.4178016926057966
P 0.6183978582584048 1.2784000337739423 13.304805495094458 0.33579147218057653 -0.5480908026420626 -0.0342352670337862
P 4.429096483896975 1.0069403598436033 6.180184554098741 -0.4964998179386482 -0.07466663557595528 0.36964390195364727
P 7.005869520783809 2.1334956852959164 2.4479979902679547 -0.02001963765503649 0.18726192787688395 -0.553384189830518
P 5.802337944369207 4.360235702577755 11.480338351206976 -0.9545703853668206 0.3887531119792724 0.027496662758372
P 1.1017260739356471 7.481766603331363 9.155182014992771 0.37285932356715135 0.8463840207668649 0.19214856654522391
P 4.076862816345292 3.2104760766242655 0.7987247079795183 -1.9002385831480049 0.6208879891094468 -0.8079599124627117
P 5.59208785383373 3.8173070692827036 8.29743815758727 -1.0493391910092895 -0.5376382398501708 -1.1599128248944992
P -0.1494425664490184 8.28880084653237 2.777926187365886 0.9816009071220515 -0.7159085057514057 -0.376169618887307
