# total energy = -340887.7103257372 ev
CRYSTAL
PRIMVEC
9.12288170769900 0.00000000000000 0.00000000000000
0.00000000000000 9.12288170769900 0.00000000000000
0.00000000000000 0.00000000000000 13.35225953423688
PRIMCOORD
 96 1
Ni 6.747137353530072 2.0383619540831575 11.410146904543653 -0.9209673526003945 1.0575502660651723 -0.632047605270692
Ni 4.8703416346967545 0.5089646588348414 5.901885941044407 0.39720278540852244 0.278935639533797 -0.0023199063824282627
Ni 3.318457348298391 2.0149526395912836 4.559316140526835 -1.4116927299491107 -0.8453846329680732 2.062488305251267
Ni 3.8461248269460895 4.661090096699827 5.06555397001576 0.5990832345295295 -0.7196553743883477 -0.8876882788322905
Ni 4.1500262627813616 3.0131144971514603 2.7525814164336753 -0.42542038549331895 1.5430928136613684 -1.9512171310784008
Ni 5.125891797419426 5.280643240024904 2.2743709041629634 0.4420016868907678 -1.9807722190276984 0.46706634316887946
Ni 5.464651764304366 3.5719092482256105 13.519563335186206 0.6325214595833171 -1.4544995407019918 0.21546512978397733
Ni 5.811896011188311 8.419224729462703 12.55897497827538 0.3648631927355523 -0.7814053019026349 -0.8003656450552217
Ni 1.8026449362183714 6.6849466688492045 0.23302759233391923 0.6514802600740071 0.3911658351858231 -0.5807145022143547
Ni 0.6562599702110887 -0.15404989300126037 -0.25815657002989234 -2.176020250433852 -1.0826563171041808 0.6897007370077863
Ni 8.105935848338211 9.307620074175558 6.496675021942286 1.6434568540034278 -0.6397663140711886 2.817997713223747
Ni 9.192033162791285 2.01287262255927 1.1812398479042643 0.0650764207843589 0.9874684216464219 1.0304670366951352
Ni 7.1068981941329765 0.8400851245679916 4.7117585817691445 -1.2031803773338827 0.9485375489091793 -2.6279497379612935
Ni 1.2031895013210407 7.900205742684957 2.967820301703017 -2.160699560916382 -0.7692717518638945 -0.5633487572423975
Ni 7.910742671070816 4.0242308467531265 3.7319163829896116 0.731038933634941 -0.5153192646379965 0.30750008143505103
Ni 7.789809750998999 3.8775714002327186 12.687103115159253 0.720267811161366 0.42659332275549755 0.1543536071846374
Ni 8.463881235478963 7.449352928114257 8.964880706284633 0.030101961591702996 1.000614986330709 0.4567389931009424
Ni 7.144831136322069 1.1228351591369305 0.22506879032195085 -0.033857829089709426 -0.24368195853782548 0.2403276973536119
Ni 2.1695581160892528 6.67066023607669 9.265893837767555 -0.27109737443630083 0.4736918189051971 -0.9996366815778397
Ni 0.25767488187511023 4.708821013855511 1.3461879354074702 -0.1803294624231088 -0.0025582476454794655 -0.21307914605030398
Ni 6.64220596799401 2.3370815931018343 6.898765121434843 0.16219418627497872 -1.0959581764194095 0.43632083445590664
Ni 3.5874911302022747 4.9035671699186585 0.4451546626487881 -0.47709775926295256 0.1449999338838793 -0.6990796071195251
Ni 6.200047259701859 5.939853550184034 4.638668790298159 0.3867599928086436 -0.7884827775747066 0.5938505253756805
Ni 5.582984663086166 3.1479689347270186 8.956482181373792 0.6779826772399098 -0.024202822498448642 1.2162323254218343
P 0.30438768543091377 5.612670520200959 12.317739529258553 0.5408503190295653 0.5319949255214644 0.9722312929816932
P 4.442305147306171 6.3699883003700695 12.39706572267289 -0.3905953073943338 0.8359396855050893 0.3286147519264792
P 2.1031982744626387 8.790124608644945 1.1967779400486755 1.6539983769647002 0.11458095527238976 1.0210801961635962
P 6.666025812163255 7.969913681902575 5.453596656236848 -1.286588506547894 -0.31836890582875493 0.8071836964183194
P 4.874693249276888 1.4959427756952566 12.656059773244621 0.23406757537651304 -0.32566363971795526 -0.07871689438592894
P 4.1715380178756085 6.404600513613317 8.323304926489024 0.5241636024025037 -0.03855163502095296 0.19456257530335525
P 5.031597691968136 1.1817689750439868 3.5167577790794 -0.16433128722263957 -1.0351569859716365 0.3462628040255456
P 0.33730942869156294 5.781361726073618 3.266630257250715 0.7047249783307605 0.6711772242823021 1.253387080095261
Ni 0.8750768496907632 0.2709486747767769 4.7899362043750155 -0.3068735035946457 0.3680629306197725 -0.3581526134845961
Ni 2.3105340072985006 6.523362187835926 4.857391704096124 -1.081787284235666 0.5653778718572844 -0.5695646562451223
Ni 6.60749340305185 5.985513573189423 9.014110512906807 -0.8141220754093657 -0.9191642379533848 0.6650621125234998
Ni -0.2513499879790789 2.202856634364912 10.235134335701023 1.1290876119835263 2.150653746644606 -1.2358950939580844
Ni 2.6672842969340165 5.391422392743076 7.0021383187732384 -1.2387834712494732 0.35131527884778857 0.8491183889788925
Ni 0.9456140588566715 0.038098066348213236 8.571523029173846 -0.6492994503726043 0.4212341153261132 0.0031627139986977787
Ni 1.888628096423326 1.115618959696918 11.8454433812065 1.092768208727202 2.2951497443088735 -2.83571107134311
Ni 4.275949399153667 7.260153484136481 1.383694839020269 -0.406901500753525 0.4752146833076268 -0.8373681904214998
Ni 5.850248605936494 8.00666977234987 7.749771247709078 0.9060634389053686 -0.44250356622785086 -0.16886208521345758
Ni 5.731523423240762 2.9280253793550033 4.8471102163984074 -1.6073850479815348 0.31633027813217135 -1.2969901614971922
Ni 0.933006236320518 7.691793509806211 6.550124161359665 0.8383449525124722 -0.33976562633697616 1.0685561302573727
Ni 5.352212247113273 4.983073084102867 7.229714076991669 0.6957433436574404 -0.3265925792901279 -1.1472683966576112
Ni 0.6663161227303377 7.480425463250392 11.038926812213061 0.3424588568984231 -0.30880723028224877 0.7830886031423288
Ni 4.7323033114011395 0.8291312804875577 10.469426359441245 0.5855404628480883 -0.13343485475409922 0.17483115831269888
Ni 8.560757116456832 7.155641751159509 4.725671888679338 0.6297485248238702 0.681731859869697 -1.976586463081125
Ni 7.809332717878426 6.637024171177414 6.783268526579592 -0.9560742236058568 -1.2037465342499978 1.1229167072861241
Ni 2.4082491933945502 5.90293324786579 2.420310555315714 0.32028437768391294 -1.2874246292959441 0.03196524005268688
Ni 2.6450244655387816 5.507182638880016 11.263552230483452 -0.6914719699755962 -0.05562170312936227 1.6100353411201886
Ni 1.4134810478339745 3.8035939523704396 3.7220627584445327 0.07460467198976829 0.07648826216572632 -0.18517290655833912
Ni 1.9856408206269844 1.6634480069443989 2.568587488764964 -0.8352974239354002 -1.1585282858421466 1.8340290772004673
Ni 1.2646138639374818 3.406192101793462 8.143983738836969 -0.021302103911885893 0.2160693390268795 -0.10024422693474348
Ni 3.7807685023086046 3.1135483019998786 6.986663174512691 0.866554839287785 -0.9220168769108313 0.7566787456902324
Ni 4.428702930662607 7.173157684060678 5.902673245736789 0.0332523342952266 -0.06937016306370633 0.18191120508793188
Ni 8.521081703859341 7.079429197275988 0.5158779786017713 -0.056223598379419294 0.11225359269079378 -0.3819396886018648
P 0.5170301985629263 5.902559209715296 8.003651923077108 0.24227505088796988 -0.6512285490745171 -1.387124039470811
P 8.710901503794036 1.857035557029187 7.9010797147536715 -0.0053440379207327325 -0.7350490832355986 0.2195876365927831
P 1.8162927672705318 3.551702065217231 10.297917095405477 1.666643576532536 -0.6851015476728782 -0.18962734278526697
P 4.178307196111373 6.415447619977634 3.7350938826924645 -0.5367692069816562 0.7540667619886819 -0.051835496614052665
P 7.265490369942305 4.226174956492847 10.365131751049194 0.20138139799740154 -1.101524100542961 -0.46647241833862235
P 6.527805031233254 7.839219278391044 10.117380739908402 -0.22496921261967062 1.854849356379928 0.29674335713917926
P 2.8151662096048184 8.841194500509912 5.558786219325568 -0.1719515227720587 -1.0122785387115665 0.3992892356239059
P 7.184871464188333 4.204772675979232 1.7189561807658358 -1.2394424449897106 0.5132058178394194 -2.2038041054153403
Ni 2.725561265357279 1.9033524275183704 0.47424023414644695 1.9922851047633046 -1.0473668977742672 -1.6636063323681092
Ni 1.9832141340896352 1.2932049752459513 6.810680049281748 -0.07970754043397241 0.49302445779553805 -0.39819934499383675
Ni 6.819974441177431 0.793087687102544 8.772955345249112 1.139837908521495 -0.15992981572083426 1.5475133113265673
Ni 2.934785434709048 1.584726660588054 9.082861461832065 -0.4157244983617937 0.7793209085697804 0.43830983986147737
Ni 6.472794054465522 2.3272927410169624 2.4551736478062427 1.4856944782475574 -0.3902896032284569 -0.4364928412573967
Ni 4.0886110230466395 7.628909486114672 10.521206923792151 0.48174014313097036 -0.8666671964959332 -0.5678795552332155
Ni 7.566746170078963 6.420072921009349 11.483236696014638 -0.6432499017444148 -0.38640260946922483 -0.09612377700846671
Ni 7.956813223753577 3.998549934713132 8.161702199712307 0.0348549028956561 0.5420211994092149 -0.3739936942819107
Ni 3.403692432202358 8.635181585523359 12.700962597067305 -0.3869260860728626 -0.06859497546057863 0.19183797728334057
Ni 0.1514325382359764 5.073663299576098 10.06196926863319 0.3556229050842069 -0.046509713525765065 0.132576620518862
Ni 9.09695448951213 2.584247827524415 5.726610751434888 -0.7967226489859957 -1.0522157412261361 0.014061620299388684
Ni 3.8016325328007774 3.027583387558363 11.478924309825898 -0.6669117641377288 -0.02078376951457066 0.15740473530613536
Ni 1.2622875290990454 3.553006637303099 12.451035778636443 0.20374372758199105 0.742389839871386 0.38569401343797444
Ni 3.5788061468054453 8.459575235307426 7.978014800869366 -1.4890273992755323 1.152392605258054 -0.05919296542038839
Ni 5.691674675890604 8.124555649927423 3.359588772818291 0.3968070926320005 0.10136137125832222 0.4077743902767816
Ni 3.2617039011222615 8.67969212543211 3.2687932925063747 1.4059853951516883 0.5356325222740517 0.6133700834658469
Ni 3.7306017757338523 4.446948694101324 9.43192937277171 -0.8523181268631128 0.3856235652113552 -1.4391343710998312
Ni 5.4217194829330655 4.804821098188321 11.09518032547097 -0.5706771725830108 0.36607263966262116 0.9565010267306302
Ni 8.282846770640012 -0.026252916723798092 2.243940619899871 -0.5904651538432153 -0.6786467931864699 -0.25645442771214544
Ni 4.886698961619564 0.5870957547439438 1.3141000235359703 -0.04090779395795536 -0.05409832450630038 0.3728276989982676
Ni 6.274307516897438 5.947644491172366 13.665904393134609 -0.024388199036377352 0.13128669806284485 -1.1906390503337625
Ni 8.177121694394366 0.19255666445050088 10.898220958302707 -0.4623540252948747 -1.8335757917131326 0.6066114245857746
Ni 0.199623248630316 4.950203341268019 5.71360517125577 0.35592475259534184 0.5614826505679362 0.28663557928121597
Ni 7.39756232859346 6.259309499350812 2.487872792752939 0.6983406720709715 0.1861949200649503 0.7628681623303958
P 8.794503591870237 1.594479021146048 3.5231401471302632 0.7313742054871727 1.5722013009915503 -0.22670162192974505
P 2.213712863610948 3.611931330328436 1.4712188539476228 -0.6143856692145547 0.9107467033136508 1.3054763445913322
P 4.885604215813241 1.3269231460807007 7.996507794402677 -0.82136872966945 -0.4994031076283722 0.07507055588259329
P 9.064659488225601 1.8334893993115227 12.457925378910906 -2.464802700854742 -0.4981643501252646 -0.998263712489713
P 6.573027155916114 7.9763818050416 1.2956125037316903 -0.060177440820844745 0.622282041243496 -0.7239791985746821
P 1.9916345539166032 3.4201227421789224 5.86436535310903 0.2804790727615169 0.5196988817629308 -0.2742965980998889
P 7.147130102515348 4.090700162960373 5.831158975938736 0.9682190864985067 2.291905269229646 0.5888741552070116
P 2.1542864120910465 8.870287370312948 10.270597713808685 1.608494221885314 -0.8358216718699865 -0.3184735497274193
