# total energy = -340886.787924179 ev
CRYSTAL
PRIMVEC
9.08569062234040 0.00000000000000 0.00000000000000
0.00000000000000 9.08569062234040 0.00000000000000
0.00000000000000 0.00000000000000 13.29782662147865
PRIMCOORD
 96 1
Ni 5.211870136496685 2.861411059833727 9.742705978629612 -1.0452189981933289 0.606654104898252 0.8717181286562794
Ni 4.837067227206351 0.5884265756222772 6.167133287877208 -0.7729342883171463 -0.7889023816106284 -0.4278873589765728
Ni 2.7177117770514148 1.4871730970951684 5.344968235468274 0.5813158832437795 1.6329826939449812 -0.2876419090585433
Ni 3.487088058412453 2.956810811301499 2.7557880892848567 0.37644369848430004 -0.3737391550689434 0.5326950369122826
Ni 5.2705818692571365 4.771068770571884 11.68011956563052 -0.3756566838066305 0.6683878344626231 0.07448485858245235
Ni 5.320435053667009 4.736752117115334 2.682916307699403 -0.7824895361057491 0.390371878529618 0.5866262397130995
Ni 3.4461206794250074 4.69384040033607 9.63044591108577 1.229157775234251 -0.17802626821122888 0.020349767300945596
Ni 5.2609237801323525 8.647478671879005 13.009835827212664 0.9448729555733986 -1.3799552896365137 1.0250556358715766
Ni 2.331261012391396 5.539809053589804 11.88906773557148 -0.7319979551141006 -0.40757795799525937 0.2764709800433884
Ni 8.048831602882816 7.336495287208888 9.456682986624248 0.42938914033307984 0.7823558387413622 -0.36153541391389993
Ni 7.897836510535871 0.13649796440008768 7.40161061471548 -0.430295197087117 -0.998611839857751 -0.5193350706656088
Ni 8.606111522504456 2.608483604466125 1.4092642086322165 0.15260217171116947 -0.16436034068836208 0.14029044422335193
Ni 1.524079172377272 1.1628957133202884 2.9855479421507765 -0.9631748392063799 1.635457380737719 0.300781788874611
Ni 1.9011353329403693 6.613646827492274 0.9612669757395607 0.3519593401896906 0.5071030473757911 -0.11832191037206076
Ni 8.119618218471901 3.974344560456751 3.936555356046774 -0.10024654092758864 0.7067638631376603 0.043303547883641554
Ni 7.600652656177839 4.293297729530668 12.630528232514926 1.042899606031533 -0.20064143450758348 -0.10669846720051945
Ni 4.272446069566998 0.5271372324340726 11.205294105487004 0.4050533918011927 0.8275422054700136 -2.6968334483068843
Ni 0.6362236682457539 0.15025915140704835 0.6887516799729707 -0.6575714605734095 0.37247057276916495 0.4011653696006962
Ni 1.6426474349157882 6.304433518758686 9.670273035900909 0.3939061169351216 2.0025708029600287 0.3190016543167474
Ni 0.1528676531828957 5.0794098530063385 1.8469882511453857 0.2066398181828635 -0.8157171878106275 -0.8862793142999059
Ni 6.20068401761483 1.9668248760938922 7.481490189473038 1.29023613060281 1.0819420646459754 -0.35021510380507426
Ni 3.4623113801026806 4.350637523008107 0.7464494496606789 -2.06700419084375 1.2718882242232417 -0.29079099621048626
Ni 6.652733468522213 5.82062957914846 4.691007482002007 -2.8035087755789525 -1.9194550081754556 3.1839543961337937
Ni 7.161750199591777 0.6966507793945022 0.7690655507419719 -0.5228338278474867 0.8048481063066074 -1.5900087614866165
P 0.29129814397700193 5.967336225524662 12.987747604756159 0.07867704228692901 -2.2204828516226014 -2.3898635283436906
P 3.7874519044860784 6.593730993662049 13.15601822924032 1.2887124948694322 -0.6729052627170024 -0.4190129393050784
P 2.3539025534064137 8.650186207682568 1.8940230543261816 1.9376224231131016 -0.09492358605277845 -1.0713344643334581
P 6.521745066911654 8.063159736984213 6.046787864254205 0.08871128659447948 -0.5794430917010989 -0.4975660544196334
P 4.449099152213463 1.6931638747406272 13.380805483632116 2.845288944839532 -0.0006859703234310767 -0.8978158541845958
P 4.200369285910442 6.466822067138065 8.505821852347164 0.4033916878280536 -0.8213764429789339 0.07422800537663991
P 4.709476873886167 1.5697165963413309 3.9955850879787853 0.4099811681201133 -0.17650083270563796 1.2013492376624149
P 0.2338338765381243 5.827907217331858 3.851209829814644 1.477933603355216 -0.5515687338883339 1.4290600175829646
Ni 0.7378725577191955 0.03694514375175237 5.106724164705153 -0.6483825949852897 0.9513793892333486 -0.0012960931036042195
Ni 1.8963835167482128 6.813695563474883 5.1347962230013415 -0.3986729421961457 -0.8511752715079213 -0.3999199272293693
Ni 6.608613354891022 1.0394393492303762 9.617014534648169 -0.13241592657128162 -3.130466708628299 -0.09936773786706113
Ni 8.186625186764742 2.3447896057185877 10.497942199685003 1.4554212811853127 1.0185116641054717 -0.1732105919901404
Ni 3.242737494986334 4.772876823004464 5.530087364630707 0.9852382467643226 0.36317063552447776 -1.1008353020060526
Ni 1.274758736184213 1.2504090853333911 7.324988260043751 0.8898341215306999 0.27036255315280533 0.06854586739019806
Ni 1.36867752008158 1.2010465282167813 11.913323803808957 -0.6938214440443793 1.4053433906923152 -1.84019329702965
Ni 4.04659397223501 7.079733670401342 2.0769080121661463 0.6301791846033856 0.41626211603281854 -0.05060419531011284
Ni 5.627431453890298 8.088972184024207 7.993722346451599 0.8602638640727507 0.38607685069868997 1.7295918952302984
Ni 6.904161784938178 0.7954503962907729 4.845741336037425 0.2323901876740901 1.2780776408634054 1.0242660500907457
Ni 0.6991865956454216 7.890086416440442 7.30118465919895 0.8077261991853509 -1.2023841066848326 0.17093516569240239
Ni 5.466078674241141 4.565241535357513 7.85268607958883 -1.3982399468783147 0.122451359159402 -0.32260094163223146
Ni 0.38601556007951365 0.4494881947227377 9.564794527832834 0.4498101271915931 -0.7244119152367267 -0.041059231934155095
Ni 6.196831684793655 1.797276803509122 11.978801650371128 0.23921209569192994 0.7971651358400529 0.3046204458944109
Ni 8.317195646606965 7.338112540138532 4.992562462115386 0.5797629369343628 1.2071054234199017 1.1047762889316715
Ni 7.139808256754191 6.207625485245438 7.31787416429144 0.30827835436197226 0.8825733262032284 -1.0606700426410764
Ni 2.5474822776704467 5.329393544614364 3.0609473628655954 -0.7141940941634604 -0.27875591942282313 0.2191142965007904
Ni 3.842284047353507 2.803371668178858 7.773763228053134 -1.0408758907332847 0.05874919301475043 -1.2015592967906918
Ni 1.3856223330803794 3.3161498751634384 4.366793698061438 -0.11023861914329401 0.3764678668540162 -0.6203812246763574
Ni 0.8643308339886271 7.867790131668832 11.975743406909789 -0.2725734447611951 -1.5739565931197603 -0.8952717476065034
Ni 2.497883492597821 5.808545610629208 7.453950552646947 -0.7531501637116835 0.32874562107738864 -0.15516864688676502
Ni 6.55514406561599 2.536243278378481 2.8958149359201903 -0.8220809252451262 -1.1370734584024804 -0.3090571415095258
Ni 4.371262040706378 7.0753907102869045 6.21152142938157 0.015220159383864111 -0.4113237981909368 -0.8148162732629128
Ni 0.8350776359123621 7.788462966900726 2.9784202178625416 -1.0835762578152885 -0.8454057160139957 0.4495224207478452
P 0.10208318548488526 5.951427181256083 8.24045063511192 -0.003528581978548762 0.058982134961162926 -0.4051168980492765
P 8.544764939465372 1.9676698453211783 8.143296436786203 -0.9087106467202286 0.9274534745453704 1.8094719566863933
P 1.8399977207854519 3.55462199676102 10.463581026344436 -0.4773389287394811 -0.5738378296991794 1.0975139509423033
P 4.3548896262163845 6.175870996542594 4.139533318683975 0.24065062791066943 -0.030066994588709504 -0.405371951482876
P 6.867183024131148 4.057851142908207 10.457024791995945 -0.38414132423887387 0.6169423741981375 1.1179938160632101
P 6.130242658269151 8.121626156098033 10.779882990896608 -2.1017444225384123 1.5143787335561274 -1.0964657121834471
P 2.6401835790252726 8.537414615757045 6.1180641985674935 -0.8410829202689257 0.7887617422677061 1.2779601414489346
P 7.161177801082972 4.368599933355895 1.5976941634551127 0.09724374954552284 0.09075171406327595 0.7970280960415563
Ni 2.5589211621559627 1.6604372171418735 0.688332829635574 -1.4344364514035295 0.4595348106785247 0.898562502542633
Ni 1.1310867104737488 3.9525207315971715 8.377829911501756 0.421513594239745 -1.090379396780051 -0.22070683779889086
Ni 7.946690268977988 8.917696196488816 11.463032434035767 0.38618432281083165 1.6048008321941265 0.5362488157018119
Ni 2.651667891963869 1.6680601115686795 9.509754322650299 -0.28266682444145513 -0.4861056191885176 0.7251750186549962
Ni 5.50633736936054 3.685955654614985 0.4419343515446134 0.7146401805619434 -2.0883430615308423 0.07715572054639615
Ni 4.021853636687702 6.991884127835449 10.885826686324224 -0.012253877666688572 0.9356239261713049 -0.07567296535328256
Ni 7.187480875416228 6.674311983735161 11.628603699837925 1.8936115647497904 -2.46921728498267 2.316092407998811
Ni 7.706192038373043 4.265749915583021 8.528015468814816 1.0118931303476895 -1.4931666182548864 -0.8042289846653699
Ni 2.8588488950800213 8.774869140005638 12.755727232064983 0.5413578547936031 -1.9231620247133976 1.7755297954129938
Ni 0.008571440527113883 4.763991017582037 10.50818177300921 -0.3663289786478014 0.5148808915489971 1.0437876650634412
Ni 8.611244937702484 2.778704018156477 6.077026859762304 -0.05646862451068985 -1.6008091945362302 0.26877798227450483
Ni 3.551769089907603 3.1116128080165364 11.734108556408787 -0.13264706874548124 -0.7693175175001654 0.4010396426561093
Ni 1.062017290411082 3.609354197031673 12.764065170343267 -0.558942914865218 0.06868316429901074 -0.03185134018264192
Ni 3.183898562557259 8.411423343985275 8.240410658073209 -1.1789628995474146 -0.25341306978266037 0.643328320390834
Ni 5.894832414409155 8.087136874519778 3.800386293646985 -1.8088564345895815 -0.8031727754867135 0.805079248480807
Ni 3.2139449414242995 8.721181794155822 4.064028503958011 1.2768540528689494 -1.0276311099082367 -1.60999806012435
Ni 5.075639291400708 3.0942318818681698 5.590778869376381 -1.2972925232289592 -0.6959714005078464 -1.1236710689536455
Ni 5.972505983485152 6.028619208729435 9.725644868790928 -0.014960477964574235 0.2148416372673655 -1.142946886464122
Ni 7.859967352048475 9.093322596095675 2.7575434447118634 1.5649075955436145 0.4517145433031575 1.498675720998574
Ni 4.751207450885356 0.4981320737116237 2.171947061716464 -0.26838331793924747 0.29079716685807333 -1.583065497399564
Ni 6.131605511861548 6.1545832234293565 0.5012948026150457 -1.1805942645032506 -0.5515414801948243 -0.15014548264056077
Ni 8.272684848279287 7.366750636960095 0.6970823496987612 -0.15793772499146996 1.053076803674851 0.21387335981682523
Ni 0.21205820183880925 4.970036309371192 6.2102312613140995 0.3141589815124654 1.4856618252374092 -0.5510414006299542
Ni 7.429051217513858 6.485829331906692 2.8347908948979725 1.141964982166827 -1.039234241364804 -2.3093296353536807
P 8.609482313722983 1.8170745233613388 3.9812633138608184 0.5652678286419813 -0.10470149137514873 -0.5453952580877703
P 1.5656643783266044 3.309771720351022 1.6891034796043465 1.0366610813209887 0.8825663842246929 0.9834572436044997
P 4.615721632419888 0.8626545240699792 8.709358584957249 0.3490593929340763 1.853779520354517 -0.3116182173684827
P 8.420118349904767 1.771882298237463 12.572323481290846 0.26374993293229415 -0.016967223981957876 1.2065156123547027
P 6.375683504569188 7.921059535750312 1.6937444503709884 -1.5158987697450794 1.1501143507468385 -1.1814434998774233
P 2.0995849873745662 3.2941806752540033 6.434286209042247 -0.9413775408256304 -0.5889474316471083 0.8635533334572999
P 6.804428159046585 3.9326594119106426 6.2591804195076834 1.1830195861152915 1.9190629149433598 -0.09591243232860902
P 2.3890460047090176 8.622965478597097 10.495947890594795 -1.1451600920653568 0.06962367383540911 -0.2675939892687327
