# total energy = -381170.0810920537 ev
CRYSTAL
PRIMVEC
9.26930434797924 0.00000000000000 0.00000000000000
0.00000000000000 9.26930434797924 0.00000000000000
0.00000000000000 0.00000000000000 13.56656386890760
PRIMCOORD
 96 1
Ni 2.7235719402948266 7.055275522412051 8.215450411446467 -1.906073444662227 0.14507166766207918 -0.21101840686653336
Ni 0.138951509463016 1.4747278111168352 0.037282069724905546 -1.091636409115604 -0.322442047456864 -0.8451007831790671
Ni 5.785631073882803 7.612629534119578 11.963525211253192 0.5586901754244636 -0.9684162901109774 -0.02277714579551561
Ni 8.798182852009521 8.616068826031745 0.8605881860360163 0.5779755060166368 0.4841796058103984 -0.07280387133560365
Ni 4.667975411629201 7.980083304049392 6.0232830648449776 -0.7803370085391206 0.4557995120058085 1.7957417515844945
Ni 6.087003971862926 5.947973673311458 5.608620726975793 0.892787804842385 1.4871116703100582 0.10414741864389161
Ni 0.8160093197900282 9.086819725574037 12.009895834063617 -0.019568666160546942 -0.1274089602749935 0.5716621622040994
Ni 2.8191384699345114 4.386170015498678 2.8981027482417385 -0.7547966981761711 0.5635217924851521 -0.5540794161253296
Ni 5.166478608915549 8.90795922548409 8.538279895538126 -0.3663050673884014 0.7816858092575313 -0.0260874411156712
Ni 6.763273891305421 7.753801042016028 0.7350243330966274 -1.2811156563587809 0.7161874704444052 -0.6152860695416371
Ni 6.437847148086211 5.574569009877408 8.148268346119357 0.6079633106279787 0.2577998859964463 -0.41744122394258437
Ni 3.951967983693464 6.195093331914173 11.650422935328734 -1.6344685344618883 -0.631625430131609 -0.4594677048860151
Ni 0.24635494097950753 9.17190267179738 7.138129200897436 -0.4158800501030515 -0.09296440544387861 -0.3558926138058258
Ni 5.156718031252058 0.47037641963953336 11.451224654183267 -0.5902489240673513 0.8717222424213373 -0.030886662276527452
Ni 5.1391526991795855 2.9719800322263414 10.984344616210086 1.4024136186400298 -2.147562766424108 1.6814582729478653
Ni 5.768260397205328 5.003375926515948 10.793938270405377 1.9722914352501966 2.3124581536803333 0.06857723484876577
Ni 0.8199747282652812 2.9657325209773453 1.4629233518058617 -0.39784890363295355 1.3549050315361053 2.2464803041276276
Ni 1.392666658168229 0.751310501144826 5.073772586651889 -1.5671819934000881 0.29246504147879954 -2.159981966024067
Ni 2.242930692825712 4.338609213987405 8.095426821820913 0.5192566520191896 -0.05193885496113635 1.1796452703264202
Ni 7.67987833843926 3.1024547627024037 1.6079230824706132 -0.23124039034036303 -0.18596532055264747 -0.5694633547805676
Ni 4.536814752618382 6.648788711132798 9.360128877178107 1.3880241826875772 -0.20361928618898478 0.6971697916913219
Ni 3.4514904245435605 6.257985563107701 4.499567906250667 0.733720337121846 -0.14385167921204903 2.4299470266281373
Ni 5.552044599884738 7.60416665908941 4.024453018138602 -0.22176767496323743 -0.9061701396865619 -1.590413967344835
Ni 5.676327434938946 0.6354117520323334 4.163131083118167 -1.894125014051099 0.8263191316961898 -0.17334068981010145
P 7.175062744772249 6.718521689064839 10.087431879606466 -0.718806396124491 -0.22287684886701617 1.416637989769528
Ni 6.890430210761988 9.100195332001784 6.027556214230419 0.21758217612698014 -1.1555010689800487 0.9573456341191127
P 1.23086167840195 3.1668393519242515 4.088568797529261 0.4210327979485845 -0.7407998696764467 0.4152408738571558
Ni 6.375594498904823 2.122198001404093 6.1792576520658296 -0.6277353510485834 -0.6013092956465708 0.013800910438834297
P 1.1626210584982295 5.827787870856739 1.986443475071312 0.15164237890106141 0.02456174849976415 0.28544721540006973
P 6.5949062439363395 0.5427289030299818 13.1161001975086 0.8640680683101893 -0.5887746535146698 0.4463797613538054
P 6.152500877627621 1.413939712050196 9.708152330965271 0.4843639539070626 -0.20479196634084731 0.344772078412632
Ni 4.451147840210044 8.936582837853376 1.197208541398086 1.2792387510510421 0.643594172457711 0.7618985993282749
Ni 7.61382527440314 0.7357056269791218 8.27622831427813 -1.7398631952493198 0.9547873864736331 -0.16626938478561687
Ni 0.9338175456344098 6.999835812055605 0.041316071053634044 1.0388154086598302 -0.016096134230914216 0.8107966105805585
Ni 7.661441691741555 9.158360217888207 11.08906551099741 -1.2098922421364193 -0.8886174755147792 0.18528732064901637
Ni 1.8494579850977797 1.967205960462757 9.503880032523512 -1.7321465433313525 -0.4807309851401656 -0.7022842300997518
Ni 1.6606885984719622 2.2187656159323406 6.842825843519454 0.3229647527295535 0.5815843064138178 0.8681234693264854
Ni 1.8316331124986416 1.9842058649592829 11.774339632854257 -0.8968725164347199 -0.8308820684765238 0.812435174625246
Ni 2.915446543936095 5.285394516650517 0.5381489396648055 -1.4070143506368349 -0.7048635607911539 -0.4939479980510718
Ni -0.008397989898501884 4.456384997265953 7.281866452286056 -0.15335884737153588 -0.19703417677229937 -0.8487746324862285
Ni 2.749340606870804 4.171585615774265 5.625159020107037 -0.8459379343683818 -1.2784599639034886 -0.9696519622902913
Ni 4.810518776595163 4.044521989362935 8.947881193137354 -1.2159780433191831 -0.03127695573641066 -1.5347719525004988
Ni 1.2179217292868192 8.403977869224216 2.926972924111357 -1.3879285376499775 -0.9519314050820766 1.3923400364541119
Ni 4.819741734596278 6.320451406293135 1.043666219684262 1.7159691622405413 0.9208053731012336 -0.1299337835793762
Ni 2.2024238320569998 0.1350732324502862 1.0143770712501714 -2.3124859215944755 -0.1653712984513797 0.8049049276864718
Ni 6.478465240509208 0.9935304053762963 1.9193568835807961 0.1677922491880465 -0.011202296473722643 -0.6733932580970143
Ni 3.0104847232179273 3.6642487712767986 10.96197407667251 0.1241223191039217 1.7715178460401233 -1.160862076181646
Ni 8.38650523019698 5.152509766998284 11.32620861714123 0.6597846661746443 -0.7312070837816891 -1.6316274654686675
Ni 7.16967727884396 5.712125489009602 1.910158952701896 -0.4013378906228185 -0.18443551417168236 0.1978348182967238
Ni 0.004537324564367188 0.8934515782944583 2.5572833979304184 0.45517370549635155 1.6423366243560555 -2.1390539576221483
Ni 1.032072173585977 6.083027440222245 4.286193150766601 0.10908727914767018 0.22965350546921737 0.24444583328704353
Ni 8.622733455984308 2.0609742450248376 6.05643936712637 1.1281262765115216 0.4106846219450411 0.8071829250873712
Ni 8.246047458748857 7.2917169422034265 12.353346739929224 -0.7826049786376909 0.46537764261254694 0.7412793804160267
Ni 2.7989221167682503 0.11714917829274415 7.890679934987538 -0.1806603633999663 0.6070852788983996 1.7887714909142485
Ni 0.4521640901113032 8.811697498005126 9.52991472813932 0.05267856134063831 0.38366644148498436 -0.04032492487129184
Ni 7.236740697073167 3.0686681477133977 12.77780395188864 0.6613121585627644 -0.32035765412400957 -0.7513251946878028
P 3.0134787085790924 0.311158502765828 12.758797242962723 0.8760113567149945 1.3017112211219453 -2.536950940884218
Ni 8.902110294329614 4.384557156511549 3.162989809755545 0.3674749193267865 -0.09410931768159922 -0.09957394034059625
P 4.351817972933724 1.9899435644594736 1.9630004770003395 -0.05671262220069588 -0.5505675463173292 0.6170395618976341
Ni 6.9205091039415 5.470826953647791 12.888208784209914 -2.8876710093501683 0.26503497029230483 2.62591908068451
P 0.10704563636187545 3.345922315322768 12.442180973693324 0.2867019137427772 -0.3682693902036238 -0.7515108283360477
P 8.759020040396752 8.433843568399682 5.013904002594003 0.872189154755427 0.12739687609013542 -0.3194837361594885
P 4.44547502584152 2.738699445277559 7.188719211127064 -1.0037527606287424 -0.7139680941955833 0.46691567652362814
Ni 4.0777895232986126 5.550904475428319 7.005556826807653 0.8733577211422314 0.7332415977132145 0.26957733824734864
Ni 2.079735317380873 8.15082389337655 6.1685673631586075 0.3769949430020798 -2.3568562201797345 -1.411493983674743
Ni 7.960070875582653 6.472189921346642 4.025213101109548 0.2694264144917812 -1.77401850097479 1.6299678183780575
Ni 7.853510950777822 4.240966360134404 5.405882498432709 -0.5098754679146058 0.4859518672194728 -0.13267586510088764
Ni 1.430448343406964 5.087328017587395 12.069642990232241 0.6230312607046947 -1.2048068571937123 0.5444784027004558
Ni 8.464172732801336 6.733602847524953 6.422262666390459 0.3140967608159623 -0.243259012067794 -0.048006352675949576
Ni 0.15893427615527908 3.8384190032777377 9.515234930565084 0.9933562478857666 0.3362876950907047 0.7996323664336229
Ni 2.9791173967096154 7.143018759033705 2.531738121593463 0.6233822162862104 -0.8926749334136045 -2.7701739088722483
Ni 6.516877238455557 3.2731768134205135 3.6643294142261555 -0.480203908992102 -0.36736770432496085 0.4319499590817206
Ni 3.323286673675813 8.816869769929367 4.0806194419697075 0.41032800993657076 0.42358950293216724 -0.04790916497645298
Ni 8.480254976150013 1.799505703019384 10.393711020471 0.6247857815019562 1.2878956553950915 0.44494842822391756
Ni 3.0560248163430264 8.796792456330962 10.702906284538702 -0.5438916769590504 -0.23949183171587787 -0.6447365135922702
Ni 7.200553332212515 3.3279120566331555 8.637518923630115 -0.1256410697412933 -0.6333583536623157 -0.1610868121434129
Ni 9.094049783102548 4.896621346316118 0.45759775642311534 -0.6334802239521606 0.12218524998220892 0.14871852038604708
Ni 5.209923839218284 2.2238266562022986 13.572804392975627 -0.5893654930211333 -0.6160314323480939 -1.0108793443711948
Ni 8.878065718395051 6.20553983811242 8.86151722902883 1.0934675487870715 -0.07104729365581312 0.5526228861844612
Ni 7.881634020702827 1.0116426264156702 4.104686264235128 -0.5575825441825816 1.173417287138837 1.817468601738625
Ni 3.2564457187551756 7.567942217010662 13.325649511015719 -0.5215176801392244 -0.10996016867092676 -0.4685074464907802
Ni 0.7814811604391236 7.000836896944168 11.120892595010098 1.5262713712286553 -0.13220998120806263 -2.3443727430007435
Ni 5.190560262068208 3.9674291836390503 5.672668840443429 -0.23416296330379668 0.030101447371070737 -0.9912579705958413
Ni 2.697738388587184 2.7691120334199257 0.3524282272968434 1.8214489265426113 -0.439748629190533 -0.08594297982072295
Ni 3.9505497801013325 2.712115079903493 3.980592522993203 1.7380479964174516 -0.7066324797661184 0.8792177794674341
Ni 3.5429321136701843 1.0351495826878563 5.915944518460152 1.7322288186325134 0.878619483761803 0.26563300888762
Ni 2.3208113894341142 1.5751607256314797 2.8202582019209785 -0.30830946471022386 0.17351783881791408 0.3000868196901154
Ni 7.289140075545829 7.834824032857976 8.305612936548815 -0.029708839918342382 -0.3496270925120882 -0.6812479782547428
P 2.3338625702035305 5.664722265675232 9.964152910232176 0.0017537494663131088 0.17983632483677414 0.4623236862775715
Ni 3.989295473010536 1.7775837978207558 9.313663707461538 1.336573580216769 -0.5624938654412699 -0.7176589127836093
P 0.0250465877535783 1.9253643198426273 8.312966275827494 1.0348229996709855 1.1512348375045272 -0.45652764842108473
Ni 7.483545199322076 8.257587742880904 3.0083045827939454 0.3542810463443318 1.778026079472286 -1.7494971187946582
P 4.636459776248509 4.50837652633957 12.802888543790765 0.67671152383697 -1.1484086809096417 0.44778666900366104
P 1.7336936409008812 5.88209672606129 6.510512933969562 -0.4949468716292314 0.66419076566214 0.08265042511238024
P 4.965019544396742 5.657353168578865 3.1189531978241956 0.7555369187763052 -0.5432414449695611 -0.46823285267315484
Ni 5.301801185657523 4.029681832820439 1.544811168759874 -0.3471182100473054 -0.09048637621703125 0.3872968391487201
