# total energy = -381174.4111032391 ev
CRYSTAL
PRIMVEC
9.09494909196508 0.00000000000000 0.00000000000000

0.00000000000000 9.09494909196508 0.00000000000000

0.00000000000000 0.00000000000000 13.31137732763322

PRIMCOORD
 96 1
Ni 7.879909375345582 1.6544440009584016 7.991338872734054 0.21408933248237325 -1.4909942931939162 -1.0310558193190695
Ni 2.7483390040108886 7.093078043821327 4.167220185288886 0.8790318887088732 -0.48977201229651135 0.624337381110628
Ni 3.8776497388603937 3.6156970148702237 2.6248568800745455 0.5646265955135567 1.1255765135064744 1.615206858018799
Ni 3.54318298569261 4.16424067996359 0.5141065498195527 0.48430507564466924 2.1711492954947964 -1.1738422904913977
Ni 2.465813505155578 2.857023645760855 11.709419548617475 -0.5112065280212035 0.5547095935101608 -0.24160399296287421
Ni 3.7271465211467163 0.14978562622965463 4.037300656379269 -2.708655894863109 1.7179273144081768 -0.4851674236449644
Ni 8.752769830410669 7.609116360829808 8.053502849835395 -0.3906593278630498 -1.1405732440256227 -0.899856024543076
Ni 8.88301859647772 2.908446487974605 9.909628256590421 -0.8652795721197872 -0.52594769088612 -0.10790328614189804
Ni 7.354266792087063 6.456422511843134 5.056486109541302 -0.6440099198388909 0.9400397958508133 -1.4032800804053833
Ni 8.543649665744812 6.674874094286015 12.487349653457153 1.4008894686860198 -0.12177567324861607 0.4880812548576498
Ni 6.020319702478206 4.440772607361726 5.567576774239157 -1.0777344543225311 1.7585579434453456 2.4302925828930144
Ni 0.7558130076172878 0.34871762891322505 7.250627118603097 0.4079939624867554 1.2625407215700708 0.15793618232957315
Ni 6.5898090353498295 8.242424951539046 9.043337083260566 -0.5878367150814326 -1.330970632207695 -2.368784339075888
Ni 8.274002614815691 7.881082623779536 10.351819224883169 0.731552897156882 1.1273220354426714 0.9050560806867768
Ni 3.953019582055538 3.438782064968939 9.823250796499046 0.5105395838611659 -0.1850212114718233 -0.9651175647550475
Ni 7.497339436385699 6.2826998890760954 2.3041862551971826 0.7637230541315234 -0.12624836430798902 0.6210545965942981
Ni 8.909766841782043 8.320395950176911 0.9612815502193268 1.5259101312344947 -1.5028892448592892 -0.6766061086073573
Ni 3.238365766592181 6.109823096575395 2.0674028933475026 -0.35103914236826644 -0.5320327207379354 -0.498335071375174
Ni 3.798232643315565 3.429323317904507 7.464421177611656 -0.32490927805043396 -1.1390606640358383 -1.114592246580829
Ni 0.3483711113524992 3.8405696313779996 12.809724671795935 0.39532382321825466 -0.14153125860898852 -0.6732503047612469
Ni 4.946297163210127 6.554784386364128 9.892416974912797 1.4491981830937364 -0.010051727809047206 1.3046870159208175
Ni 5.850089540165727 8.669805704716676 11.206595283156988 -1.4860891425828149 -1.773753163128545 0.5786920724676873
Ni 4.406730212878871 7.844802871817977 7.923544212644646 1.213450391801323 0.06627841151226006 0.5624966936547474
Ni 2.9545396900155114 8.349572546891043 6.3675102894374715 -1.9394144820165178 -0.06590020223723489 -0.477790414454603
P 0.483301047721535 2.7122775308277407 6.605118563170558 -0.7330119982009118 -0.9875108448485831 0.6375813906047277
Ni 7.3396239240353935 2.6233744033711783 12.170672620729784 0.0699203791402215 -0.5077409380701061 0.13312940769853845
P 5.660177907999948 8.80312856357967 3.8360458036954523 3.5343271085626546 -0.0842553077056549 -1.5361351513966126
Ni 6.591273322154996 7.401005735514097 0.400603404036186 1.6858700288623159 -0.547420001827283 -1.4740016152906614
P 7.6890973432188625 1.7839651710974203 0.9119905640747145 0.449458143168813 -0.9168335329376791 -0.48958432176573746
P 3.834357781142416 8.914678114296267 9.881634003259343 2.5089405717142212 -0.7419982608599222 -0.5630134853901658
P 1.6243397194360263 6.300698793345817 7.123823519255282 0.2238145301899371 0.13450674766203932 -0.8121770358678528
Ni 6.78217630377272 4.898421351145539 12.70196953384403 0.5496535191434921 -0.96136375413957 -0.3140664217986591
Ni 3.23965724936444 0.016947528153714437 13.115247658946558 1.2384178603799383 -0.22794295053601388 -1.7279538454062433
Ni 4.948407191401423 1.7431288496365542 11.151379847168366 -0.9695424332956206 0.33698137872361966 0.6132736670972986
Ni 1.957233046409438 7.728460282925461 8.715331381933717 0.5404420278475531 1.6425173729082936 0.05872682441724724
Ni 6.906313264044291 2.4040224209673546 5.211510426452796 0.4929786921592671 -1.2797020638407057 1.0733928895243838
Ni 7.8328793935473335 0.09061479687726075 12.308631175149257 -0.5008534669216536 0.22956403107920464 1.6175033673624595
Ni 8.373237604450324 4.830945923769556 10.831654187502535 0.09767980864167693 -0.5934638314602231 1.4588362204041327
Ni 7.712980679556554 3.8679727130175516 7.663906153200531 -0.08344746709237887 0.45149008599717727 -0.5727386830977297
Ni 6.973552222743665 8.881181416759436 1.903792944485216 -0.2820446174764239 2.2242572310633695 2.3973960892753103
Ni 5.6242619540024075 0.7201735400723992 0.18593986789362674 -0.09661408638132393 0.21181107797115778 -0.7085037286469024
Ni 7.551981890580997 8.788558455120803 6.164884827924222 -1.186225494647099 -0.4346735286604707 0.8028992101103528
Ni 1.7749066017934063 2.881489058840973 8.754627019016974 -0.4539061516378376 0.3722851962312363 -0.4337487028533562
Ni 4.085396566212087 2.879651879122689 5.0390083458550325 0.6635179079648316 1.5306067653792157 -0.6665996322139487
Ni 1.060352830770154 8.502285837236123 11.768734987660565 0.14956441332611017 -3.9221443389912194 2.0504303456454687
Ni 2.395254890034554 8.545505035361296 1.8904952194054983 -2.0810403572218417 -1.3066184286155755 1.2856140584497666
Ni 0.5795783599087145 4.836166424553195 8.485750310276655 -0.16390139877407256 0.6564980250035726 -0.6566183526315208
Ni 2.8835536122867675 1.1136947072440917 8.233592846467634 2.2005321195322876 -1.8532033361360727 -1.2614618866835952
Ni 2.068818976922437 0.81035177939284 10.32454347253102 2.4028100612020293 0.6568911466769332 0.4989408232799729
Ni 5.4881378508164875 4.842596553567188 8.011412334893581 0.607873836237966 0.4849843610998809 0.2992234432485556
Ni 6.3452822338360555 3.6247828690215385 10.067914022249324 0.2819798256767595 -0.08528811984554344 -0.040884139808871525
Ni 5.567273002939203 5.399498476883837 1.1093545975333732 -1.1270798375248783 -0.008095375413624768 1.9153211885127401
Ni 7.783875807794294 2.594898117737777 3.028457979334229 1.5664314883873085 -1.7309458381550316 1.138486536699923
Ni 5.871680949330114 2.9726295437762382 1.07229813691864 -0.9697630339468589 0.6168359305272604 -0.09464822090420474
Ni 3.6059836092309796 1.3131196561689047 1.8697960247478624 1.6273869450247584 1.3093080596325968 -0.6566481774281917
Ni 8.945846504863392 5.325683869984863 6.0898351269374125 0.4247660397387717 -0.3886587524932532 0.560046432342042
P 6.8521801269986184 6.367965036892492 11.240153826347703 -1.9355148898517958 1.125447444127778 -0.8825183045955769
Ni 3.9953838549652736 5.813764313458667 6.435478663054697 -1.3685984698627978 -0.8447495704872355 -0.9894893087311926
P 1.4776472853954228 8.988238062620429 3.956393808171792 -0.38919148506827167 0.5426482914702525 -0.47322799189490117
Ni 0.7748823873961292 5.800858580685177 1.1571603784898878 -0.05637195103182549 0.9084707627952805 -0.8605343441253179
P 3.8664993312632845 5.139246508375444 4.360913497290618 -1.0612356853365594 -2.014882530447846 0.10288552121233248
P 8.310455170810156 4.709783011853819 3.98895372595128 0.1090983348912637 -0.05810975965853863 -0.7933676164708336
P 0.22480713287425283 0.7730024614170733 9.48922787684736 -2.091538428539688 -1.091418636677843 -1.4022752932899527
Ni 6.97694463875812 1.2234434580388067 10.109698037406455 1.912032233348823 0.6304270389481336 1.1561718697948282
Ni 0.2998804807287234 0.9705311134544495 2.310308974931582 0.2134614690903872 0.5536333297268465 0.5385471248176854
Ni 0.6978045127599269 6.639167324117785 3.3498079969093935 -2.155031049776695 2.1520645109492036 -1.0078984073659996
Ni 0.4766453639698509 1.3832780935295106 11.64366124763165 -2.1495936808112077 4.230399296314424 1.3944413990678308
Ni 3.2980377276400077 5.720049957927984 8.568334267098251 -1.543394146951871 -1.06545152319012 1.3389875889749003
Ni 0.6701358586066427 7.695563852029258 5.513918393536525 0.2260724729861784 -0.41958141021403866 1.3994020855072156
Ni 4.657250585849819 7.029085981950803 12.856833779651357 -1.9389593967569703 -0.5591496315593854 -1.2786126874312689
Ni 5.445564394077442 0.9495308759815899 8.46768683186832 -1.8794077624455825 1.5702503479127667 -0.9417392950404233
Ni 7.249938630956195 5.82194976764904 9.113394566686157 0.3875107549317391 1.0283412486013839 -0.7054271466041077
Ni 2.262377683677482 5.476259847291344 12.317256824876091 -1.3927557838352917 -1.5241103590215945 -0.2626590138609605
Ni 8.098288198195661 3.984224352419064 1.3523161583069658 0.3025530218424209 1.5428614143768526 -0.8543755236127738
Ni 4.769245789072336 8.026992892197502 1.7543993105617892 -0.4427344512917343 0.30372133111890914 0.6729186324534411
Ni 8.989329456512479 1.1003615118628822 4.992152987079512 1.3675345473746576 1.580086617276898 0.34130108914489604
Ni 4.906042918491687 7.565160471827499 5.3906818332258934 0.9495112256763584 0.029084061850149914 0.44302627150054025
Ni 6.226011071333205 4.1024768806226675 3.45346404130174 -0.3239708253965647 1.7824540333366525 -1.950123640903906
Ni 4.496788398871186 4.844742961554886 11.62570418012779 0.511981201403699 -0.029866962762761465 0.15588804155129282
Ni 0.8047711186248249 6.354522702122077 10.149272889427094 1.2448682439909724 -0.18151011299477127 1.0200980347559852
Ni 1.740036566942413 1.5292884063875825 0.41574194681382787 -1.3023064315037831 1.2092047291510917 -0.04238926359948829
Ni 5.078383108995463 0.7160025964149486 5.823381312637446 0.7632453431641565 1.578364749489785 1.5786997642317007
Ni 1.818662401915506 4.136837598324037 5.8415512019502565 2.130414022558963 -0.11170826171028503 0.5599587577242421
Ni 2.617699155132519 1.5175832068953479 5.972548482328273 -1.6554950161148843 0.28745473274840166 -0.44362662408870046
Ni 1.429835137974538 4.7033801676871265 3.603163265514941 0.8726401262499165 -1.3619421408885446 0.9170703315388335
Ni 8.207282068215042 8.356120910243343 3.8851248775260254 -1.1471025605037082 0.1049305766668193 -1.2546602903807293
Ni 5.490566202226297 1.9694020883057943 3.2906126111944283 -0.32681909347863713 -2.607260327932742 0.10652980283313909
Ni 2.073211837337938 2.3089529180207102 3.418468496153161 -0.361819520813222 -1.2516564705573991 1.3285591945527249
P 5.896819388643662 2.675442986971057 7.187291712057622 -0.53922821004511 0.044048396469466074 -0.5009236580379567
Ni 5.281027669901823 6.340107207797919 3.5110887293070636 0.8659146346006249 0.6204542440061378 -1.6533592007188043
P 6.316460340136838 6.873371358402587 6.826394127309119 0.2428376082596592 -0.4217210822648608 2.6126141360454875
Ni 1.6867310702648772 3.7610070166475635 1.6492134957307527 -1.3965623020655755 -1.4391937635828569 -1.3038768613146963
P 3.999576626500565 2.3824673915993695 13.089916406712078 1.2748223671509011 -2.997614208740231 -0.03295125811504002
P 2.3949547567142404 7.19558721513211 0.16864582217918647 -0.4083559738118645 0.09780142182120576 0.21383942125509622
P 2.1840701719229036 4.52489179159147 10.200468357913334 -0.6277168391058221 0.9423627875570351 0.4616955657752694
Ni 2.9120662777165705 7.257214590236527 11.004262679004773 0.7964711950968218 0.6871571446503262 -0.4112726332380272
