# total energy = -340889.9789253404 ev
CRYSTAL
PRIMVEC
9.05980374497836 0.00000000000000 0.00000000000000
0.00000000000000 9.05980374497836 0.00000000000000
0.00000000000000 0.00000000000000 13.25993855977500
PRIMCOORD
 96 1
Ni 6.220234791323016 2.286467983046493 11.322516067635485 1.3162536377124945 -0.6924237923659043 0.7162602326638696
Ni 4.536424956794612 0.6744262902694554 5.759745801914824 0.2832833749795315 -1.1999870672075656 1.5172007763859547
Ni 2.785481976136937 1.733548157369118 4.587911821767977 -0.005596263140854878 0.3471642327938924 0.6661859417152978
Ni 3.5189727512748354 4.585492854154412 4.918893633851732 0.21516276805221007 -0.11640103920026404 -0.7059151419841198
Ni 3.9974209897480812 2.6811130364056024 2.4061353074679603 -0.0683689754927016 0.32936859937336826 0.4238119033556185
Ni 5.163734831441951 4.726309384557549 2.428955141269635 0.9420023188938229 0.3071743226645161 0.6194605126343008
Ni 5.483718041717212 4.846043751527108 11.299323875897791 -0.2789564654694035 -1.6782086556623164 -0.14126103566673737
Ni 5.789794453165424 7.812522487902987 12.172464278709885 -0.3571660812016107 0.13999399602885568 0.4312483050290057
Ni 2.1658004562859334 6.159805900002876 0.3730274555211808 -0.1901881003847434 0.9944026868724101 -0.7327877980052476
Ni 3.047799535249877 1.5055491350358916 0.16805211257504113 -0.8253580533345012 1.5510470355114385 0.08480141001711203
Ni 7.896515928896841 8.735942989822805 7.1065581146388475 -2.1587527216026565 0.5216963718089339 -0.48011160638861183
Ni 9.05310860111747 2.405024575522556 0.9794282089874481 -0.67692338273746 -1.0764183066142687 1.5097052393398582
Ni 6.945363367557092 0.667503694188838 4.83479872305536 0.6708807760878059 0.9766008828042987 -0.1163565591155738
Ni 1.0339138690173306 7.526794395780866 2.523737902604292 -0.277541844510064 -0.7831580229276836 -0.6766235921088541
Ni 7.892547734834139 3.8371711802022612 3.819047948688497 -1.0297124179172976 -0.10863630765318065 -0.844308626295075
Ni 7.639371517751488 3.9150039546147517 12.657672036795418 0.9770562251741625 0.05262353973298679 -1.0033956343996397
Ni 8.099509892752769 7.19177191120404 9.012037792568508 0.516914119928942 0.5780462113535721 0.401320921341954
Ni 7.0282968115068005 0.7471656429877662 0.16447620801671148 -0.15868488757013963 -0.4042725477711102 -0.41512825953869154
Ni 1.7314825221036023 6.928367175635566 9.098386782549355 0.5154686457316672 -1.331278393256101 -1.8009438646107243
Ni 0.52063793279103 4.63823903185544 1.3251032108677545 -0.888472979517115 1.2784404235194629 0.4459822688050706
Ni 6.323362537934281 1.997070670386942 7.055812341616005 1.053543458898624 1.0511924421679444 -1.1123304471298456
Ni 3.880404563917359 4.12914147713991 0.2376196279843293 -0.5896817387099714 0.09279985484155631 0.218181757384192
Ni 6.197123231839106 5.823515042894593 4.54715085850884 -0.25779525801075603 -0.8880716303136382 1.1674597840038219
Ni 5.247085026366281 2.821241021720234 9.294275142287981 0.05385355548534596 1.5938039668629906 -0.2061075998284773
P 0.4330867068464381 5.588458433404187 12.346699707375778 0.32684146207614034 -1.4541555270990116 -0.8765217206925098
P 4.166857440343169 5.922937329753245 12.44290123398491 -0.8479058567280301 2.7676372584933238 1.0720595154249408
P 2.3508288292141497 8.714824587174041 1.1784449189768778 0.6458487728198425 -0.8355203385794837 0.04216557762445641
P 6.375592306818929 7.921276372671644 5.712752599624335 -0.6204280187538928 -0.5596733652733393 -0.12593597527389278
P 4.983634991778825 0.9337214988360086 12.42104898722866 -0.5957942793656126 0.06575030692293192 0.6875150422103772
P 3.9202767604240956 6.453642516522527 7.958336406080066 -0.5933982683296103 0.6454620789043851 0.8952527214431099
P 4.9089278496759965 1.2690882559570866 3.7740170999002483 -0.39917919240860283 -2.6533553225185917 -2.1934618429490675
P 0.3918129586924414 5.60558146257886 3.3986286595097974 0.05003649573210092 0.1604916017615752 0.41126671970075623
Ni 0.5972168303581377 9.303784312352391 4.6367486941309775 -0.24815979180352102 -0.14859073655893118 -0.5883229106892319
Ni 2.059402120504267 6.590019743065564 4.545440367552133 -0.46617571303381006 0.22026280828293682 0.5088994771545816
Ni 5.738597501913534 5.637254536650104 9.063857152341193 1.66412363832416 1.149079224614105 0.3294835276846777
Ni 8.620457670833625 2.3159395247952808 10.094857388457688 0.6391914154043249 0.2725629032382338 0.19208814562093368
Ni 2.334412464735575 5.535848152760102 6.842406851237573 0.09847556507009492 0.8829019131872408 -0.6410742342493346
Ni 0.584397207986624 0.262506003031899 8.965242999981154 0.5636809437708357 -0.66324305703689 0.6133646841492081
Ni 1.6002875033319477 1.1527784948224618 11.334131642082493 -0.7503142369247852 0.9790675991772365 -0.27619792888765976
Ni 4.1745582735698745 6.9340929716347155 1.3381004053936725 0.9107060798837026 0.956974623932939 -0.0933708968536779
Ni 5.405830908481944 8.100524590777935 7.731419124320095 0.5386468836203434 0.21809511120765665 0.8493096790540922
Ni 5.347757566148797 2.9350321573995366 4.750147540305907 0.9054756847226987 2.421551860585907 1.2303602801827842
Ni 0.7798760645936677 8.055134973759358 6.681511077681089 2.0227372506055743 -1.9555152442331225 0.18510348677298444
Ni 5.074948754239947 4.947676630512014 6.882796362541068 -0.07697754309731904 -0.9386184900232546 -0.8529534464542665
Ni 0.8343843741330405 7.348198483547897 11.111696245260466 -0.6678322190694692 0.669667215395679 1.335031689650946
Ni 4.811281284361385 0.3116943957821886 10.372971621469548 -0.6099466596065947 -0.005781639678783591 -0.6564905688044049
Ni 8.124170678685816 7.255226776992085 4.607735578454273 1.2884237599844197 0.714867208971085 -0.3188525303333928
Ni 7.057333482673374 6.248129927211277 6.946868200967629 0.283622246376189 1.209527145487517 -0.9108832288915152
Ni 2.8615571486129805 5.163263721644552 2.4560194931497925 -1.143551095707024 -0.22340135391191845 0.5833730228831243
Ni 2.424204180158948 5.459011956765185 11.261162170347761 -0.6651549293476222 -1.0442602338244855 -0.4777248513239902
Ni 1.3155831690387887 3.5521135135610526 3.7147850086615763 -0.4021506163321009 0.35277103745770855 -1.061638834312249
Ni 1.8851096150744566 1.4397840192798363 2.4738274434914516 -1.3627728643199561 -1.1712886708316086 -0.38827437257064096
Ni 1.1435827939693972 4.002286104386599 7.974951180261774 -0.14906870463661423 -1.7008981268400318 1.0281867253013905
Ni 3.8041663149729854 2.9784920362095377 6.906306553392008 -0.6446858628599929 -0.5759397065335307 0.30970608794743437
Ni 4.155478326775239 7.108457955494894 5.839000965523306 0.0066527294298272515 0.5513959557558955 -0.5445115699312364
Ni 0.5590007659853324 8.903087310057472 -0.06498325468845005 0.35453378578508615 -0.25843006338127755 0.6522647036485153
P 0.18558736282243685 6.019822871548983 7.598010795481048 0.8847351097412376 0.5305383955805959 0.7341731083885485
P 8.521742048671072 1.6528706045646446 7.746045271568557 -0.06779973325279291 0.5289877632640245 1.1551588551492815
P 2.0609060479344237 3.4149662036953456 10.26580501432597 -1.6648558885044942 0.6900455219417148 -1.2184313899556822
P 4.381919062855533 6.494275736548138 3.6891140546052625 -1.3740790333613948 -0.9845083105768335 -1.3756263232438566
P 7.0648984188431365 3.8588331710787904 10.097734782143336 0.39552076972040917 1.3050819373663909 -0.083707662732301
P 6.281660261060728 7.73589466739538 9.965718945147755 -0.0680846114830634 -0.40408434301970403 0.6739015651920007
P 2.4670389325070166 8.795456840959535 5.585470510112226 0.8424795435061362 -0.1496826840715293 -0.016681317310422886
P 6.930450930508674 4.041007705811228 1.3824807602693596 1.1612104606600002 0.29295869328576646 1.4204118549896634
Ni 5.626092858373282 2.6049653854991903 0.500453595913648 -0.2983459257396088 0.6852537569800263 -0.267418640033133
Ni 1.626633412771073 1.6258452098408103 7.059471596369259 -0.15350848557552274 -0.6218279844252129 -0.53026251621139
Ni 6.915592852283033 0.6703457546396817 9.068803805213875 -0.20121453340223408 0.23963992725796796 0.4631898909326087
Ni 2.9533239012639085 1.7548839953089874 9.216757649047596 -0.8051463542733166 -0.6348917595877066 -0.26339640624761734
Ni 6.657107590175853 1.5276369366908389 2.506857676171356 0.360517771282663 1.714669726702828 0.39456303379283014
Ni 3.9642168088352907 6.988723588525335 10.319308591624353 1.1935554526496088 -0.06641082332506627 -0.13422983985156883
Ni 8.351281840247022 6.850380384558541 0.22621877088728837 -0.14254067371010934 0.9287176859697748 1.0004488930664899
Ni 7.737335176198964 4.3894658794177035 8.074454099374211 -0.16030493967206585 -1.7141699042482734 0.16287372884050658
Ni 3.2317769709377426 8.554384521748503 12.32861362105758 0.41248413704762515 -1.8990790156222648 0.40658036996868047
Ni 0.04785207169036143 5.160165268746279 9.936865282017862 1.3373438827238904 -1.357171716083095 0.28363073101662123
Ni 8.646350590082944 2.441671481877873 5.754030877680229 -0.047876511966304644 0.38654427725341167 -0.3812884281711111
Ni 3.689514497933051 2.8085754160132543 11.405616211975042 1.2802831331551563 -0.04623100594308167 0.4842878492534885
Ni 1.2569752982816704 3.4597216344481923 12.341859960187891 -0.19625693228664265 0.08163072559861426 0.23472089268979576
Ni 2.958995338440281 8.621354591409442 7.865901945889363 0.7806008037234685 0.36242141606327904 -0.13319342816725446
Ni 6.03646573112246 8.083356262584282 3.207021963045217 -0.8132021346982576 0.11485374931780219 0.39688705394031654
Ni 3.1860793205900992 8.302041806615094 3.198681507670506 1.0195647879603342 1.0691438844400425 0.8506157994600253
Ni 3.6399392515606674 4.664476223649011 9.127504991950094 -1.5440340945287152 -0.9480806638774187 0.1727547353996444
Ni 7.474401550427888 6.120730966230198 11.19714287878322 -0.31514165714070885 0.5217161693032757 0.6167716529482281
Ni 8.34542014719093 9.024262185830615 2.277592999247811 0.43899658151585685 -0.3639859323369215 -0.050790086068673815
Ni 4.786484601371397 0.5196060211386516 1.3887003155753976 0.14305309457015364 -1.8698666557243668 0.6221969377288574
Ni 6.1505920795422195 5.787058392418996 0.2742728762023034 -0.32903589862429783 0.024903705220215178 0.0725444470266299
Ni 8.022066689903511 -0.2593830886633755 11.126639485641793 -0.21692114550421354 0.4505089530308306 0.18851996865370113
Ni -0.0709781268603445 5.123926053561787 5.665387945378205 0.5465833648586006 -0.5420664508248535 -0.4900628040640528
Ni 7.449278714501239 5.994455420919839 2.5251430781730706 0.3766910386084158 0.19959628107252075 -1.054351042401584
P 8.807905011375407 1.802293948574098 3.413917078415755 -0.5362583287835088 0.31136522081741214 -0.10487066996316133
P 2.1697777101524314 3.219618714243346 1.2929635569010087 -0.4173018701512426 0.6271869347442811 0.054904879567995765
P 4.763436460514061 1.1370506754323928 8.201430873498392 -0.6708080138683415 -0.9588394450558195 -1.4066844781012418
P 8.621318352194258 1.5699462204187327 12.368910722362354 0.7648826216572633 0.9949583022655637 -2.601683605175913
P 6.725481929425191 7.986688156079651 1.1836561181204075 -0.970953197600218 -1.6431457505209122 0.060810189308837206
P 1.7321167083693307 3.4307302623005995 5.784117580106774 1.1043124619213756 0.2658734070332002 1.429348752467977
P 6.930224435413771 4.057487488916375 6.030076757485435 -0.17098041710804102 -0.137751222741266 -1.0394149899170422
P 2.524903899352853 8.62743371975664 10.292271419155583 -0.7148849495828977 0.43030419594818153 -1.6127668811187383
