# total energy = -381173.6406100478 ev
CRYSTAL
PRIMVEC
9.16675998117818 0.00000000000000 0.00000000000000

0.00000000000000 9.16675998117818 0.00000000000000

0.00000000000000 0.00000000000000 13.41647982275356

PRIMCOORD
 96 1
Ni 5.483225849648003 8.533611919495014 5.623906282554995 -0.31511337500593467 -0.5350987612577688 1.0467976555343583
Ni 3.3708193336346937 7.028063251326772 6.417678950896193 0.3441118191208138 -0.28216340244247534 -0.03212284867647371
Ni 1.9829443640372981 3.0405226360492206 11.508844307194085 1.458494777904314 1.482122444625583 1.3658813280419506
Ni 3.918084074491441 1.542839047991113 5.3777008581517025 1.153746033962155 0.7564414328684457 -0.9462906618565317
Ni 5.6050245902346525 5.247539282385012 2.5955250201722917 -2.860354580923403 0.656258912409573 1.7679386133292971
Ni 4.967137259670701 3.076832172548334 1.446832820115282 0.7184071038035433 -0.7083237514256123 0.8894749384190681
Ni 0.4583343350520263 4.652277385984371 3.832766288816561 0.21282692083018184 -0.6755393579057398 0.2726662615853175
Ni 2.089416281845226 9.074285759886509 0.8768904316076495 1.0382142847407216 0.6754393419927658 1.0634085246181624
Ni 4.041083660642692 0.5222156523847762 7.524257221999851 0.5430966918615808 -0.8914785991126584 0.693006918562884
Ni 1.6936047502887448 7.856940027222466 10.450739863156148 0.16662162591871305 0.01386415957660193 -0.23547576857794927
Ni 7.616175074900018 7.461559333387635 6.583694475188252 1.0263296174879937 -0.5554991792909917 1.1797059483610264
Ni 4.594059293001319 8.582232414721295 13.433250658323105 0.5619757881542708 2.15318448348626 -0.0026682908607825015
Ni 8.161258126868407 4.773874457850249 10.226335744144384 -0.7023474792375194 0.6858512813547092 -0.7667878090997763
Ni 6.086921165280954 7.31207697749492 1.4027599545424247 0.17690012502658567 -2.1958306002915604 -1.1158849972503233
Ni 3.105579132018473 2.7911317625337237 7.438673600283952 1.9327725512199685 1.1045299772488204 -0.21428139388852127
Ni 4.401144828062202 7.774026682704798 10.95505191651633 -1.1124757144584583 -0.015916414119940332 -0.03987138227364101
Ni 2.637726033345977 5.399322495046541 2.277460447177684 1.198539793238078 -1.4279055922635473 1.4186449928972278
Ni 5.517702034140092 6.069733490215103 9.587363069192273 -0.17461518564715087 -0.6787473233200763 -1.171629342000479
Ni 3.7335938620245996 7.384705217253182 1.6810985395728295 -0.8222094804031904 -0.3852355857443172 1.250290186337492
Ni 8.13374868000301 0.8291655288368001 4.034160923464169 -0.7101952574167124 -0.1185679649445958 -0.9293936289908767
Ni 2.936974914692496 0.28631824964097735 11.940801290245053 -0.030633408615140786 1.1503925441088898 -0.6239995381552351
Ni 9.204618754065857 9.041991264282778 8.95117983931885 -2.379413793765276 -0.41103763440908564 1.2806996518672846
Ni 5.449070501757143 3.6366187076130565 5.5260602859401144 -0.4413506835703302 0.9445549101123475 2.607517952469503
Ni 6.802533454182695 3.731485507216522 3.7203231435217554 0.9896116932416698 -1.3883478845755832 -0.4595188698389247
P 3.6468488118122515 4.357666885215624 9.390865317755427 -0.41538485563418787 -0.3421652369174043 0.8181232261489588
Ni 4.48862321907736 5.065175758246318 0.5544404806122398 -1.1211125641978499 0.671040955814754 -1.0893720385614594
P 7.083980487541009 7.34390396833686 4.606736005453889 -0.20921966309489773 -0.07113368272203234 -1.3418916499955729
Ni 1.6126439256585579 5.370538868536263 10.076018296412467 -1.5108316396348174 -0.4125954658145088 -0.034550227171043724
P 9.25723595666745 2.920135576507979 2.524592631020527 -0.17075595980206074 -0.10849335431741314 0.6608997536156941
P 5.048290586261626 6.591459637614003 12.638002141616253 0.7035432993178335 -0.4546000923810687 0.23122444950076307
P 5.870603961972173 1.6196656638454605 3.2146956600965337 0.3866273238855212 0.013779313172279496 0.36940170403585415
Ni 6.715944238890944 3.0461876937509254 12.38626824423578 -0.30980661808104065 -0.6361631701009625 1.5811600528467349
Ni 2.9303931809872794 7.000792140222288 12.772676513348234 -0.8266487471214667 1.0763362884234238 1.3875253886742878
Ni 8.222125413501608 1.1609793252080856 13.145990065750519 -0.8881801308670445 -0.8587919075129145 -1.7220739895866986
Ni 2.296245888517657 3.071057113726208 2.3742073492643523 -0.5677813390924544 0.19143817074176064 -1.566976048036869
Ni 1.7657288182450752 8.137177048256143 7.515254546969359 -0.13305998791318374 0.9628125707709548 -0.3274047907787781
Ni 2.090076288567755 4.383764651035613 0.003650203845985105 1.5574177149244728 0.46610372214529405 0.18333379646707137
Ni 9.44625454859164 6.715843404530557 8.526951351653494 -0.23976488287160638 0.5758368624070793 0.6897629577042894
Ni 0.5706913128025021 3.2793717355243284 9.63363595717356 0.6490096870463274 -1.0161580762716305 -1.521318140988438
Ni 0.9084405862965282 6.0955745867541085 12.208125096417255 0.0382785838652244 -0.9518072207993866 0.5504580173226584
Ni 6.869129965837848 0.1563803428191434 1.6426329811134557 -0.3711518539577415 1.5690745824371106 0.08516573533506623
Ni 8.430724204860818 2.670946371713255 5.415226823707477 0.12738170658148384 1.1786579667124861 -1.0817039804932402
Ni 3.207761006129965 6.71533006596859 8.99976091747698 1.0770132598857902 1.4601230575363564 -0.2978846698324741
Ni 1.2659478943702538 6.8163110945154815 1.3078381543787487 0.4614531107471601 0.7511009944921386 -0.6782025065601998
Ni 1.644910920982183 1.2713929498311156 8.325650217958245 0.3868276128217854 0.23332375523195303 -0.15685451922962018
Ni 7.000782973462252 5.0201211326737 0.9081775002835203 -0.5243695477657228 -1.2879797304684657 -4.018108964714003
Ni 3.3796010897483395 2.145526020020201 10.019105550058418 0.4027792510550354 -0.6561324141340378 -1.547519224863838
Ni 6.63984179707937 8.099116660590322 12.152660698148754 0.052184909533671414 -0.10301613325292582 0.6303306225795854
Ni 5.513201154962848 0.8402719752953524 11.208543081795534 -0.2329370613164956 0.6440502861585231 -1.0063102369432735
Ni 2.2088499983428154 5.071088318468972 7.777962889463879 -2.4965985052091004 -0.24051615921533417 -0.6690702052416284
Ni 3.375989386294502 5.2231923677317305 11.434999638379164 1.4011494072156259 -0.253720316610434 -0.030303536079547812
Ni 6.37730578967351 1.6114797471340976 5.591693371115576 -0.05207460920805225 -0.9326920972364905 -0.594013533316106
Ni 1.863052309537953 2.5281740841662486 4.569385125014785 -0.8450311062833963 -0.3531662160135982 0.6422664547852229
Ni 5.814833393918498 3.5590404174358294 9.632535945969344 -0.2852106739092314 -0.7553811099247313 -0.9526909089559206
Ni 2.7527047044664976 4.76442352825404 5.355550299202837 0.329252128400162 0.3628780439847234 -0.3393089984155318
Ni 0.3472753705225237 8.482809735380373 5.147554680653939 0.20010150284371345 -1.0376206170207807 0.4136100231219522
P 8.163778985878064 0.21585978198302827 11.064597448964033 -0.11805708674644828 -1.3254972677979493 0.25045501559560096
Ni 3.303388646816345 2.200929917672471 0.1568964314091207 -0.24684595808810392 -0.5941181772147703 -0.2485205175770494
P 5.597562847566064 2.331987085894593 7.698067242349773 0.004931375863346346 -0.13472606276169702 -0.7235179426675474
Ni 1.5395298476184345 0.16289974255612133 3.368958481347564 -0.42806142266059183 0.48866386683399715 -0.8572078508552463
P 8.06744550466898 5.286672180974942 12.32486103543651 0.5542768768481164 0.0645899680662436 1.1072160087214158
P 4.170114974897053 6.332672835062508 3.943989338350692 -2.0763354955470046 0.34377577593763375 -0.9703075935964193
P 2.071046094734844 0.7897933778099525 6.03394095898197 -1.1881008572929408 -0.6261731487677861 0.38878062278309816
Ni 7.270505720735647 2.682890660039017 1.4927042040070302 0.9453192990821976 -0.5834403857859499 0.10849515408962607
Ni 4.099173418985253 3.45706021204511 3.73263868562894 0.21549418324969985 0.5276533607233171 -0.24663101386382041
Ni 6.144140081420178 5.051242282992934 11.452360565209679 -0.7658452426808487 1.026154268252394 1.6892906245080905
Ni 0.9091354267071904 1.2576244762583642 10.807632081631516 -0.42859441234592643 -1.4532720960527938 -0.2544214564425167
Ni 4.39491143123832 5.08585596888555 7.5159658875480835 0.7703737266788216 -0.48722636305652217 0.12215259697206059
Ni 0.175281285335559 4.669868398491769 1.1481018607107478 -0.45303043390110365 -0.2935492756819138 0.15739959309981277
Ni 7.631016059396878 5.334641836238729 5.29936172689156 0.37179334419648224 -0.5619894150010256 0.034333483174547326
Ni 0.9732440796888113 3.304992829822491 6.747281724747008 -0.5421615816418212 0.2886420681882835 0.30897126666393887
Ni 5.209671396679927 8.350368386392947 3.328306650619814 1.0027073500833634 0.17759432288013283 -0.389074242764117
Ni 6.658670322191508 4.70069621248988 7.654061294125173 0.9779908211732898 1.1486459937314282 -0.5242569334472584
Ni 8.870334515865107 0.7187014870335767 6.765246741063837 0.7877055330890499 0.6796742060097197 0.012346437380494867
Ni -0.07218823527657636 0.8367895231580099 1.775577585226809 0.5717359528648284 -0.23436556623290603 0.6013080100949902
Ni 7.601095754642244 2.089544616485718 10.470100060350322 -0.004710260991475759 0.5222337323696425 -1.6061905134528014
Ni 8.562789716686803 7.281267497016879 10.973593522039367 -0.7339026283359812 -0.6058087261788212 -1.1627384672687522
Ni 8.343493316366608 7.203010866597053 0.3138808637145786 -0.7477855569656605 -0.08442397207303524 -0.18203204693651232
Ni 1.0604658014229857 2.3086026810449995 0.4726253139467797 -0.5614404844760912 0.014524161758104018 -0.4011656267110123
Ni 7.780626749930085 5.89694923031311 2.6590525005676855 1.6217449162476325 2.236539133754516 2.643922459240466
Ni 6.1700361785193945 8.293992812176956 9.697659359286853 2.5697070522693166 1.2203286069783952 -0.3893431801547875
Ni 3.713601158388001 1.2398409617902297 2.837008646481493 0.3554727526595878 -0.7871712578521346 -0.38671062762794683
Ni 0.8118880195226043 8.53722362294885 12.563768802175842 -1.0490915937748577 0.16676483636479666 -0.36973260501271166
Ni 4.588971741181828 3.209539357576778 11.664811229135646 -1.228767995995 -0.2745094854416434 0.971608828906346
Ni 6.7576529970507435 0.18375687166403173 7.442846309451939 -1.1742279559655906 1.4934787501786666 2.146719701697522
Ni 8.945144444511728 3.1717448059519753 12.093869682663508 0.7872126526130313 1.7373489134678983 0.1268767419206073
Ni 7.872120181840626 2.7690765378892235 7.776540208306428 0.5223869701180552 -0.9885868515215813 0.7014360231668436
Ni 5.305729875087959 5.96862412702772 5.65119572717955 1.744538489237802 0.4604694066776522 -0.4500646664045604
P 5.326685088528245 7.550586906848728 7.932050625598238 -0.4560391388204404 -0.267238662811843 -2.1385029702146845
Ni 1.5618325747838833 6.85185978993168 3.939749711834449 0.357682615826713 -0.17699165629912744 -0.833639576617003
P 5.310936594787908 1.4723191630409287 -0.26609271029948683 0.3591118920740719 0.8442281507661268 1.2627777772815414
Ni 0.696110923603025 6.262886290915133 6.038609589867857 -0.05920376405366579 -0.7772498849733647 0.6806116302223246
P 8.922942551706663 7.907118871654717 2.3583351042635408 0.12459771607844347 0.15980588854846026 0.9979112142463007
P 3.2387171547685676 -0.0028206120628066723 9.545624060724357 -0.4704673984306284 -0.19012639390887257 0.29639497266082504
P 8.997844147953638 4.796855525258297 8.040429229493473 -0.6580332307011764 -1.7090025011147212 -0.7319753294062814
Ni 3.238854656169094 8.516305076548706 4.568311697414672 0.19988013086152673 -0.48301849562276167 0.6912125456666225
