# total energy = -340864.6949182157 ev
CRYSTAL
PRIMVEC
9.32085899709250 0.00000000000000 0.00000000000000

0.00000000000000 9.32085899709250 0.00000000000000

0.00000000000000 0.00000000000000 13.64201930911270

PRIMCOORD
 96 1
Ni 6.39918919987929 1.2285451524361692 8.789553338740522 -0.24549664314906106 -1.3123514744446108 -1.4092810351838247
Ni 8.006813691264968 2.8278740792370165 8.741478211756657 0.1890817546944421 -0.25223267632131396 -0.9539587199247506
Ni 1.9090797158829742 1.086476618276631 7.079267041230975 0.6424816561198226 0.31014626080864655 -0.7847778179192936
Ni 4.669358925042247 5.910943959337044 2.9843554577982667 -1.9148457915382182 -0.21134288008548766 2.3701210556094403
Ni 7.031255296088883 0.7999226511970527 11.203140398009735 1.2877719853330338 2.4549612892842885 -1.810391126066553
Ni 7.52800116011581 7.483121223625967 7.8616096201095464 -1.8849775432238762 -0.021881373454123606 0.4488397928585238
Ni 6.059313394237419 3.755821526211625 3.7899032474525614 -1.0666432295053758 -1.7146635560552403 0.43412151281174266
Ni 6.481315289269114 4.088333853177073 6.558959909611312 -0.9274375337057705 -3.258024535776331 0.5816681243768757
Ni 8.54147681004593 2.095124063201199 12.805053999034598 -0.4814058997200032 -0.6928842769420905 0.46126670576796686
Ni 3.1213413274992563 8.415244415470244 8.787561471154254 -0.38822475027962816 1.141665448648537 -0.3527162729603732
Ni 9.272530429728446 2.334474403621274 10.5807363043267 0.46283045071066103 -0.12531351119854547 1.0032254273703627
Ni 1.493117737537763 4.951426762644658 4.429413913812608 0.5407708719418816 0.9521885153982054 0.1367873161660999
Ni 0.3004345904275892 7.685523678636752 9.851666163457276 0.8279016456919613 -0.17372429840176534 -0.5444043549294107
Ni 8.148723770820077 1.9074485655432603 5.721367006425953 0.1279090398398636 1.6206624818167317 3.216841119559486
Ni 2.181183555124504 4.481711389961561 0.30387212325779767 0.6060756066869626 -0.683939409043977 -0.19405709642184643
Ni 1.865486057946735 3.054016762334951 2.2277552275381067 -1.3239417503853714 0.12972166756857015 -0.5204879533231294
Ni 6.8682614332855865 6.434468651512531 12.78913397171899 -1.308023279382902 0.06154166815822304 -0.027089142907308187
Ni 2.3772664676762822 1.3468454959313048 3.719851398920255 0.14206553384590373 -1.6868547613730884 -0.7242535352819913
Ni 0.00794416819736087 6.03317770536566 6.538224726492869 0.879773137750272 0.49127816452839257 -0.5598302025661778
Ni 4.71985933955979 2.0098661651591248 10.160917354492495 -0.6327181489751555 0.900021860696979 1.5209653856347096
Ni 6.628733996542914 9.431777307179944 5.592627300756647 0.7181222255732729 -1.5816884145463792 -1.2771325033413166
Ni 1.6452155160717705 1.9261089254295871 13.65593471893022 -1.1922002241732952 0.42565127055720237 -0.4197711576273416
Ni 4.527663225246072 4.1118783432234585 1.271132157591328 0.052757494207689784 -0.3808590539431763 0.44425165926720916
Ni 4.793391596874091 0.09067797759946641 7.080930814577484 -1.6648402047752102 -0.04024239245981456 -0.24332071854366483
P 1.873604526208968 3.5696653285843913 10.71527451643221 -1.0310097965724825 3.1906595760681116 -1.3599459363941224
P 8.60111166646587 8.106630771196375 5.445403399437706 0.45831070846343647 0.7298089178825817 0.0953079659753907
P 5.958191394034242 1.8725792317097192 6.50152757219294 1.3448502184032645 1.4952157874744314 1.7042426178322325
P 5.385890646271767 5.210071281368777 5.18621827088671 -0.14901831101465304 0.8162231809127686 -0.24883367794209402
P 0.35429517464494203 6.019681101411914 13.436584145846854 1.0338110134667033 -1.2694600743977233 0.6335645561358507
P 1.535620854961165 6.319374683542319 8.486127684632851 -0.1772485095049399 0.7420499400334639 -0.4368929049092927
P 3.3482576419011694 9.264635662084231 5.118063217178012 -0.850099264834923 -1.552917513061274 0.6708962027067735
P 3.3319461385040308 1.3104382203488907 8.753183346594444 -0.08136513064205342 -0.9623526004154006 -0.2504763557518396
Ni 8.192289466179066 1.1537545791455162 3.7749376761071636 -0.46455848914536124 -1.9825092563234632 -1.2569953662718096
Ni 5.8077527284172 1.8162719219827956 12.930942453910085 -0.2531001665279318 1.7643619517216325 -0.7651253337956888
Ni -0.07745913524642502 8.765018973459407 7.460069807025131 1.509195389582975 1.2802450808283694 -0.0023772419829249385
Ni 4.047918608188506 7.9462001446412005 0.6768518920226853 -0.35882084319621427 -1.990866884259539 -1.04734015830139
Ni 2.7717438658326907 5.392284755603445 6.864268377253967 0.3522465324128063 -0.295931145650529 -0.2734836152802903
Ni 5.38889196289684 5.668443168546549 7.701042909011743 -0.3150131019826446 0.4804026552664694 -1.0006885198811215
Ni 7.456817759290695 4.9812162282773755 2.6074944833107687 -0.07145044263150276 0.61603168945841 -1.3224340554915937
Ni 8.682743750324239 7.030891782584604 1.3870519536763897 -2.0990985002751334 2.536219204924516 -0.36470147034670736
Ni 0.8045616427631992 3.3936968299360566 8.533069395152092 4.007163521446093 -0.6327903969739875 0.7038037520680718
Ni 5.4943761251513665 6.1761037585609335 10.567163269328464 1.03082467714487 1.142855098081264 -0.07896886249573498
Ni 3.6152350086464557 3.293609445091212 3.640563511121533 0.09002486319958045 3.080538199228972 0.45881053091799046
Ni 8.737662252047635 6.625583546172495 3.8571308756823925 0.12772803417730905 0.5050765038640657 0.9150605001976564
Ni 8.755987061006934 7.525633661908454 12.373584907431205 -1.0442841450838856 1.1556753897743839 -2.3754748637221863
Ni 9.093113213219002 3.7746962658568863 0.7395132313872258 -1.104609167226188 -1.2179593354152702 0.9682291138008359
Ni 6.249738545325161 7.641091143382945 2.832833708355655 1.0673947629594196 0.3517490239510974 0.26094331672143445
Ni 7.340959480875588 8.048906690888671 10.184708847304611 -0.8200744363380585 0.6806458258943696 -0.05433178067334515
Ni 6.8660710314008275 6.9892927884923575 5.667577260737639 -1.0069848944127948 -1.6804917952695382 -0.4708466361469181
Ni 6.086744682521865 3.7865523986118355 9.084112059601507 -2.1947468803090784 0.83760061814728 1.1978435385020014
Ni 4.587409931975021 5.559789914203437 13.077581005278546 -0.5182981447606623 1.5501834019595624 -0.5065356049080953
Ni 1.2117676060848264 8.296319574416476 -0.2897034853640886 1.9569128959115973 1.1663675793809074 1.3207594960026479
Ni 6.647673982201763 4.132365591490265 13.468329127715414 0.31562399609376607 -0.5515247680242759 -0.0016154241162359276
Ni 0.1944405771811635 1.4311619872058872 1.964014063066813 0.687176685034352 -1.0128228412508105 -1.2294182279844892
Ni 2.0228780844404994 5.650975878622985 11.857724757680556 1.1504642778870895 1.8417300453891507 -0.854168292697974
Ni 4.0790036732339106 0.4287063889708731 12.52666137616904 -0.618392990601735 -0.9849189157516909 0.24078689637821754
P 8.929364360829895 3.6995048956256174 6.954660204479552 -0.5091067080693812 0.22363481007896327 -2.646056731974649
P 1.6861713708872155 8.543499436467176 1.956074555298994 -0.1949001611484321 3.3038454507651878 1.1269183722463494
P 4.166368085428987 7.588437610416981 12.097974561002244 -0.06894798792462319 -0.600637723500843 -0.2601796990825326
P 8.697731691731438 3.1083666916542176 3.1847707056523253 0.3783416868379613 1.561491113662898 -0.288029117194633
P 0.8358433779352781 0.4167132395873881 11.81806823062143 -0.800996336660685 1.3821877785114582 0.2058967693692519
P 5.259108321010119 7.697202715069103 8.33030808706657 0.6094190692378988 0.7989304552705918 1.2341955947684744
P 7.556206079704234 -0.1737883497085688 1.8159578090316622 0.7120595643189608 0.1261565759251311 0.621140214329569
P 4.679080581066942 2.208419105368184 2.234030961959417 0.6776108957227879 -1.9937778872587468 -0.919816783935719
Ni 2.5080287997668322 1.864814956092681 11.5556086842742 1.1226613967422086 -1.1861784434592475 -0.37076824536607755
Ni 5.969180686894371 0.8213261399118243 3.2216309749862257 0.12971781091382822 -0.5732716727830643 0.5389870405685815
Ni 4.011511332606092 4.508760523023559 10.910382467123794 -0.8231908704798533 -1.6540253735478931 -0.8863047682212025
Ni 7.065779758136313 1.8982022733318535 1.2235435794516523 1.686947835307527 1.9283955051981951 0.8321974448538377
Ni 7.750285007552935 5.2298501443451935 8.002817838975623 0.3354150626777643 0.068423739990037 2.2589696948438904
Ni 3.5344231603874876 3.2834683504077335 7.977825819513481 0.38403668034020955 0.5332375396793139 -0.42560087693524123
Ni 8.024355548061205 4.446338729737479 5.0484615661394665 2.0819297018053304 0.19190148353142433 -1.6911500463143325
Ni 2.3067728104233898 8.281098611532173 11.173264248387536 0.8260396527825581 -0.25671282357985464 -0.8029362339958753
Ni 3.959575505789601 8.571480655437583 2.936990580276609 0.9454062023690494 0.431422882933657 1.2418641670573258
Ni 0.4087737318195693 5.31250752270281 2.2158189353950344 1.4262752557489757 -1.8263489349473898 1.3556807333598653
Ni 1.0242319213131488 2.7740740806037105 5.052485381006064 -0.6157635233986879 -0.5005999561499507 0.07670706304475176
Ni 5.112808116826408 9.036433069128716 10.36771645873324 -1.146573941693748 -2.066750680072047 -0.498656973490967
Ni 1.3634552668191342 0.6765526924460863 9.404985429828665 -0.32435263421601557 -0.2285564157502967 0.6300665702849213
Ni 1.9717438515052401 7.568854485481331 6.646296359229137 0.2708983710516173 1.2765329220841048 -0.6157082446807203
Ni 0.25229794577376957 5.197050041228318 9.882715809238162 0.6699076135412593 -0.22744209964019538 0.29076965605424765
Ni 3.0851670733939445 0.7416691460933734 1.2655909068658426 0.32959897021661944 0.7749006680148978 0.39402438768054077
Ni 0.8862021153947421 0.12993836814751725 5.023114421946221 -0.2610330482217634 -0.04448265579340726 0.6370412018305416
Ni 0.3281557574295497 4.233357099666265 12.285634213199739 -1.14429851539601 -1.5926626541696958 -1.4894421182154478
Ni 5.519244177187691 0.2815654432977789 0.9881229132214251 -0.11217954491974874 -1.1667763847835517 -0.43536181297674703
Ni 4.358191365379341 7.065854325008985 5.309487564359568 -0.5670040946067978 1.0459612756759922 0.18376959845290933
Ni 1.9284018567642707 6.714085103175829 1.2350716179668415 1.3661937170760472 -1.6007366894270818 -0.5328701290375661
Ni 4.655871641947584 1.683906402129784 4.892341836910679 -0.6795734187657974 -0.32628533246235425 0.8249081102812761
Ni 3.669370558206789 6.2651738879683965 8.99397842017255 -0.9789156469804045 -1.5181217455383273 1.299992952879258
Ni 2.147497970394641 7.5302568080141565 3.8367088734291745 -1.047406492762951 -1.0158084062416959 0.6231359046033591
P 8.512554184308032 0.6495035593840879 9.248116303529518 -0.9810416921844719 -0.92789647562006 -0.1264486532442532
P 7.748952124703912 6.016903485404858 10.44742658144847 -0.43307687359731223 -0.06619047978414407 0.6216955726124067
P 3.0180568879885725 3.60212988077424 5.689512970506111 -0.8314076019626907 -0.7343278887988578 1.0780740970501368
P 6.8374559940127035 8.750739417342597 12.645919903978019 -0.7237516559449084 -1.193093425411526 1.4174214049027718
P 2.628314486246877 5.08733420894962 2.45744636168935 0.6025840485939363 -0.18470882243772704 0.7080560995865225
P 4.090384442175571 3.376164293998903 12.774850687258548 -0.26072734405588643 -0.5342960628508153 0.6933586454753478
P 6.481361893564534 3.0305095557249024 11.21795497143797 0.9455013331860168 0.6000389135745795 0.0705541560694785
P 5.829293233760509 6.090519630450918 1.349543884636146 1.5833627169250086 -0.40830300908674194 -3.042306409441283
