# total energy = -381169.5992340927 ev
CRYSTAL
PRIMVEC
9.23402135953768 0.00000000000000 0.00000000000000

0.00000000000000 9.23402135953768 0.00000000000000

0.00000000000000 0.00000000000000 13.51492364886502

PRIMCOORD
 96 1
Ni 9.067254683046936 5.8117636066808345 4.974491828111295 0.4107779529897958 -0.6480732912749871 0.03588540104269949
Ni 5.0935045091126305 2.1420251095597296 9.823727853552715 2.4685326002108194 -2.2947890185353446 -0.40144176319053443
Ni 1.5152012889652002 1.9260413559327585 6.199092932515018 -0.2760146092322601 1.4612651415605995 -0.12918096457375172
Ni 0.2130307136778514 3.0421113166905114 4.287920197364224 0.3164680892616163 0.9539625765794926 1.600990971529733
Ni 1.8601658493754771 0.14892167535780135 4.2645664345896215 -0.41538074186912977 0.1752528192311498 -0.04468885826694239
Ni 6.242733839655524 4.4909384619588035 2.0662562727914207 1.1396412191296568 -0.24591727562624743 -0.6515136844151038
Ni 4.662626616348983 8.394768628092194 11.975830050343443 -1.6453139618168247 0.005595748920222621 0.3561294124069802
Ni 3.532982644568072 7.723870824767373 2.1917687812479936 0.4964442821103644 0.8299713837367964 -1.262441219877729
Ni 2.3272226368253355 7.6609871410478485 13.437455548862143 -0.3081569982927596 0.45476104343896523 -0.798492853512541
Ni 7.664699217531732 7.671033756009206 5.56462057223989 1.9150175412293922 -0.11529186529648532 2.6480593642269747
Ni 6.87823764008799 3.4280010586345524 8.515118395349415 0.9376782375971723 -0.37910401892528256 0.616331480087016
Ni 4.012976295584899 1.715127079891987 7.176613793821304 1.7581802483909528 3.913219268587448 0.43276242768068696
Ni 1.233249688569906 8.52068373986891 11.051260759657017 0.7384318836649024 -0.935032572444209 0.22936862723894694
Ni 6.892430330525128 0.5864665313586731 2.5722686250735194 -1.4852406785395904 -0.9530590909286167 -0.4441560142296092
Ni 3.5480340989678996 7.970714676924542 4.9724917391401275 1.2364147139069803 -1.2188556219772946 -0.40453377185229683
Ni 6.340263570557964 0.5562786695648598 11.248308306205628 1.2056517216925107 0.8553422584014172 -0.7714692737358456
Ni 2.754757813949267 0.10252995333035791 6.782450368967911 -2.380217006392862 -1.5878528914858783 -2.2768409186973564
Ni 0.8688715221901829 2.455381615730369 11.941313279455986 -0.09270498113490486 -0.7520463891245436 -0.3103632619154591
Ni 3.7124089086435608 3.39695627968227 5.382993840935273 -0.14818450225944801 -0.22324888749445423 -0.3422122881052558
Ni 0.10435274909632473 7.810633687062328 9.016886791532029 -0.2436942998329997 1.2475128807026707 -0.15817658047515337
Ni 3.0733500100859814 0.753475807255359 11.351170684295738 -0.7906692437030641 -0.5747379729159456 -2.090251848517781
Ni 7.007929466496319 4.5079475288327195 4.639875835152483 0.17654377012843145 -0.9610621637387514 -1.0874701935530562
Ni 3.884198637265885 6.1136052885345515 11.484008541694264 -0.08629367829192235 -0.031156113887830215 0.21805628754992126
Ni 0.7915329018341618 5.754955908847866 11.572680076151453 -0.4532955146370322 1.1016156318155026 0.4607074908303872
P 1.1891941738818224 3.9630571774956556 10.255191183254368 0.17270639866021223 -0.42063170585542403 0.24838322066823676
Ni 1.891792371657323 6.928322970557109 3.5800761521994344 -1.0947988660039853 -0.18800240558733428 -0.6531805305945654
P 7.113622072054862 4.820417568977358 12.475976952420163 0.4513113943274679 0.5195710979358148 0.1903338819339883
Ni 5.781734570050013 3.5771674355516145 6.495339720981707 -0.27791645424066325 -0.40648652470329355 -1.1262264883856477
P 7.024476832315025 7.734323736657314 7.776013495138504 0.5588914928019924 -1.347317191886518 -0.99465902585759
P 0.0809260375549983 7.715911098575562 12.72777393349762 -0.04612507649283669 -0.11964500005885846 0.6068705917844323
P 3.4007422283349875 7.838954429788875 10.13273236557695 -0.6025868768074139 -1.1589874848667525 0.9820667910148764
Ni 0.31610270404702523 2.982967411518184 8.495062101511117 0.13155383568130247 -0.19550874126670845 -0.07333197592493176
Ni 0.37072009207407985 6.630470385820403 1.2828253010740736 1.0706418091418077 0.6325661967783235 -0.25940348303814037
Ni 2.4071707915454006 4.204656105665646 7.274826842285456 0.17215258303927125 -0.9863535913156886 1.4383514701872198
Ni 4.340266939601759 2.41634017450186 12.018145875455499 0.3632868493873679 -0.1308814922046262 0.947179492219388
Ni 0.4056634747365503 5.9278444859815895 7.8509808188749695 0.39359218523912864 -1.6343867733813593 -0.7540045412921789
Ni 6.226546600659882 6.559867060457776 11.239496279865902 -1.1495659344425364 -3.4030350111831713 -2.0472866578101643
Ni 7.023479558035772 0.5761669042190611 6.821468725143659 -1.4735529577890172 -0.3057733285519314 0.4197909551216835
Ni 5.079838157878431 4.242949591184716 13.239515995874868 0.09027246043401227 -0.43987127081132626 -0.058071193111119336
Ni 7.629859255905629 6.1178991083479985 9.276670277462497 -0.10541651516430232 0.781287545377848 -0.6927847752497488
Ni 5.9349177461473985 8.573927105555661 9.377221380070228 0.6506047994475892 -0.028427659213073622 -0.19814463622765874
Ni 2.883073771213071 5.444351140966275 0.20922352677659448 0.1794077219397878 0.986668551452946 -1.1735335010017272
Ni 7.66085786475239 2.592248276536652 2.953861776997781 -0.3041717883927665 0.3695384867240345 -0.20787651880344196
Ni 4.0198002371808945 5.930319203637512 7.062222740382617 -0.07251410800932673 -0.4847077103997266 -0.15525503595298423
Ni 8.834557351221385 7.986458682907183 3.5238945209973296 0.1349392072137676 0.0936568035252129 -0.7576292825289598
Ni 8.209294080193462 8.693923209804591 1.2665226368146287 0.4868579239735099 -1.2179721909310766 -0.19564912349931465
Ni 2.6374211077783425 3.240070261122106 1.030735601527615 -0.3052295402333195 -1.5963403601315993 -2.160053956912583
Ni 6.069956070775052 8.387603027715343 4.327181408295013 -1.0773145931762929 0.9249679891193554 -1.0765831143269071
Ni 4.793555801585272 2.007199167417472 1.3143641001554298 -0.9843789840878209 1.5525889260772614 0.3141427835625493
Ni 0.7084811926209794 2.0265167395674344 0.9584793863873393 -0.7245558970137586 -1.0159783561606566 0.3340878592259085
Ni 7.344472599659577 6.467831572112329 1.012909323785979 0.2655507335864588 -1.5721951303439632 1.1948865127562065
Ni 7.73510862845117 3.066526068489986 0.6652668972554873 -0.8942371356944018 -0.516540024418975 -1.3695721466299766
Ni 5.105582608716909 6.372010135114164 0.5156406660874363 -1.4004222992416138 1.111421305052015 0.2332286244149854
Ni 3.9131749954908286 9.381580761433517 8.86135632726996 0.8669286776874359 -0.05233300507576148 0.2754399676757127
Ni 2.0577184968784876 4.545012889544933 4.1200780127639405 -0.27811751450787586 -0.5540277369517878 -1.5159206241219505
Ni 2.0093229922714353 6.038191038176643 5.854772906777813 0.27822241551685634 -0.9537877415645252 1.498136303555336
P 5.368475189553157 8.557259697462602 1.054286972353848 -0.30376169743854137 -0.03301167903933024 0.8191786639966665
Ni 3.8395890813115496 4.600860249183065 2.2015402223804457 1.1077855080716403 0.19973254954006894 0.8967097656046105
P 7.5787766511572565 6.217608068231026 3.401759817460669 -0.9054666858616341 -0.08502226777866648 -0.8808000363528895
Ni 5.78097738031947 6.3646044501886045 5.539199312140059 -0.5808782814857286 -0.6741535333018067 0.13827161402111024
P 4.723220262834668 4.013124039922566 8.275079093343923 -1.2484636746517144 0.3274531275182102 0.41420960437916404
P 3.81785219563229 5.710392522999052 4.75653661097858 1.1252209299392686 -0.703418343704195 -0.7000028902647428
P 7.299567555029907 1.3421187973882893 9.066202004641058 -0.12980188598720227 -0.1629575468035645 -0.0011904207636753692
Ni 5.378854229274266 4.248425365699499 10.373108709352744 0.08452167399316411 1.958965407565252 1.0745727687650977
Ni 4.998301751528445 8.712003423126593 6.755839766949861 1.2533413144589898 -2.444303809570442 1.9606476803636814
Ni 4.392614605241404 0.6130014144036694 3.150720949515867 -0.44396909502978377 -0.34011581058754325 0.007769873753405973
Ni 8.920932384629964 4.297855080670221 2.22639451358448 0.8431398027979544 2.0457697069450056 0.6726736063221705
Ni 2.5237041378802605 2.242232706582384 3.2410546077718125 -0.17021782791040363 0.369371365018551 -0.102188752255624
Ni 3.0469407097280023 2.488661027789865 9.309430737535937 -2.4814835039445327 1.4578805413590827 0.051762220173956014
Ni 7.895937574022822 8.006311828281188 10.853767209889075 1.847568506447799 0.49361452597105315 0.3803147514039321
Ni 5.031553461524628 3.091836520336567 3.4590901608881346 -0.17274779342110894 -0.23383540476104892 -0.0184908597153359
Ni 8.170326511133787 4.267512087321857 10.377974115072542 0.5097417705502189 -0.7244098583541975 1.4080031969126654
Ni 5.282367942756599 6.3181203879501195 8.875911914736491 -0.2412023866490814 0.01178413711912164 0.6904263023199012
Ni 1.4420678418200266 8.905409995153823 1.8292309552743349 -0.4189838858393558 0.5676309295575193 0.30891958749039694
Ni 6.3510673752498645 1.7122552993285847 4.570598515220419 0.14346704217912065 -0.792830513020441 2.468714120094006
Ni 0.49354273018300254 4.26019874260734 13.45799847561263 0.2107687527495725 0.621760364412071 0.2628109660577925
Ni 2.8478459807005922 0.7922005215599948 0.07326549364696347 0.17853714640937637 0.7410425818148721 0.9834803835329514
Ni -0.1234422409250138 0.6609546093998311 7.5360702269524955 0.6051831767796803 -0.2259071510529077 1.0242076860489844
Ni 8.07547464635156 2.5563833385679833 6.287398799736485 -0.23962630041121313 1.2224024587882882 0.20531235762069158
Ni 2.1603915775359606 5.897289110147829 9.674198579606257 0.43217261661548795 0.14658399054154755 -0.608919503893661
Ni 2.6659634670113896 4.055268112242083 11.952624955308618 0.12391277419627693 -0.3745647362940323 -1.0507342715846033
Ni 7.508930515525176 5.192040748315427 6.949616623223369 0.2294511596504242 0.4447496819495501 -0.08480809488533136
Ni 8.803429466079164 0.5959803433023185 5.134643919936011 0.13806104067220093 -0.12232974597987319 -0.8245602400235542
Ni 6.107381558310328 0.984743712613983 13.443983078380693 0.8811761887453856 -0.5573465169123757 0.3319160483855703
Ni 9.084513068490665 0.965693927076042 10.290749551722376 -1.0825514160952 0.7196389193281155 -0.5226132271962484
Ni 5.097124245385472 6.274840531034788 2.9755534159736308 1.4317262515612181 1.256276485827914 1.9281268249178405
Ni 1.782304583424959 0.545375137445034 8.775767109057346 -1.8219850015517396 0.586161384261539 1.4590578494966355
Ni 6.726024036206547 2.7764208274596935 11.968937776991279 0.3994918385530152 -0.017743697136666216 -0.651724257764013
P 1.1368280401999689 7.826913266269012 5.765979483242047 -1.5424538945257888 2.671439433713812 -0.44518188439096235
Ni 6.658394065639469 7.772746498471843 12.825716425143415 1.8613439629653363 2.8150052062543263 2.7788338985400918
P 0.3751145627175632 1.3645482346503635 3.0698604735107087 0.10791408477517543 -1.4859166215606925 -0.8322362685115733
Ni 2.236655357835454 7.509198302137197 7.877808420388969 0.28303192109035774 -0.7898655168548461 0.6219637386721288
P 1.8047155526448249 5.160395757991371 1.9354582106548102 -1.8519969745327975 -0.2526322257525778 1.296743592704025
P 0.4565004545235501 3.996502801935027 6.4175615612211265 -0.2854086488526504 0.9373306244497663 -0.25942636585627576
P 4.414222214625205 0.783634120181639 5.301539617373115 -0.15080548482206285 1.284715200784581 -1.686140508914883
Ni 8.561719729655923 0.6123504159158242 12.953554060114023 0.3236144704984104 0.8197075399169431 -2.154399329729967
