# total energy = -340876.55214757624 ev
CRYSTAL
PRIMVEC
9.19778186649593 0.00000000000000 0.00000000000000
0.00000000000000 9.19778186649593 0.00000000000000
0.00000000000000 0.00000000000000 13.46188348765403
PRIMCOORD
 96 1
Ni 1.3400064626474237 8.764226140914914 9.474245242566957 -1.165309056209406 0.16209005659694664 -0.20200591895527792
Ni 6.709827951057114 6.705026708858019 12.066370601606968 -0.4999476672779325 -0.16407134869303358 -0.30908439520303543
Ni 0.37479673922241236 2.644077191057549 5.9559685413250465 -1.1004010426821114 0.2641029453963387 -1.6273630337653586
Ni 8.427504540020816 8.135493357383053 8.41499647629179 -1.7495873645156192 -0.42287422203269753 0.48218005888186644
Ni 5.304011358266904 6.281910341726155 2.6393909211333355 0.1499048273846644 -0.030219461006173762 0.3662240776388209
Ni 0.33418669217748825 6.114004831487641 2.9322942886241874 -0.044485998227516935 -0.14238615041011607 -0.9269238272941456
Ni 7.089034106965823 3.1184344016590786 5.455993668323281 -1.0704893427243434 -0.4163665028211668 0.5944778745470343
Ni 6.219503390919893 2.4637546751317165 9.935328214199645 0.5656501516820646 0.4637858726453948 -2.4214289618547977
Ni 2.301386229651547 5.291667934835511 10.979418115976094 -0.7563344749769361 0.018257917768923392 0.3143230178941554
Ni 6.240363960474587 0.5508275700714285 4.5380412289878045 0.27058906734131466 -0.6913902088950673 -0.6462442084860484
Ni 5.614031798042274 7.669929226364543 5.8979066227311465 0.48292439324705866 0.3340863165640117 -0.004924433884810874
Ni 2.4159905932544987 1.2837344324288955 6.338096832572171 0.31171591928861153 -1.505266229731898 -0.35015236888793894
Ni 7.187514758739243 4.747435174451346 2.515621887554943 1.3111867647125484 0.36761041646338627 0.5681541490508409
Ni 0.21521614146359533 1.7064093060252088 3.7524733856213213 -0.5762852627984075 0.24341482091936786 0.00912124557497784
Ni 3.642855139635477 4.90348474370397 3.938556472407871 -0.4712238169806788 -0.1297016129639121 1.3442897179141042
Ni 4.919258939817858 1.9236793122073066 2.9839876629677917 -1.2895460465143211 -0.5343459422521443 0.3390408323558096
Ni 8.712976099663258 4.5763748249900535 4.544678348472226 -0.29244190155034794 -0.3173106397675697 0.5559411519244167
Ni 0.8311695266977094 7.124712303307384 0.7238038175213641 0.671562632646179 1.9154777686952622 0.4444046399053056
Ni 2.6624267661288084 4.273335501745554 6.4444590637333405 0.15063553490310186 -0.13444041320047814 -0.7616378894677206
Ni 1.5200438473315478 6.157510340303208 5.061426296712061 0.7079568550044969 0.3136445037698921 0.860754173445608
Ni 6.110886783392825 6.900341609428539 9.521940341079246 -0.16140794292825753 0.13067143307634912 1.1837117270863098
Ni 4.958551864481729 7.135630070530234 0.38456938258743134 0.17957381520400686 0.6998067150935366 0.365544535073293
Ni 4.813410864669964 8.352496627887422 11.450274650751998 0.7708131282090853 0.5291857382074435 1.4866069627594978
Ni 4.734089192782977 5.460281674287301 11.354560691801352 1.1713943431715375 1.151295001318501 0.8953653357615742
P 0.4055605606463926 6.189150710350893 7.437569339048657 -0.7470718187280876 -0.19792686378989782 -0.821776763741146
P 4.053260172056322 2.1803986053471136 0.9258735691857861 0.013286689806577115 0.3764794368182419 -0.09936336699168695
P 8.68067348931225 5.4088476773958325 0.8623564460932575 -0.8466221049196 -1.2125409926131763 1.485489818435919
P 3.990494507752426 5.49075392602218 9.315744464413838 -0.32499643844760157 1.1688774902869548 -1.832584888554773
P 8.230267303014259 1.8857660548420283 1.1606616709471924 -0.3082382451526563 -1.196600924344152 -0.14852363076642164
P 4.6312120012180475 1.7290910364140435 11.190406037058608 -1.2720293777867964 -0.5799233737716271 0.3225528620031155
P 6.429157633613769 8.650008084155568 13.039947547308833 -0.4454580208704845 -0.5289720795347407 0.760047147941833
P 1.5103033962034957 2.5806308908863484 7.611928013131781 1.030373191429748 2.1368150409893003 2.7565653169498785
Ni 6.657152253596913 0.38593433343483724 1.923487998341902 0.015165651996844852 -0.5638951166641708 -0.777394638081345
Ni 6.481051519604769 4.754388697636244 8.75962081147222 -1.6352025844144356 -0.2940413848269839 2.049729462923702
Ni 8.19813025273908 3.2876092058122968 12.252037028869342 0.07201659954761791 1.5142406653163663 0.9967776148624897
Ni 7.9456143459689805 3.9469246144629246 7.493140498279501 2.0144860663403756 -0.90521857440657 -1.3510252368657247
Ni 6.211354156076215 2.7105955504136126 1.170050766803203 0.6735686073326141 -0.40842822181069655 -1.8656762717921032
Ni 7.375434642589316 7.027390572064781 1.3744852682174098 -0.30880980138541014 1.4106750873178735 0.101318948056161
Ni 4.6452570143177025 4.169069445100043 1.969419882046591 -0.1046698668062649 0.3938120145594185 -1.4539398115437798
Ni 3.6207988584220034 0.17782439833718428 0.29488548950982735 0.30444149711438534 -0.2886613514619932 0.1831499625910394
Ni 2.558225093957232 2.2073113154516273 4.1913437137466945 -1.3910850810010882 1.0183149747136335 -1.2462826078399956
Ni 3.2320638003710265 8.16838462578146 5.916875208530373 0.269746002614729 -0.8997603795054763 -0.45781165733983087
Ni 2.4470055141268223 0.3722480338328154 11.482542309531443 1.8996829677548508 0.30544242757507395 -1.235300140686563
Ni 6.3173861868639225 5.080505255895175 0.47711194630771575 -0.4433345467695784 -0.0056445998802870535 -1.8892764277095464
Ni 0.2677704282015205 3.4789414667808853 1.783013033333972 -1.7406764351792345 0.18920105388112576 0.9499683678184347
Ni 2.9363459115910495 7.31115134425697 12.607161551970245 -1.4456428616423103 -0.7890383929678604 -0.23958644831221323
Ni 4.792173186053654 0.6542474307738035 6.572239250037836 0.012218396443062829 -0.5309857675306597 0.043449329432886465
Ni 8.40496997414383 7.2371459903605535 4.947471296517646 0.16641670899675856 0.5111160251899262 0.183960888528109
Ni 5.262897272768894 4.74825377704851 6.939829527070609 -1.134423422374143 -0.17477613670504738 -1.0524075455219681
Ni 4.381915318144659 8.347575814522449 2.5569769549411068 -0.7356404369626943 1.5029344962749278 0.3177783234326076
Ni 3.9170042296474827 3.5925892610568146 10.17765481808055 0.10707076293827365 -1.5558984500664685 -1.4812377280277844
Ni 7.094515985032225 0.8576324652628823 6.820652026261928 0.36866791119362313 -0.6719863504471588 0.34122832692543165
Ni 6.417255703717924 5.734706697759026 4.902225567349456 -0.26539029674919457 -0.9800217355603896 -0.947407291959478
Ni 3.209170520996408 3.3379578644288745 12.341559040983912 1.377796591422298 0.6660771840515755 -0.04933124213496021
Ni 1.48122920733119 9.004499799855518 4.534191037446537 -0.1592101639459903 -0.021647145956130463 -0.9220212477862055
Ni 7.296637244275794 2.488570290942372 3.226274716386139 0.4384854462073932 -0.6674375547342117 -0.08141243894022109
P 6.709552017597396 7.597735835520275 3.6267792562722954 0.0719158123036955 1.0742326118168597 -0.6481257417794773
P 3.7228666451717594 0.45402919262409064 4.35345186199653 1.2287222303587293 -0.325799136854555 0.18260643138274357
P 1.735924988433064 7.864471513247853 2.7663635421790556 0.2939629661805647 -0.9727455136139505 -0.947669030261297
P 5.829204709930513 2.5623365025070326 7.292383270105138 0.5159317014110146 1.3963743544244855 0.24658807644102695
P 5.886378122784121 8.238738460227607 7.983758467662223 1.5275402106387497 0.7808833679608939 -1.4104999951925903
P 0.8768319153900734 6.8973707258455725 10.73733341376154 0.5012013371793756 0.818719464972061 -0.7888039083595512
P 3.859720443409988 5.271304045508308 13.362293014951614 -0.5299339292273777 0.04521156353963181 0.5848007564685863
P 7.080986047724043 4.800791507778853 10.769803423744778 0.048242894166787884 -0.4921909061506491 1.6474883437603238
Ni 8.742050288535562 8.581309850467731 2.8156204240733484 0.20722191593857858 0.1374498894507633 0.12127302258058471
Ni 1.6017753381000737 4.504632125463327 8.640092875169694 0.15176116386711283 0.16437139643195564 0.21455187394108854
Ni 4.409729410884252 2.793090457087359 5.338350357550633 1.7145499132955118 0.21360005155078052 0.77464947123604
Ni 1.9175351938375818 2.2297998924186593 0.25488893452367667 -1.63748752379387 -0.6674429540508505 -1.551148079865677
Ni 3.244664761698157 7.5204008845432595 9.873981767656899 0.5438520819703666 -0.6280793646515634 0.7776273229174414
Ni 2.456341262847288 3.472061525851912 1.9822351516941021 1.3238404489208169 0.17400686263919066 1.9262979992392182
Ni 0.011603921759348676 1.3712329325055315 11.572629065460236 1.379141792596283 -0.7957813681186489 -0.628778447601117
Ni 2.7809769782057305 5.943229613268057 1.984415945804075 0.24338988121870342 1.1754289182522273 -0.6162790295825257
Ni 3.8699299814195607 2.1999714854231236 8.053599065873293 -0.6259582045435026 1.054188805792107 0.6266742567739207
Ni 2.490115518316794 6.679953555151626 7.728386649584039 0.9181172847461091 -1.1762596416836388 -0.17284138157617976
Ni 8.8838892846127 6.019663181609993 12.34702436304273 -0.21904102006069373 -0.10985321077941726 -1.8807552776124128
Ni 1.7314088774756764 0.8373669922029798 2.029635001404492 -0.06639565381641468 -1.2390392960140209 0.7532802615316447
Ni 7.370247093546614 6.347361758371308 6.927028054096083 0.692045325980563 -0.23699709031848218 1.716732265658811
Ni 8.321454113669127 8.250410445573685 11.091245669196082 0.028907941283601826 0.1118843822768331 -0.6959714005078464
Ni 5.942916888680376 3.376919668941082 12.252495078412474 -2.1548101920151406 1.175619951217111 -0.09443224823865673
Ni 0.9259223174303364 8.226772145857828 6.697192957936619 -0.4403682650524029 0.3832229261896626 0.5672156963969714
Ni 6.661318848838657 1.2557087907035187 11.854682729314968 1.0768556512620033 -2.1876575775624647 0.4845488162243591
Ni 4.709448334830143 0.3031690119705672 9.417219914003399 -0.2969642149007337 0.2757320449948348 -0.825771743833152
Ni 1.4288570366766788 4.876599626945429 0.13625134351784368 1.5862600930774617 -1.038586580478476 -1.2880812890433364
Ni 8.672156343188949 5.669650785739469 9.337121949316405 0.04110191224663244 0.8014709623042584 0.9140806527828903
Ni 9.094380525467722 1.2513674376039527 8.047931392610682 0.24064420015276616 -0.3288147837524273 0.030083706759257867
Ni 8.857519243645633 3.163209204389349 9.620373164386315 -0.22720555814935708 -0.21834399399366913 1.129406685885842
Ni 2.0121803705209187 1.975885922785987 9.683604236458935 -0.5325721381811731 0.7073089370078528 0.39294272458058777
Ni 8.585182116685777 8.970035710736717 13.363086783537405 -0.9615079930269184 0.5886245010900508 1.4775348252549003
P 7.877146056830909 0.8469087712400346 9.811263012041154 0.3941943375995018 0.3150066742247413 0.08933092245634938
P 8.69603378523656 0.3040115288009067 5.474719432677956 0.4071619535037633 0.5671586179067909 -0.5618559747469549
P 1.0547924409007188 3.433881532808906 11.61035008918191 0.7720811962882316 -0.2050148809849308 -0.5984589706819694
P 5.685829684260945 3.9378372058562054 3.841294526748207 0.09940656152479654 -0.8499635105880072 1.0316854824832684
P 1.4559537024210043 0.1558545762744225 13.239870536656646 -0.22372685557213728 -1.208899539205847 1.1565552212761758
P 4.049709828207948 6.126909319620461 5.669768517348948 -0.6383547784356426 -0.1907959091720714 0.690201845013921
P 3.01162055940217 8.892912308745485 8.019997728705212 -0.3136221351723889 0.3614865629538355 0.16280302350357123
P 1.499909902554111 4.235569408892125 3.877345233260387 -0.16147119206602514 -0.27535486416107413 -0.08951809876649099
