# total energy = -340874.52131587506 ev
CRYSTAL
PRIMVEC
9.23897411416134 0.00000000000000 0.00000000000000

0.00000000000000 9.23897411416134 0.00000000000000

0.00000000000000 0.00000000000000 13.52217250589423

PRIMCOORD
 96 1
Ni 7.292322338316429 0.6294014219800727 1.5211767767574507 1.8835564945066336 1.4034891110923957 0.6866830332273851
Ni 2.1000742701550164 1.7809970570850855 3.358975047241712 0.24917614888317727 0.13422983985156883 2.53605825386662
Ni 2.049527842291176 1.9786279542584375 8.378459841194188 -0.20528124727244002 -1.2972606415497592 1.4099893741047589
Ni 6.964994721283345 4.675124204079001 2.2135390362377447 1.902750293826265 0.4006166961860778 -1.8767554124244
Ni 7.784685751535179 2.2383539970492032 6.931803706459575 0.9038119238670306 -2.3400833715967697 1.6212227251955755
Ni 4.137517534188852 4.857187429720536 11.127098089723425 -0.47823701507371824 0.5347035827018791 -0.2811897256752963
Ni 2.257857471591438 6.811914157716179 11.983443826227681 -0.8056778012967545 0.3895810071972065 1.505684033995607
Ni 8.821991580161148 8.08378830237853 11.54375734832395 0.4349321816384962 -0.5784915264211069 1.4900442705758208
Ni 0.2849271927239037 2.9359242662876492 0.17307739933183452 0.49509599561258605 1.6737207950942916 2.492644662767675
Ni 6.930828994681174 2.3009203303509627 3.2103670710861487 -0.34590027847980426 -0.17301955902525687 0.011517770831612423
Ni 3.9460859887056188 8.143416641883778 6.983715654710598 0.14208224601645206 0.7103065861835961 0.15535839430006793
Ni 6.423988108886544 2.2597422223288213 8.866434741666579 -0.6577141567988609 0.9330021722777416 -0.08338601772682412
Ni 8.595941598339802 0.4071348000947978 4.822859097172395 -0.7176370584067383 0.27566133965789946 -0.19950654957219188
Ni 4.474536835160735 0.7362917340200473 12.409203474418021 -0.5227248130734482 0.5736177432685734 -0.36124513636699074
Ni 1.6645490262322535 8.592366115323296 7.18098992747972 -1.0589777425403182 -0.020077230365849293 0.5652449458238458
Ni 1.6626365585722618 7.262997834196555 4.91879845308972 0.4757502440961226 -0.17501936306410504 0.3839160956019453
Ni 4.742587193708276 7.266878203361755 2.00736670741385 0.5378282443737898 0.48286320099182006 1.35964923108931
Ni 1.7867436990392638 8.777930912187713 10.66166536240859 -1.0219685123058204 2.0382690276925866 0.011796478414295812
Ni 0.9092527222769258 1.5893992100662002 6.33914014149975 -0.13862256960262578 0.33714387244341293 -0.6136814440586786
Ni 3.1541303590107677 5.9238362404147855 6.6098005102596 -0.8340267847530926 -0.03222826390608643 -0.5635729574380617
Ni 6.054447618720599 9.037028704732684 3.3006540225861656 -0.6407448759343739 0.6206406489853311 0.904266752016262
Ni 4.318869358816768 1.0390797116729176 5.067380560117516 -1.6664173194543428 -2.7441664290648933 0.058453259040886434
Ni 4.316873740388949 7.327402723364684 13.227253662851426 0.034094113470231606 0.47872166801962074 -0.8373807888269902
Ni 9.045389976386272 5.568708550005299 11.40181529205575 -0.1506242220491922 0.36476034860910084 0.84530647143197
P 3.3046886826205544 6.479736079226594 3.5085577351756765 -0.662603109460046 -0.12218833530600245 -0.9091341074108924
P 8.80561087889948 7.9446031560124615 0.5736580711271243 1.5946645150910732 -0.16933105443007612 -0.18982120396362792
P 1.901528714535581 5.433320622036607 10.491326395030482 1.1569840812834784 2.589185729819218 -0.5239455728544267
P 9.054130045982177 0.5039130548697435 7.903560860911102 -0.6033823761255156 -0.15473901554851416 0.15430244223172782
P 3.735640634312902 3.2607111654149468 12.540557666249745 1.1247912986010178 -2.4959824688916563 0.029550459963607174
P 4.31279935276549 1.4308399347967382 2.6920347491780032 0.7885334283069839 -0.21172623156683537 0.7661504326260934
P 3.5311636572552314 9.245811043768887 9.003494923965988 -1.826114450339081 -0.7723421632591021 -0.17570636182880062
P 7.421206028446309 3.611524254871697 13.760568829224347 1.056378100133942 -0.06423155628556033 -0.506290835887141
Ni 4.55599687070734 5.56318364343199 8.439512830521519 0.7780677528889697 -0.7127547906137724 0.12528882860819712
Ni 6.853877578545562 8.209697042815089 10.364298814817955 -1.265878527694052 -2.4361464705706304 1.2778197592163283
Ni 4.792320591842265 4.961033499760669 2.724785064932297 -1.30385603537909 -0.410894423963002 0.6966758827740388
Ni 6.953713933781655 4.605323753976403 10.347085681980609 0.5867943898598474 -0.06526693952861018 -0.3864380906928506
Ni 7.235742860298122 5.2469058395455255 6.397623772101267 -0.5171303497048062 -0.9141608712015225 0.7873473784186827
Ni 0.7218336632899935 8.605346874078311 3.0124968844809428 -0.25867380396096745 -0.21022445021032826 -0.27767528476413467
Ni 3.288963948527289 2.202007872535157 10.510379007631618 0.25638783614026817 0.30947211755975734 -0.3248486000158276
Ni 5.222496469701572 0.5991714983883187 10.110501421773165 0.6717883755037398 0.8400151411260437 -0.6345927402900491
Ni 5.770580136337763 2.765585298909542 11.10264991618782 -0.4518202156430864 -0.6554305029710068 1.8235551742523368
Ni 2.363070909813594 4.37753684500492 8.56122522887514 0.32056745614197046 1.3072848585549808 -0.3821381777659161
Ni 4.739094861459596 1.0447616808076756 7.569131244408281 0.32211757423790977 0.9590695587887547 -0.18947744747096398
Ni 5.571859040208474 2.7572055493075487 0.8773440770725124 0.08967853560375523 -0.02595425797191659 -0.0813684730761631
Ni 0.3981877774767493 3.9792261891712735 7.2285752641115435 -0.00356534875375515 -1.467674130410737 -1.79488068913578
Ni 3.897664524908436 8.020371983450106 10.81744093475073 2.0802556565370174 -1.0097832830935383 0.06850935772530782
Ni 6.6330753340714415 6.548945234980209 4.199730014778643 0.8787187283438286 0.40552647478286935 -0.328252483491054
Ni 2.5895828403450825 6.999206642756532 8.942726495044106 -0.9352657715009377 -0.09443816177592769 -0.22016279236996275
Ni -0.11814245872163627 5.424035452962734 4.96992601243092 1.0610834760294112 -0.6012493889429129 0.28460929287980663
Ni 7.5408784612959385 7.3378058083171025 2.204424788186625 0.33744289174107045 -0.13692024219953838 -0.4680001678370585
Ni 8.413647398343194 2.93741174113431 11.763871289219958 -1.7868663034717354 0.2737818632469995 -0.6042640073995206
Ni 4.534396149021057 7.6287595839135305 4.733260449250491 -0.1975856784003952 1.4561684437639826 0.5089007627061622
Ni 0.6846809763280376 6.025973100227389 2.762539209114859 -0.33131286758393264 0.29498497968717585 0.34884007783441856
Ni 1.9221316270079563 4.4432813854324635 12.586600094189691 -0.43242149940150043 -0.07664664212046154 0.4014178519311345
Ni 8.608645187868733 7.28385943794661 6.598116903482665 1.0471200718707838 0.357314690964333 0.6474066042252656
Ni 4.681249643975497 3.0741762762592275 4.489875380132321 -0.06287195693387237 1.7424147580265799 -2.441136981806686
P 2.1534385851507283 9.44906847623178 5.195354211288414 0.7320684033407199 -0.6042964032993529 -0.5285013105459092
P 5.533674359828058 6.243181383736598 10.215041338775933 0.5652824839300007 1.9879188573748083 0.5927380090377921
P 2.5681207032718416 8.758676889948957 13.152422591295373 0.5769388372220065 0.39211714335549885 -0.2676433544494293
P 9.116132801857562 1.4162423555562214 2.8429690990378464 -1.1316965103612833 -1.0496263832324053 -0.9400845330458196
P 1.1432306678617445 5.973412575987325 7.221610925357429 -0.5540531908730846 1.5332976819478175 0.028780414566802043
P 1.5765662748984293 4.615486625599548 1.4567838982557857 0.905102617653996 -0.3230107754761405 -1.7459351124750124
P 4.073537637834056 3.186956434353525 8.450573730437181 1.4118984182020136 -1.1080415899465046 -0.2806827041318908
P 1.1766480375534847 3.2167521261577443 4.8842761020833185 -0.7139236141108931 0.43587937604311383 1.0951562493434044
Ni 0.2684577973098876 3.475600466399239 2.7493413344660755 -0.1444340340780803 0.7230003796011807 0.5574025669612916
Ni 5.705094287187901 3.1695132510585275 6.539755227340626 -0.9674618966175079 0.518967660023861 1.0952320968866622
Ni 6.804412110663457 8.325646169060965 13.544078414010698 -0.4820980406910213 -1.0570774401938117 -2.5655724612756523
Ni 6.579581673436889 6.208174910481966 12.213199560601794 0.4029250326042803 -0.1475011030391782 -0.442587898411541
Ni 3.0875450719307644 2.79301581331783 6.433240941550707 0.248697666584862 0.9394006196049176 -0.9164008162756346
Ni 4.986828715735051 5.454644174496805 5.306749447149703 -1.185565492465597 -1.809977692678218 0.47615416440276065
Ni 6.907971772503301 8.935095102352545 8.140375171576197 0.5898735430058034 0.7423654143913537 -0.3336379161726835
Ni 3.237502862217365 8.692193231585184 2.92387202444002 -0.6769429231214859 2.1307410668810784 1.3747961140330776
Ni 8.92221597231376 0.7446178975716635 13.242155204343218 -0.2146770866650432 -0.6410863184341927 -0.7780158166051117
Ni 3.364621908274499 2.9962917237291284 1.6874857035882707 -1.4100423388298813 1.0363625762439634 -0.5298313422112424
Ni 7.1065912399163595 6.478562729502831 8.597478039749737 -0.5613258132750978 -0.15734714259532254 -0.013867502010711602
Ni 9.21572894376438 5.292999081843588 9.134714226774351 0.2373745282625589 2.2330982263937673 -0.9292154515417997
Ni 6.67547298668836 8.521078190374038 5.816562510945392 -0.9238343897355444 -0.19647547605535196 -0.41966574239772886
Ni 1.0493349730380908 3.674792750212874 10.380133492704237 -1.135909005780734 -3.1144307382113587 -0.02411720476317782
Ni 5.100200168178332 0.323942456885156 1.0059903255653788 -1.60706263164511 -0.42863992087188113 1.4664898802946484
Ni 8.225754379979657 3.1772277945179144 5.031641436208598 0.5825960355077837 0.08937617387198801 -1.0163030864899272
Ni 2.0699644532278993 1.712018875686542 12.682905313485453 0.38035743171640946 -0.3151807379087604 -0.7730304475753783
Ni 2.5521649948235043 4.662134206349782 4.295601926184288 0.7603788202496389 0.0285155909411896 -0.051273967683627825
Ni 7.9522345487040225 0.938374892861757 10.204940368279946 1.0846499504954419 0.5862179485310872 -0.15869362932088799
Ni 3.9915971756289013 4.847726720136809 0.3630436435064949 0.49075468792475485 1.7549247175681324 0.4119642599884131
Ni 2.325135681736656 7.175088994656354 1.432836477121976 -0.2711341412115072 -0.5589642550214567 -1.235370331802866
Ni 9.184390343268282 5.714250110622934 0.2549642754866124 -0.264923384415105 0.18614195533982783 0.5745204575885009
Ni -0.07454743504802686 8.008684681083489 9.189992857224896 -0.1959095762495529 -0.4722735984014318 -0.5435296656339413
Ni 1.7478383786710252 0.8712722232263936 1.3525008247358579 -0.4514908573281257 -0.8614550561673744 -1.3055941011161194
P 6.6820603752949985 0.8375786082059881 12.045091805493676 0.19915353710814734 -0.20223680401916136 -0.2048415886318601
P 7.901734315711197 3.811446417647358 8.48947720301058 -1.474604538981983 0.18559585302837067 -0.6052587672126222
P 8.621699858417372 7.4295488221514905 4.3367504694889805 -0.26402555519118404 0.6470690183801888 -0.2270366366716606
P 6.4055471163776385 1.3970160502400721 5.27952958135324 0.9893782370746249 0.12964967668005412 -0.008952324097281356
P 0.7234310819296679 1.6845144494846314 10.858521109646322 0.897762375238841 -2.1772173560657473 0.30313974758382634
P 5.617009907137844 6.8658882450092795 6.928923918200545 1.1804042599796316 -0.7875474102446308 -0.2308477828876347
P 6.542588820728642 4.355742104860377 4.268111358443681 0.11787325287041635 -0.5066075957966113 0.7998272560532483
P 5.974133215975147 6.258702860397401 0.7568170391091182 0.9510957965546588 -1.4797621719235226 -0.4030679859400477
