# total energy = -381165.7221193841 ev
CRYSTAL
PRIMVEC
9.22190213890500 0.00000000000000 0.00000000000000
0.00000000000000 9.22190213890500 0.00000000000000
0.00000000000000 0.00000000000000 13.49718594444902
PRIMCOORD
 96 1
Ni 2.6782339681459804 4.741330192770627 12.196178272500003 0.9449824845680692 1.1061163478993337 0.2700931015415026
Ni 0.7746849458913311 3.6387780468734734 8.156565649123973 0.9722176661349385 1.2574327109195442 0.19815466352998778
Ni 8.046007956152339 1.7071492555607748 4.625377687194652 -1.57727125931529 1.728048719112895 -1.0411234879677167
Ni 5.4372702406325395 5.560456406049275 9.310506843290684 -1.0921454875415384 0.9627338950142194 1.9666252381033553
Ni 5.3668333540138065 1.888442624772305 4.176218500419839 1.9013467286105188 -2.6579395994551644 -1.4798164222002255
Ni 3.9346812127461206 5.501261017831727 3.068234654310794 -0.27528107350034525 -0.7921090614733842 0.033437196612523055
Ni 9.025041948164796 8.891278261282796 4.13888455281742 0.35968010587271604 0.2627196918955669 -0.6270141566118427
Ni 4.433337113523122 8.35257164060724 0.027254408839094385 -0.135493794165657 0.46893373539492145 0.2928265385832764
Ni 1.0195550289072874 2.2556864236486858 3.8384644994001467 -0.7751768044944198 -0.6399203231505495 0.16586546447897885
Ni 6.817355523841917 7.264285776930456 8.766408176581354 0.06174581374922914 0.12149747988656492 0.8660725003347277
Ni 0.5669542283479623 3.7556287656933165 13.219089151504248 -0.7579990071635526 0.8167908804907804 0.032148816818402697
Ni 7.084384914903978 5.815995307359185 6.877949874575839 1.0289783679647504 -0.3943694297247853 -0.014279135626833472
Ni 1.264885284827443 1.3272068977849445 11.770936088271103 0.13318957151251257 -0.20140916591154345 -1.5724674101687435
Ni 4.463160744228148 2.872742322762675 2.0454307493684474 1.0430374171609778 0.9232155252046229 -1.0035853818129425
Ni 2.395684116206814 2.0121636604985316 9.267289322283872 -0.795103625325334 0.21692011706294897 -0.359206251560091
Ni 6.032433344664979 4.943243734603194 1.2353060345224436 -0.46845293910376096 -2.6223233929134517 2.1507792164788766
Ni 2.4593521268399288 7.803813146874023 12.227626802317651 -0.8679254943830664 0.16264901442421018 -0.3817692244622716
Ni 5.324329608213108 2.4464045765895097 6.230881295768126 -0.4565585016590202 -0.5666377124063146 1.403605582065602
Ni 9.132071341474171 8.029177985207172 12.006489283809854 0.5433944256076576 1.1419297580535173 0.9467611737350469
Ni 5.670344588943858 3.4277256002701324 10.909518232935174 0.009019687000107047 0.6558693902806382 -0.6209437820480468
Ni 5.263114623482137 4.297756711969233 7.57692853910977 0.09726431837081313 -1.2520706752766824 0.5187881970232032
Ni 1.8976091952487415 0.0922227076383838 5.008603042042525 -0.24854622860866227 0.941906673856223 -0.028888658009892182
Ni 3.0951284867860767 3.2921820863237934 7.082013963928635 -0.45207064109099565 0.5173419514949801 0.839522003539709
Ni 0.8860209673822922 7.349367043746955 2.5046325872990334 0.35705089577998506 1.0275879153751268 0.7368719953769503
P 8.9400344565634 4.8268080013683 9.494608281627038 -0.2865512470975259 0.875936280502685 1.1722176104037811
Ni 8.74154224033119 0.7975239081065647 6.5252416374549504 1.423700038822632 0.5087737502099948 0.06317149045216218
P 3.396343468146075 6.451642560678904 10.86511293096522 0.8008042752545369 -0.9151869984731915 -0.7128468361069465
Ni 2.8125417472393592 7.91854282825968 6.562210397742614 -2.4977881546418272 -1.5169210403620068 0.9689199692202733
P 3.0931273340764323 2.0418858502827915 5.373189088794853 -0.459499329454899 0.1628971258792743 1.3253491722558592
P 7.624963581662749 8.303714004405872 10.647443769757407 -0.999019359708815 -0.6798971206538033 -1.1912574006440517
P 2.938199382362016 8.41106616428132 3.2685592624481 -0.20184316812516853 -0.03174309673955178 -0.8894559122556746
Ni 4.855654110473223 1.455372890221073 0.27900679723388805 -0.503699678121197 -0.647185232243079 -0.08539867728147872
Ni 0.4026494467940688 5.473954966342061 6.3763946078453255 0.3383625753418624 0.8964943071596948 0.991563160541086
Ni 3.2502593203420234 2.4222616374473467 11.336461858062366 1.4044936410975102 2.300647791308967 -0.4540131095293471
Ni 6.5835434233795755 9.035591803924397 6.45289673933564 -1.3084989334677402 -0.4719465540793162 0.21821055373959838
Ni 0.3997325592269694 1.700371157673269 1.6357376139125055 -0.8062030776726051 0.45313713468229705 0.4896815094652341
Ni 2.525500829080852 7.223368198254452 0.9698093235541282 -0.2990084990242722 1.9882559289992534 0.30577512832414433
Ni 7.979997582439732 3.3247630656932596 0.9648331852954913 -1.338461027047469 0.15180744372401597 0.833237713192894
Ni 7.782953204803904 6.534575124355555 4.277083052317246 -0.30887690717791966 -1.2475586463389416 0.8327085801623014
Ni 7.18636070597886 0.8859352036947361 1.7053021086126559 0.3677520842475731 -0.03375292808072897 -0.8502216493454002
Ni 2.287280659516161 2.580159041569622 0.13263492609093827 2.2436868005428905 -0.9446834652704117 0.7627360076279057
Ni 3.072756152806364 7.618379143714887 9.039564599257645 -0.426730105443678 -0.8271652817465691 -0.10674603260900326
Ni 7.007548028375138 3.7322604663097256 9.031762870260598 1.8547979343167023 1.217769330891651 0.2349255525014341
Ni 2.267204579106502 0.5774607411686905 1.5226577307745683 1.2513255695805419 -1.8543605896689674 -1.050149602725727
Ni 5.278422980615824 5.2276379669199144 5.557533985341044 -0.6734930168996723 1.7816652188867703 -0.386042912136961
Ni 8.25450593593277 3.2147088885646977 11.32060203119579 -0.4966605118862285 0.7139943194478284 -0.7120922173291091
Ni 8.993207942848239 5.224373413651645 2.5588499928775685 -0.6114132168497922 -0.866444796072482 -0.9266577181169524
Ni 1.1771481102672672 3.700076028721433 10.917643650688483 -0.6385267852371326 -0.33450926303404327 -1.5443619101817792
Ni 3.5824506701430177 5.382418368204125 0.8963033879871478 2.3252861586829376 -2.3065330464451503 -1.2504413672033754
Ni 5.50095669506943 7.920322655324019 11.012786012464533 -0.47647735207013425 -0.9168031939203759 0.16791643347073662
Ni 1.0532703022089485 9.151382004027148 9.88008839148647 -0.18617126591586647 -1.3994074848238542 0.08642660432536084
Ni 5.527552660113738 6.386314607705992 13.179880391248048 -0.26082324620380243 0.850591116869677 -1.8055661938740841
Ni 4.833032785142541 0.10993060364326607 2.259617720423439 -0.4455603507763036 -0.1601211057960339 0.22441796810189094
Ni 6.734754948633224 2.1985844071596583 12.704293078043284 -0.2361257434571224 0.1826460263714274 0.6975150908458827
Ni 8.779923795988058 1.2955665524080302 12.994131921234537 -1.1894411733709194 -0.6723661023840808 1.2382777352576482
Ni 7.76964600037986 7.727501908752785 2.457351896320473 -0.23991992039223198 0.18304788979553635 -2.489041518797449
P 5.85101086882702 7.386273095101783 4.895955666103124 -0.013824821698234254 -0.25376376825385977 0.5492172029370218
Ni 4.789394745409647 7.400133613639091 7.469963699113609 1.7528608930605682 -0.6838411929032158 -0.4833295991052773
P 7.345752058206953 3.2563273317841714 6.590122328186307 0.8055266204308706 1.0069206168337628 -0.6366807331673293
Ni 5.355564189906961 0.15100772122192824 8.976654628959704 1.0190464535630193 -1.3336268388836192 0.3738132028399885
P 3.604666231790638 5.52008291958465 7.059838056459131 -0.9985223654677383 0.893877438362138 -0.1720983327625681
P 1.5560668369335557 5.269994162290408 1.2763139878369476 -1.9288755301584073 0.20008710466601023 -1.1130968929822247
P 0.7726791822307427 6.0199284457051725 4.313268873134639 0.5591115792325985 -0.07090382609941338 0.7232744591981738
Ni 1.089217275767448 6.45198377104875 10.398866482182571 0.5680819010520087 -0.4243826882574239 -0.0763260255562492
Ni 8.377166452941903 8.709440799859888 8.192967262445539 -1.060250952825787 1.1031084143109455 1.9068864274818254
Ni 6.382856394498081 4.671907715359548 3.7072313023961483 0.9188839877088045 -0.6860510560703411 -1.7266227852996456
Ni 4.701067369128654 2.3571273444140775 8.955058779118941 -0.2016153683850786 0.6138387955721493 0.6265762977434757
Ni 0.6517210283100898 5.967529599178905 12.507126971302535 0.16722789204414426 -0.9827471049113525 2.305054405017095
Ni 4.641669099069573 3.6384091707979627 12.910651576585755 0.07300107494807427 0.5593123823894948 1.5053544185703298
Ni 7.778323810056246 6.197376281829506 0.5176539408559819 0.9615560726560343 0.7253997330712926 -0.6249657587232462
Ni 0.814481141297783 2.600548666643466 6.110041182191637 1.1093808775832183 0.003680019954748501 0.17985457966921928
Ni 3.686381504418105 6.927501919989356 4.741750711496708 -0.07130080442751592 -0.09868948085311391 -0.15403504750295408
Ni 3.5641728606014715 0.5161553817992205 7.599643927839708 2.3948062170609465 1.1451073844505504 -0.6441994101418776
Ni 6.66663275938832 9.14341428079612 3.877903807203542 -0.6089822388107964 -0.29901184145838183 0.5807777513521223
Ni 4.25023625154159 3.654141735418486 4.272898153240579 0.29789881089986114 0.18426710691461812 0.308095806037521
Ni 8.4932978634145 7.784806807083344 6.040706312848491 0.9462248416156027 -1.2064202244274191 1.11980155869591
Ni 2.328318122916706 4.364458728323421 4.76377722415563 -2.8156410400661125 1.5062584184418382 1.0476162947809118
Ni 7.343474248440676 1.1507642489663774 10.341489653017288 0.2649295550626921 0.46992952364928753 -0.12732051432624525
Ni 5.265005113369129 1.124574047605131 11.316755575918405 -0.10536380754949595 -0.5332660789244043 0.3339122528799927
Ni 2.2109786432968113 3.6036149349754334 2.4236089573131485 0.0053993166387003785 0.13819885180164587 -0.4830668323621939
Ni 9.150930130834647 1.6979181317711243 8.834676994066273 -0.636032300950053 0.3336356021798383 0.34846109722844504
Ni 8.87098085522783 4.06008063461592 4.742384256156398 -1.6574004606677133 0.02737453535821092 -0.33460542229227536
Ni 6.780569357211631 1.7677463728652645 7.988903173092745 0.8883953322016442 -1.6673927959937347 -0.3224893557550317
Ni 4.402010312810392 9.198127824696218 5.046706096262383 -0.1757261593231425 -0.11979695225569047 0.8323874493774568
Ni 5.446612027244843 6.988532466682571 2.282603310878688 0.6265516151531274 0.7629797482075956 -0.19094220494194858
Ni 3.092620129472605 4.306416077841842 9.764687355643384 1.0930188912854273 1.073941820049318 -0.8170292217538316
Ni 3.4061002403433283 0.06055008560486223 10.554475010256303 -0.22905598109453454 0.14953176031596183 -1.422896311974414
Ni 7.647981448774606 5.758044875896483 11.34370935075596 0.5680896143614926 1.1312437390945806 -1.4395593744523916
P 8.885496128799169 8.556578554168329 0.7463183756845725 -0.12571588884328674 0.468910852576786 -0.11601357395385826
Ni 6.850047166034035 8.695672500341457 13.148742639524015 0.16658871579824858 -0.18822686289331456 -0.4144006373440476
P 3.1855492347955914 0.7363845429710744 12.514252734891208 0.27402560382668933 -1.1643870586157687 2.8327419614124567
Ni 0.6842512872191734 7.2080598411207655 8.382021784285811 0.5603138270708157 -1.1770793093714567 -2.0196082180582895
P 6.70752267235866 4.5066788992365 12.680727429959294 -0.12116503624781069 -1.3101369832917953 0.6308330161373006
P 1.6035596316555345 0.6671133047509549 7.813224097750485 -3.327660036686282 -0.9528060943775463 -0.4686925659183928
P 6.722840251394234 2.6088944878518916 2.8642111413263054 1.420963356617759 1.6438396912641433 -1.1109711048884738
Ni 3.1733763243037445 1.5372726008862951 3.40115545655111 -0.03405014760617362 -0.6149055462737668 -0.7569232576008706
