# total energy = -381180.3196238091 ev
CRYSTAL
PRIMVEC
9.11009560288817 0.00000000000000 0.00000000000000
0.00000000000000 9.11009560288817 0.00000000000000
0.00000000000000 0.00000000000000 13.33354577740506
PRIMCOORD
 96 1
Ni 2.4342722422090004 6.174157855345984 0.7268526326262957 0.019901109799301212 0.23447946610295103 0.4990475240611663
Ni 6.513946206243462 1.3617953313544073 6.648092366009813 0.6901149417270696 -1.655264388161317 -1.4077419728314788
Ni 5.212824112515126 5.138713483673071 11.784934636017958 2.371133298924039 0.27010030063035423 -0.49595577250972
Ni 5.748269989613073 7.636847497017019 6.335887562992848 1.3018397762800094 0.6775008525074848 -1.5325379209636574
Ni 2.8336223990523113 7.520602675379082 8.17663706776363 0.0015246641746425355 0.7740231505059508 1.088009610996294
Ni 8.554425450010338 7.721598717682986 6.0486963498482424 -0.5680497622624927 -0.7179779866859247 0.63964135845755
Ni 5.680044482618831 2.769496435140913 12.576120942738516 -1.8132453076858968 0.20164982116743982 0.8317534153378836
Ni 4.801694601880447 2.819392429506977 3.895661873217987 0.39455274938018503 -0.45091801554379113 -0.5227636367311835
Ni 5.439182661358216 0.5330863623013774 2.532294139338916 1.4134822177493656 -0.4907778278532064 0.12924678481468063
Ni 3.065146372179784 2.6823856996783766 8.327852813917364 -0.3723996103219135 -0.27601435212194403 -0.37191367182443047
Ni 6.650943825976324 4.62133292642685 3.061195323657498 -0.1735206670313915 -0.020398361150693902 1.1105468728668615
Ni 0.41023763226176696 2.2019830210393967 8.495015782663357 0.09108981412898506 0.8831369120161823 0.3996764437599955
Ni 3.2937186742876103 0.9240916714471686 10.046893261625566 -0.44456559096320214 -0.43490801326878 -1.384796676889215
Ni 3.8448156958662767 0.4427880043395375 6.922510313917855 0.6413413718677923 -0.44935144238761965 0.05242247946577424
Ni 1.2436373896111428 5.494790685753042 2.647548693569954 1.0421167051189213 -0.5338535759967581 0.5129759612168004
Ni 4.508850574329387 5.170680809623503 4.706115121418332 1.4521480097506796 0.61545987611534 0.6908831873516617
Ni 2.309436600288572 3.0080807324666146 3.5713770832502463 -2.800688275411022 -0.9117478908846556 -2.2776209913964904
Ni 1.6421403075506664 8.370401516069402 6.213898825991061 -1.3435942345089764 1.0918377264931325 0.8729574003800191
Ni 1.0121862972495872 1.1157771959051508 11.158857882463675 -0.5020737124819998 -0.09453946324048235 -0.5571760527727824
Ni 3.689670765420032 4.6570262815348 2.488826228526748 -0.008100774730263468 -0.43397830236565904 -0.7166584965435527
Ni 7.004042026749429 0.960322522203758 0.05486281856332209 1.3447383754157485 0.21048233185740522 0.8397472321766376
Ni 2.287116865726429 1.2889510058201636 0.2576653928523995 -0.36346322706423206 -0.33722743329615473 -1.1718075194495563
Ni 6.545057183194367 5.609587002168376 0.8632098126286597 0.6609899993366551 -0.5506567635970259 -1.9075027209095858
Ni 7.042003795696552 2.745782855930603 10.52474146941915 -0.6055796408871505 -0.5369275869363914 0.6883951308224854
P 4.994691980124939 3.874031772903335 8.367493573509305 -0.21460278178368203 -0.16303596544998372 0.026740244208321686
Ni 5.561695228865034 0.8492996074437875 11.156364449259733 -0.040386888457478835 -0.39878761339713903 -0.6379338888481401
P 2.998168948301875 3.6578127606184743 5.237670076625874 0.9272452151893064 1.151326882997701 3.3905692746159923
Ni 2.8717572598184873 0.6321304121732817 4.355429273997085 0.8228018625715506 0.6137611482566784 -0.5795150825896148
P -0.23137001250947284 2.251177538033508 3.184597036508505 0.15226021499071843 0.7137503217578224 -0.594571462702105
P 7.940459657732345 0.768112256231172 11.524623671362765 0.34752907233247887 0.42453618311615277 0.8464704098330842
P 6.894957740362856 5.881031414826996 4.964199578674755 -0.5502965520441296 0.040958444690232694 0.06855435203063032
Ni 8.29881438374723 0.31492781063354547 2.129913964652597 -1.5602595552486418 -0.5200783765895366 -0.14240903322825152
Ni 8.82371076997866 4.0242299213629495 1.9706184745873676 -1.1648722257823034 -0.5384849041211823 -2.302532667036506
Ni 2.3504411412127384 4.395566533806836 9.81039608723382 -0.472241973832548 0.24214623861958942 -1.0357784216057195
Ni 0.5597215492153931 4.896257395658017 13.01150061722257 1.0036558300395617 -0.405741676117469 0.23307178712214696
Ni 5.28199706946629 1.5191175746824286 8.561069442833265 0.27806017890737916 0.14392932652751986 1.5515903096094181
Ni 0.37732012332568854 8.95060529353625 13.144036112062153 -0.3081927366267015 0.9160557742313901 -0.17983606772645802
Ni 7.533229268074237 3.8852280805673653 12.996847028225345 0.032913205788253 0.005684194868970855 0.28775709448016895
Ni 7.1956455603457545 1.326265957969771 4.28729486796024 -2.7940016074194656 0.9506805633941111 -0.3898741129575931
Ni 1.1401649222001946 6.097979234771029 7.392531127451929 -0.19647367628313905 1.4621071778459207 0.776754947614817
Ni 2.0187881058107684 1.7659829490354726 6.168565167571414 -0.5481975034232558 0.8565766450291507 0.31477321805769665
Ni 0.9558585752913293 7.617515873857481 1.9409241175239775 1.5112903244387907 1.5306180782331251 0.24787337091135378
Ni 3.5891499690287305 4.311589671278739 13.260664468730727 1.1735137035073855 -1.1036761138889573 0.8507325275435478
Ni 0.10542476092795527 0.6729135777709742 4.553032716647544 2.2257970647466636 -1.7338344725567365 1.0535575999660114
Ni 1.7211886082836119 8.036589387977136 10.381485213913148 0.860136337355951 0.708914848042392 0.46305182269284767
Ni 8.229021940285769 6.655298451739876 2.662589461636116 -1.4849730267005006 -1.2067459831979541 0.6793942128754556
Ni 7.265028049498931 3.055954285578477 7.973580321803418 0.13870510201410305 1.4870005986534904 0.3677274016572248
Ni 2.063372914360617 3.1390747991070467 11.680733360947839 1.0809262217869513 0.3284499442138408 1.3953633966614678
Ni 6.557875087900055 4.854150533149353 9.66423371118687 -0.30629937625873055 -1.6477793926381814 -0.6372697729015799
Ni 0.273570709004255 8.232939281453818 8.54613617389683 0.3771085857618086 -0.1768924117171018 -1.2302792904332036
Ni 8.415277847682919 7.033021241297257 0.3239941779136455 -0.1584383187769723 -1.171291499045086 -0.10252248144595891
Ni 8.81515639007913 2.4572843440473573 6.04538938509475 -1.0627549501945632 -0.4833920769120965 -0.24555115053608034
Ni 3.2792336220615663 8.42094432723298 1.588585698735558 0.1318942497398567 -0.04195449005491485 1.6728432775853448
Ni 4.121698835681468 7.9071349275167035 10.687036914011447 1.1837775473272387 -0.3317029039334997 0.6129779902337507
Ni 3.6174368163003443 1.8580495765803786 1.9536445442052512 0.7247482155302227 0.8174963911982372 0.43394693490709135
Ni 2.6368078906929058 8.243543432894771 12.731216678667767 0.9316045205992665 0.32108759031149864 -1.047356613361622
P 6.545858871619457 8.059328186943302 1.1217725499114146 -0.3508679068977248 0.2539476021298917 1.0690541529397137
Ni 8.006963356631791 5.543894101789757 11.492223615864699 -1.661029058559236 0.6037706127028699 0.0688878241106491
P 7.381737486019592 8.727316846957422 7.577627319661422 -0.35104145636111156 -0.5642157332283831 0.20344162296053994
Ni 4.196510941895476 5.870190400896812 9.426323560945901 0.5332323974729914 -0.5668814529860045 -0.4577188405157085
P 3.626310049550764 1.6522889542046368 11.970163835625252 0.8511719290738116 0.23125041764269208 0.39526777316933864
P 1.1243862363791204 6.876910640702609 12.242741544193883 -1.072265975008792 -0.34868889696853494 -0.32826071102117016
P 1.4939008296750764 8.178788872377337 4.075772110029169 0.041141507235316246 -1.8140459492103211 -1.2587216049342966
Ni 3.2896373513962467 6.698270773343806 3.386733662799014 -2.527435802304931 0.2803106655044527 -0.797829251786613
Ni 4.633640665771118 6.888790205547114 -0.064791000900393 -0.02293655419151534 0.5450846688258871 0.8812224686022888
Ni 4.481101222706413 3.2655866986435704 10.416072603398305 -0.0963664891468921 -0.18420462910779892 0.22810930091054907
Ni 6.5905803316054 7.977865710839349 12.356423695900258 -0.7081484021900126 -0.6359348561402403 -1.5769177326306132
Ni 7.734371071909975 6.348096913303128 8.283825543226783 0.8474469148137406 1.2903649428711907 0.5827163631357319
Ni 4.744938705422425 0.5337896616924784 0.28740712241363586 -0.46159580697261143 -0.06179029383391938 -1.4738815447730294
Ni 4.673388013483211 8.133812329710684 4.13661297341685 0.9260586510803729 0.42591429441060197 0.3638437503321024
Ni 6.844660901784247 3.5414403976401814 5.307871563386046 -1.2127713634564274 -0.03756381718638692 -0.13340811528122187
Ni 7.8416333391486175 0.7632219568381277 9.454257847512391 -0.9273673425894674 0.8566103264805635 -1.7657171801979463
Ni 6.805041095412508 2.5272407692321317 1.9078435378741592 0.9355138829560018 -1.3632235787041296 0.18409895676787003
Ni 1.9361322071649214 5.658499106194558 5.1940290739946535 -1.0886217906589961 -0.4650832513005796 -1.311230216355974
Ni 8.897803178629237 4.359645426305395 4.167906152282549 0.6536006488511195 -0.47232939134003166 0.37744617160688543
Ni 3.4726773949973007 7.3143865482163575 5.8786008412836575 1.2363650916159676 -1.584886866879019 0.11665275019975394
Ni 0.6611661093146951 6.065365092023081 10.145162042350027 0.3948288858597071 -1.204880904964757 -1.076336802644056
Ni 5.6567955182912435 6.683776611022022 2.570374339530654 -1.032680499406686 1.3725134886464878 0.937297714329302
Ni 3.4113573405737148 5.060366660312077 7.002178101161097 0.6571392581319973 -0.10698051721731251 1.1637545672380925
Ni 0.06081899915790546 3.5186833784825353 10.646023262991541 -0.007421489275051735 0.8221889115779002 -0.5436258248921735
Ni 1.2624406272177813 3.8970894252203903 6.881229737092777 1.1670535497043386 -0.7133690271590036 -0.4282306012486044
Ni 7.039844703006255 7.9531773513848965 4.2857088002919665 0.2272911758846279 0.46978502765162317 -0.8510207482079278
Ni 3.084113591509736 5.86581755494178 11.682825949939236 -1.8107667642384169 0.5220303581095848 -1.239581027450104
Ni 5.940556780389872 5.4565829442209495 7.165420995710317 -0.5558084830012944 -1.092680276999086 -0.8542335987182709
Ni 0.15586553901925107 2.390489122084241 13.161609486743936 -0.2420104843726735 -0.6165916757269381 -0.1452956107474272
Ni 8.37250594818526 4.956420467922668 6.2481928703934 0.12579430748970594 1.2274112248567894 1.7137281887251647
Ni 5.250940753089822 7.931568204290446 8.449054438647247 0.5252074702859858 0.15774874890911542 1.865786572117722
Ni 1.4221588257253304 0.8211311914167888 2.4410793057456672 0.31015680233160775 0.7123824948760183 -0.3067238653906589
P 5.344966051218753 3.8791243164217994 1.4054090036984093 -0.9800528459086412 -0.023295994413463108 -1.2724273845561636
Ni 1.8672872136603842 3.374097048998545 1.1638056206445873 -0.3914985359348935 0.7639387696867553 0.33701994527103896
P 1.7902158037029423 0.6756420514449994 8.172850000964658 1.4866797249789623 -0.8753868357571183 -0.03508527373890732
Ni 4.722910493923951 2.8429602471854527 6.381915410707858 -0.5627077812242889 0.6821985150934702 0.08088073480646717
P 6.328938381962644 6.789736134569896 10.275817213428946 -1.0097233763898803 1.4817699463821705 0.692031184913176
P 4.982684873940079 0.912230326794144 4.963785980328175 1.0961844334976025 0.6634166065002768 0.7873049552165214
P 0.016250588780388223 4.567109636584451 8.502935188889834 -0.601109778041255 -0.5585598204941864 1.1881355671856182
Ni 8.258201576939868 7.848201718176907 10.638542963379713 0.18769335898734774 0.07214438337473382 0.46241855998422293
