# total energy = -340857.79868645343 ev
CRYSTAL
PRIMVEC
9.41361548321679 0.00000000000000 0.00000000000000
0.00000000000000 9.41361548321679 0.00000000000000
0.00000000000000 0.00000000000000 13.77777780252329
PRIMCOORD
 96 1
Ni 5.058321502908569 5.387148501812616 12.420611250106367 -0.09381312659741907 0.21440043596488884 -0.2009527951004152
Ni 3.4875750539053834 7.439787335829029 13.035389995296203 -0.9023340537699235 -1.3630274035329235 -2.321538775825363
Ni 0.5751031804398741 8.344285156180478 0.7183812306365264 0.35550206323562644 0.7811906147886676 -0.0352523954443909
Ni 3.2390932622855844 9.302412343362429 7.112295187586133 -0.10732607348218934 -0.7040153538582457 1.2383209297907578
Ni 5.082175604286224 4.36652432211044 1.5381508643819286 -0.4289003736221194 0.08515956468747914 0.15794800940411508
Ni 5.74039441901723 7.880005645546726 13.396670433229241 1.6087521035323906 0.48951207376690536 -1.6354182999696674
Ni 8.46375334899177 2.5800931174778845 4.378425956037736 0.9346718466706806 -1.2487701501485395 -0.6735076721876917
Ni 5.5299624607709434 1.383660256903933 10.467900767453104 2.2557969535428635 2.628617453452279 -2.180766763979902
Ni 7.164326122524796 3.5760442112641835 2.2623798328936715 2.0926424602371445 0.05780276994108109 -1.2552159057738834
Ni 0.5004758031385739 9.041626956438527 8.624310090221842 0.9440275768539678 -0.8028968961175076 0.12470827351437876
Ni 8.230992295059691 1.8584547759192311 10.665460548026223 0.8762898071873618 0.042258651558894966 3.0846542782798747
Ni 0.16622467905149474 6.993017149805554 4.66843497055311 0.17431308102569978 1.4907338404436778 -2.2316959467296016
Ni 0.6512056712715132 6.097424609605354 7.108024230287379 -0.7009320869472315 0.6115461428832306 2.109192137065709
Ni 9.066996649892664 6.808764455936243 12.929204413788726 -0.12250200989167935 0.9941715446982103 -1.2535444316087314
Ni 1.388376478210249 5.445089304488017 13.559082598051079 2.101535648961716 -1.1436379989938756 -0.2710387532842235
Ni 1.4698419057249383 4.912984695027903 9.182792591343489 -0.12905292363631968 1.5307944559099895 0.31836864871843884
Ni 3.973675324994306 3.587302895260898 10.54670967270703 -0.19876581475142543 0.5630512806066367 0.49284088102982215
Ni 3.5143285488206537 2.2052523665872648 0.41773388937810296 -1.1441936143870295 1.334348290430676 0.7063918245102222
Ni 0.052765196938448986 4.537362614060588 3.5343993181763356 -0.22482085996726442 0.08710666111152095 -1.148997463533576
Ni 1.4170785915095658 0.5103685715433794 5.028475635340356 -0.848631422040145 -0.4470076247457915 -0.6390988556905186
Ni 7.242496784655832 5.606890525671571 12.723088598195027 0.49493735854753473 -0.4941950810648714 -0.16923412384089564
Ni 3.7308040481421005 6.777445357560766 7.675847861952454 -2.523179341021422 0.6819462898733482 -2.311925163994999
Ni 5.984065853176894 1.007623976859816 5.076587682195548 -0.7178108649804412 0.20328067190264346 -0.3511867236897242
Ni 1.7960519195528253 6.063441458076809 3.1210521735661834 -0.05759451058501693 0.552938360542351 -0.7583263085959844
P 5.398633112578496 4.360603158035245 8.0261068389964 -0.7270524381833671 -0.24300190175166536 -0.3202779499260097
P 3.401534609315106 1.6013595262250224 6.060623962993016 0.38964142812149666 1.744298605312854 -1.301027050570727
P 0.39837008253759965 2.7355495618940595 12.127682132099538 -0.06777813598623811 -0.6321733322152789 -0.4486292195096145
P 3.040287119035905 5.2032158708662894 12.172900433586342 -0.11493062530232465 -1.0418991897914767 -0.5580178319477874
P 9.387003091183898 9.031817969210621 6.538877985661151 0.36242167317359514 -1.0957920831551904 -1.3169930869816804
P 8.403026116163337 8.694198653539909 10.399259508173133 0.1246023440641338 2.3192008717208057 -2.8178267348635213
P 2.1968177672051103 7.351788859239323 9.18005040518275 -1.133295479417287 -2.3011635546031206 -3.380354795976836
P 5.683602077418417 3.3655651849409867 3.734701284910194 -0.7237614261369212 -0.816196184329575 0.2784011071865657
Ni 6.761978787488357 1.1680225693514723 2.7487634538055885 -0.07697857153858356 0.018175642467762244 0.08045238901979694
Ni 3.011161393044404 9.022404353828753 0.84132210616219 0.3880056922902866 0.2618552870127426 1.3108031561208846
Ni 3.115144188552523 4.317328768124796 7.666892689639683 1.0401688373639313 -0.48339104847083203 -0.4232367475784388
Ni 1.6700506776665165 3.034911944652858 4.702933988204581 0.06705719865981354 -0.39037959183910187 0.4625741117254808
Ni 4.030109949208608 6.228311517874853 9.813677091090163 -1.1290133071021653 -0.025877124877078016 2.2121121110604034
Ni 1.9434691364328853 0.7851774213016502 12.979066451743408 -0.2217856726853664 0.6075925575521214 -1.7156680860603548
Ni 9.287463522136022 5.77864193831376 1.308294852156694 -1.6350418904668553 0.23121982151507275 1.8018653479837288
Ni 8.663001932164397 3.786796232433454 13.718423100173814 -0.6325240306864784 1.0333315027271237 -0.2627500309128701
Ni 7.230089639582529 1.040477494542537 8.983262541070944 0.4550351230359583 -1.1969981597825707 -0.03908873847134558
Ni 2.1037924200014864 1.0556804833842544 2.9334265813055485 0.1983446680536068 1.5136408269488384 -1.3358511002284477
Ni 1.0429532753879682 1.1893444081914046 10.219432154894838 -0.012815920817745671 0.2003529567328872 1.5505024758618782
Ni 4.050622217125699 5.405448570114968 3.819158359393241 2.3372392172797554 -1.467550717458995 -1.775696402897845
Ni 3.3645955825566545 1.2720712601672644 9.803605463993101 -0.4154501616544845 1.0612035465470433 -0.22869962619638035
Ni 8.19804464122315 9.483181999540449 4.563586122429859 0.49062150478100025 -0.53719266767232 -0.0912322532441203
Ni 2.5012164341932084 8.694433993924456 10.545758897553458 0.470640433673383 1.6295117046772454 2.4154606600865045
Ni 3.79095705043224 0.011173020096739653 4.560761096453761 0.10422326618714953 0.2562227713173136 1.037283031175704
Ni 0.018774514517598418 3.015708169273846 9.050745925658944 -1.1490442576111115 0.5022102380598641 -1.7949369962950121
Ni 6.816888406010795 0.8973001700304707 12.477306631466748 0.006459639582414682 0.19443916235161351 0.47888441884973004
Ni 2.0693856557807573 5.418241673418928 5.51636072790568 1.1041448259952598 -1.5818048855195854 -0.6482373276566771
Ni 5.83551900245101 8.475510954603724 1.953675378229907 0.5770496517682578 0.1387182146402256 -0.13921520888130218
Ni 3.3128960068794333 3.5326474443537697 2.990411902019689 -0.6903748802566756 -3.7461307303346456 0.20999407936707704
Ni 7.036931665561971 5.011441698306865 4.214319340447162 0.33986487091900175 1.2422382625672928 0.3814043849236851
Ni 5.652603041965924 1.6332528551387926 7.56223682063176 -3.0037576026338075 1.5002312384111518 -0.7170117661179135
Ni 5.516020896390395 7.414925977605515 3.9826041391840086 1.7436146918719517 -0.5693952205467936 1.4948758876365094
P 2.055924185784686 2.8314366481737716 9.134487565372968 2.401709371938683 0.38383124919762285 -0.4284064647048364
P 7.2474389327313125 3.3134325829561995 9.312179910682655 -1.0309825428789727 -0.19170967923559243 0.8346693034330981
P 5.523476479772835 7.570307113098636 10.923849228473902 0.23637128380902514 -1.3386664581900558 0.07285580761946163
P 4.474705590078872 1.9885791813427987 12.207551951807002 -0.7297886061676077 1.981509611414355 0.9458373763691968
P 8.737049430758175 2.5892996333213514 6.810741315166435 0.5328775852367339 0.19740390140689232 -0.1127601000135671
P 1.5031849314075163 8.091473101485018 12.555399160590113 -0.3030443596565426 0.8498958905748654 -0.1556990654689383
P 2.9631801954430204 5.000550145310044 1.6364553670917044 -0.9985761015238093 1.035441349981275 -2.0012934789095014
P 6.22079003918474 3.753679133520041 13.686044970067877 1.418977436535982 0.21615829919625998 -0.03690767165962676
Ni 6.917792949289043 3.2247751532897624 5.833828317128427 -1.7451820363590718 0.3620763740190345 1.6707725110992453
Ni 1.9334530496665772 7.773123456500992 5.889572923335237 0.595293171359478 0.7110820308970399 0.7753477828546452
Ni 9.343060334581336 4.762272712764189 11.026727806897727 -0.636363973257859 -0.9556988425443088 0.9747702573534631
Ni 5.866885168903395 6.599471545151162 8.1830355728583 1.7822128638601242 1.5622501033161096 1.1774523764401592
Ni 4.590229478045162 9.416251194175365 11.735883694460021 -1.5732729367891742 -3.4920399177586696 1.449639384396213
Ni 9.360522591114703 1.5990531904564644 0.21130271766910996 -0.25277312220581627 -1.2384708251050607 0.3879912941125834
Ni 4.540836238136498 6.670365482592013 1.0661088865042883 -0.151941398198719 -1.5190663688397839 1.5453885516740806
Ni 3.4884505201358973 7.85221665293945 2.9579509320983925 1.2263416459416945 -0.9206845312526531 -1.1722726320114327
Ni 1.7000236290423856 6.437086679813931 11.149376860346552 -0.897786543608557 -0.048374277538329596 -0.16962724551425626
Ni 7.877671068932022 7.041431373714503 6.077846172334144 -1.6222478240259801 0.45395063172252786 1.1948186356327488
Ni 7.743696494817271 8.027178108426858 8.528775073157412 -0.032685148937846936 -0.03895632665853936 -1.6265834752868567
Ni 7.52775757157259 0.7097762448159605 6.826392392100329 1.6920252498304342 -0.46952611756328166 -1.5918324449589165
Ni 8.119215026015384 5.136303892731968 8.520356476921407 0.32352062523302344 0.5567250812782928 -0.2678243601119839
Ni 5.5767669564495925 5.697750741337366 6.248635513484307 -0.6813431090717105 -1.287450597437873 -2.659846843780206
Ni 6.72481383396074 3.330772462489601 11.664693228134642 -0.7783588017668273 0.5071524125564879 -0.06484939237521734
Ni 8.338373405720663 7.972033149519872 2.283405142849075 -0.9634023818361537 -0.32780485443067414 0.8865618785373313
Ni 1.06644024576573 3.3644543783259264 1.6891556100840184 0.4836540723242316 0.15524989374666165 -0.4222566430533567
Ni 5.211942292325282 0.7894756780850114 0.4303340135667339 0.756512138205381 -0.4908727015598578 -0.05189951708276868
Ni 4.222157116614106 3.4985513294406423 5.298106996638599 -0.2204373861875881 -0.3929182991005556 1.2999219904320063
Ni 4.7738891141454145 9.109226128495726 8.859771910406979 1.1493664168372206 -1.6742586698756328 0.3280874186680995
Ni 8.900460380172028 -0.0794396174845114 12.150553452031325 2.119574765851614 0.552784608573306 2.7219564686267574
Ni 6.0729680368432595 5.31879624052487 10.016141365277235 1.467096403530396 -1.858265838260645 1.4386507465951934
Ni 8.061688422416786 6.746653421646674 10.46080478417825 -0.6492503423022239 -2.1706461306061327 1.065190299108933
Ni 1.350439608221319 1.6219000349882593 6.951701733256071 -0.36369282657653496 1.0629498398141886 2.0370384977195948
P 1.5671410343119307 8.418567995158801 2.678895600441361 -3.127358759126937 -0.5383900304145308 -0.054917992194118324
P 8.935507270238725 1.8814616519125178 2.3066897204961263 -0.4042926023757682 0.5052986471772006 0.9123238179927836
P 9.205998094621332 5.108938512816877 5.47640463741734 -1.2278100029571046 -0.6293677444456838 1.052597292935271
P 6.671259776053291 6.021211979473747 2.2431327548839035 0.15341438319981968 1.05574200921184 0.22535204988038607
P 6.085742312916455 8.519387815898613 7.07925622168039 -0.9195802424448808 -0.23265501129970256 -0.1962278788209201
P 7.675852568760145 8.853053413108938 0.295516920875305 -0.06357026855247762 -0.025189354781434036 0.16630255201639746
P 3.601969308025849 6.8709131446873375 4.956927451630465 0.17564542668387814 3.119687615734924 3.080224781753611
P 4.286640381979905 0.6981805533885749 2.5053923139766052 0.7550052146425513 0.10101632921407763 -0.42513319327020327
