# total energy = -340868.7663285997 ev
CRYSTAL
PRIMVEC
9.22731812009682 0.00000000000000 0.00000000000000

0.00000000000000 9.22731812009682 0.00000000000000

0.00000000000000 0.00000000000000 13.50511278036882

PRIMCOORD
 96 1
Ni 2.366871662455895 6.131589731229917 3.921708889311184 -0.7414817262348198 1.135803333440805 0.38002550229828747
Ni 5.264581703082466 5.664244528330713 11.768503866327588 -0.4221609980157568 0.03515263664173301 0.1490491642525885
Ni 2.9699691680137064 5.68964733483011 13.057971731614828 -1.8371725079254553 -1.0574129691563596 -1.643640944989776
Ni 1.1314721898180822 4.930091424984689 10.922813710993632 -0.6878197179349896 0.6282408299300922 0.7997357247807065
Ni 7.802860025012686 7.145542798789978 3.3660822440210096 1.6586371612882915 1.2762341598967633 0.5039832707998869
Ni 1.1403580970679623 4.278882683288898 3.1695283747563434 -0.34697628515280243 -0.6570497837419845 -0.6028396162481682
Ni 0.6242474411834082 6.031925469333805 0.008073903264429074 -1.0732964731558354 -2.498829451422148 0.819657403405298
Ni 6.4399482447049925 2.8624340038495273 3.3586265710636853 0.421873291572009 1.1587599422369785 1.5835666054056985
Ni 4.00941731525333 1.8500034437621873 8.09867861330335 -2.0694907047110296 0.5083562030566019 0.47852497862778226
Ni 4.1505214623615005 3.299974969555467 3.7240080644170677 -0.9673212572745857 0.7435512071693388 -1.2008746120188416
Ni 2.4979364875621246 3.470255896231781 9.572046003927442 -0.5189946566070546 -0.5552770359778566 -0.25681258238251253
Ni 4.687532916285207 3.265713937760239 11.684096974771741 -0.17790285525948715 -0.011777195140586168 -1.4497257734624323
Ni 9.268564128024082 5.353154728722757 5.133252976680964 -0.7217490236925829 1.9421298240651519 -1.4624468205735266
Ni 0.6492756185713366 1.1183232616445835 11.520373903009748 0.9816034782252127 1.8041875683590025 -0.3124083173699458
Ni 8.88539974738932 3.498011668825384 9.446786084585387 0.31339125010850544 0.19063804343796845 -0.39196904781340886
Ni 4.505865479176545 7.050935107166902 0.2874383380680882 0.8901562807568089 0.888490977239244 0.29124248192560814
Ni 1.8481672074769058 0.5795456990525206 5.202871245651781 -1.2469503233309813 -2.6556271492719037 0.5263847784235386
Ni 6.423080707370848 -0.06630842999830144 1.4679112774809409 0.17125681069787926 1.729254823605854 -1.2732812479160265
Ni 8.136501389852945 4.251108456059262 7.003873017087396 -1.071305925088368 -0.19820017205594254 0.5851141739439472
Ni 7.889209267011003 1.3292320695475037 10.152873377452453 -1.3080114523083601 0.09197915871247385 1.2704082972436057
Ni 2.4805429931010403 8.663095201736034 10.55011310898957 -5.396862777843247 -1.9528544095715081 -0.6806540534244858
Ni 5.783968979594675 3.294244805067227 7.936441139742012 1.9136381443833625 0.7164096137575404 1.9396111714083566
Ni 8.232908408489235 8.746777748827585 11.972390685219958 -0.8864724041473185 -0.866568980355172 0.6587058312881687
Ni 5.937862189473702 5.3147598584561395 6.43599618439853 -1.034510096416257 -0.18616123861353748 -0.8704503176874492
P 3.6100589914996264 5.165111214864699 5.605729491129138 -0.5967705272359529 0.30391673495916693 -0.04604614362578521
P 0.3868405441325324 6.94322462396041 11.532056610350427 -0.2466909205674784 0.22870168307890934 -1.3452996472358574
P 6.660222780394651 1.7132361361217672 5.961089194384812 -0.6040994567971983 -0.11805425853297087 -0.30646958328800766
P 7.013010830119127 5.066738777490895 9.290275084585081 0.3558622747885226 0.7501710264787016 -0.940988790027644
P 0.47955663556222766 6.499095353190695 2.521147806032606 -0.00037923771628966944 -0.3666585940730782 0.0039875238928382935
P 0.4232755320524463 0.6056460907939653 3.6387504141401017 -0.13287486848557117 0.5280423686316197 -1.1138147449848559
P 6.1525172884913175 7.717719561674529 12.597231442951827 0.13743703393495685 0.4845565295338428 1.224529275323304
P 3.2685374970732846 4.9892938973784915 10.948716638129525 0.6390196657131512 0.24552955326952555 0.481715460540622
Ni 1.0812571251723417 8.162762336927877 13.172225306026814 1.2275534068616083 1.369854710867402 -0.9347901174160997
Ni 3.0751329114476467 2.75202914378222 0.6230626535500908 2.0115267266017356 -1.4548201572662043 5.429438912007056
Ni 7.697742418168828 1.4871391627637036 7.940047175622857 -1.1393493989208507 0.16473675019117434 -0.38860604487844685
Ni 3.9481756055778834 9.240882173974612 1.2520040314084877 -1.045875143720089 -0.14164824380282703 0.1935025094699571
Ni 1.5837860916684234 3.8359991004514096 5.632442576786879 1.3695055550580995 -0.9544343740095885 -0.3445051979044906
Ni 2.910148465312799 1.4845186044470202 3.049022369656384 -0.8709390843984097 -0.6920741223359694 -0.2722006348028086
Ni 1.241738640115142 1.2132170001261702 0.27740547518875824 0.5185881651972553 0.37827895192082595 0.1987421606023416
Ni 3.059741744996141 7.620186810240226 6.057218470748806 -0.6561385847816248 -0.9664393688902646 0.7557302657340339
Ni 3.8286541553102835 8.520293228112829 3.9125793808656684 -0.35007626423436483 -0.681802308096316 -0.31336862440068614
Ni 3.3953208466198626 1.2276577528219779 10.984667191853573 2.826951322872609 3.624400308501668 0.12647487849649833
Ni 9.467781924000109 8.807779548234603 9.895087948562159 1.2481235177034764 -0.40285381304671264 -0.5656961744286515
Ni 2.144410252396329 8.845943735550806 8.150051706360161 1.331972333999332 -0.4932288604968602 -0.6994161645233374
Ni 8.911697603736316 1.9237297147139454 6.081257479645367 -1.6290810448977298 0.7595362697436855 -3.27828174336347
Ni 5.721084807312294 7.508896127643336 2.6027994204287275 -1.4517461463265706 -1.6673020360521416 0.3745943039803871
Ni 8.302297839973244 7.601353854168569 1.0691333520304749 0.123193122421433 0.47625006655067653 -0.16744283626842774
Ni 7.024508068367673 2.2970762289791624 1.3097513557510894 0.6845816706136661 0.7386758813549085 -1.7802950780121212
Ni 4.169271372571009 0.5725467783370126 6.075045649156666 0.7178198638415058 -0.17538086016858181 0.43990726625558435
Ni 2.3958915776177574 2.967994521958177 12.266680306915292 -2.0911026265538504 1.2381908319707966 -4.128616778358284
Ni 0.11531563871568346 2.2577678542289132 2.1114161313647646 -0.2241487736009043 -0.027880528460351987 0.675877715081765
Ni 4.929740786900063 3.291098289623604 5.871429190682178 0.39014793544427 -1.385384431071885 -0.24307543530207812
Ni 6.831407984236579 3.5862801929711305 10.816622967064458 -0.3137887426572402 -2.044824569422917 -1.371738043933044
Ni 1.43411899344095 1.8926428803163893 7.267938558619715 2.5466447711332143 0.6763451416364867 2.1367664471395527
Ni 6.7692896793495665 5.918235684052627 0.10549131322352616 0.26914230759245905 0.084755387270525 2.644136889244117
Ni 1.357781391490525 8.648386856817748 1.9858184921833058 0.5074576025017326 -0.3994090490312218 0.8355974716743221
P 5.765182160113101 5.0414651534437285 2.060893797029075 1.0954161878730104 0.08317955814297287 0.574094940015308
P 8.333827585635591 0.5900666870549229 0.5882904283367485 0.974659957027844 -0.15266516373862093 0.24594710042291834
P 3.3646492415330487 7.3150947673429885 2.0989241882340397 -0.5105274996763078 -0.7977845145916066 1.0862471197792325
P 3.0149892526161626 2.191201982057952 5.311074467640354 0.9272321025631837 1.915302676569979 -0.5023043404355672
P 7.7011565258349295 8.536966991768626 8.866714428405926 -2.488925819155191 0.3245038150818992 -1.0736489713992479
P 8.401657600374811 3.4761613797623347 4.334898040039804 0.8025066026576244 0.23701843047472082 -0.5112600069669582
P 0.9246234018424175 4.194683406388424 7.6408550798653625 1.300908522714992 -1.9230468392917721 1.942499805810061
P 3.1287713110775055 -0.23017267972594735 12.539442595678151 0.3528715675913149 -0.13096171062325834 2.134052904863131
Ni 4.251025410197114 7.710079342356875 10.556933019735558 2.93615610143475 -1.8999817299421922 0.06878935085957186
Ni 4.814952950774923 5.536095535717694 9.444854806924537 -0.41961277767260635 -0.9242221120922665 -0.707941171275213
Ni 8.762944009992475 6.64102995892035 9.242386226811298 -0.752633114865949 -1.458384991799327 0.7516843777994344
Ni 2.207414379812925 6.37848507939715 9.278728018819248 0.46972075007259106 0.30908773763714514 -0.040257047747833896
Ni 5.906821491666228 6.984157006681562 7.9161834857686095 1.568537478986718 -0.4792837111706777 2.1227896732444864
Ni -0.014345711320237578 8.93548562958283 7.270706754024662 -0.4827284751861686 -0.2337392455028168 0.14344441647130135
Ni 8.173041569198247 8.966784692294764 4.980024133699125 0.01229835775137882 0.24150500549116474 -0.3302916254082699
Ni 5.886788984252428 0.5317472689952988 4.109335328394896 0.18334356665908422 0.0030932942133430597 0.43111100812019304
Ni 5.225328692240316 9.25407723873819 8.702492158739242 0.5029301469450241 -1.618370086238129 0.5751112970949643
Ni 7.779173499664355 6.763356513864964 6.551762116233418 0.4382342494285356 0.3770805607373506 -0.875238483104712
Ni 4.67742900305715 5.660535146488084 3.84328499075723 0.1461934399713482 0.6768621904822214 0.006870758977904296
Ni 3.19306726301641 4.921094789918611 1.8829237462496202 -0.2585035969316902 0.6170806995482147 0.5650744816842527
Ni 7.369674353410528 1.7450611559606424 12.538308558293924 0.2664827584824249 0.40943249470549486 -0.7066700178722733
Ni 0.6957840695698531 6.178030822806914 7.279255864166941 1.3903487170556958 1.4464902972442701 0.41413144284306097
Ni 9.12128690516288 3.5654541362079124 12.499238248348501 0.11632107789194807 -0.8864425793506476 0.5033024426827784
Ni 7.902505832272765 5.449755521037394 11.59833920385828 1.0660482762338543 1.1591371230707392 -0.7765405176111658
Ni 4.82153202852068 1.4827377320698376 13.113937260848445 0.19794897527708488 -0.2446576921875335 0.8382503359161371
Ni 5.83559582389694 0.2550255380715625 11.42371774678701 -0.24284197913503341 0.3650814793939454 -1.0164280421035656
Ni 4.744105603044309 4.362159228387724 0.25102365024781065 1.9785376732702251 -0.5202020466515944 0.24937669492975761
Ni 8.345334051202155 4.665599581360009 1.8063490022261712 -0.6318244335162924 0.2049583167153825 -0.3705725844155037
Ni 3.3786101736919987 4.365564108735809 7.557150387210572 -0.2757978652357637 0.21238366264517614 -0.17831911686129934
Ni 6.990569992703023 5.328231742760216 4.192108061930021 -0.5363832843971472 -2.040228208301486 0.5080260734106928
Ni 6.638824629914409 7.325207907889062 10.674400469012689 1.31590859566825 -0.5254509537553597 -3.309776214427326
Ni 6.376759570928066 8.739995670085465 6.719725140623988 0.580331150733007 1.8711200685154936 -2.002163797329597
P 5.435720770334313 1.8336895455090325 9.825185478196435 0.43851012879774154 1.665293747372861 0.5838350501212074
P 1.9085046399867363 1.3745382010084717 9.393156912273545 -0.7724362656348052 -0.3839199522566872 0.3322423213767375
P 5.762275554937907 7.480171486658001 4.923478206162271 0.6604572667616369 0.3825307852186444 -0.34623966409709406
P 1.380738958715553 4.001260366126752 0.5913197568415623 -0.9515807066108772 0.46917721886429525 1.1611546677214002
P 3.9287613284711878 7.3273671003049206 8.238280553038436 -1.910150185834762 0.5103866032230694 0.04759086240508578
P 5.0354304874609435 1.8373435634435624 1.9301104051223485 -1.458234839374708 -0.3543062431553124 0.6792715712546623
P 6.93273316337566 3.8897943644875483 12.938924565493274 -0.29009448436409396 -0.6175846357678266 0.47398235356242235
P 0.5405307530151959 7.620703540049149 5.669702486937467 0.8658279884240895 -0.5786499063758421 -0.8124842826956266
