# total energy = -340891.6899330754 ev
CRYSTAL
PRIMVEC
9.07475676863152 0.00000000000000 0.00000000000000

0.00000000000000 9.07475676863152 0.00000000000000

0.00000000000000 0.00000000000000 13.28182382136709

PRIMCOORD
 96 1
Ni 6.67751456316187 1.8374295237856988 11.703013217635483 -1.266504077093193 0.6667808949868194 -1.3997054756802476
Ni 4.381201814470273 0.2124926892588352 6.016533782861707 1.5297228201123654 0.5245068446745353 -0.23916864404850424
Ni 2.7381808046790583 1.55479622460453 4.802960209485333 0.0680586433411344 -0.12284010995738844 -0.6909312669807779
Ni 3.1554471950996503 4.172863548854564 4.603719387518013 0.6819604309407352 0.8996595922615538 -0.3572069617418751
Ni 5.047661025424335 4.8417910936463935 2.435301723174139 -0.11439352185193204 -0.1423936066092838 0.5114171013701128
Ni 7.149211344607945 6.080295746259898 2.506479577793741 1.1230118381030918 0.6145101106075611 0.041259520870419265
Ni 5.142655579151369 4.459698460413992 11.263929297020915 -0.4457156454072453 -0.4184118153859697 0.804455241743563
Ni 5.718457970108004 8.119602308850679 12.564817457481299 0.4357209960883786 -0.21366818578455457 -0.5214701147307407
Ni 1.751164886058417 6.485937373275415 0.2606560532682793 0.5808893372293221 0.9574718752843316 0.45941628282278946
Ni 2.2616471778817693 1.6375852304940726 0.37375837662723205 0.8608112519357884 -0.7567486796962193 0.5136503615760057
Ni 0.21142277543724391 9.134468655957017 5.140159113567656 1.6407793071712644 0.6995169517672598 -0.7590505883565185
Ni 8.452627732300689 2.428867720633781 1.6907233761574294 0.8456713109705564 0.49437300140363244 -1.2377776556927778
Ni 7.0559046956376195 0.44790639913323615 4.952340687929743 -2.497877886142156 0.5569271699867698 0.8894037188615005
Ni 0.8166818268254745 7.564635559406967 2.666419443200013 -0.017315351349995983 -0.5555403169415722 -0.18989807994815036
Ni 7.3606168780073515 3.8476605657286567 3.6472817692640724 0.859112781187443 0.13326464772482208 0.2950988795572208
Ni 7.730631009996851 3.773782970973996 12.653646621467967 0.4123293566373157 0.428555588688191 -0.6290221881808069
Ni 7.8954104431813645 8.728427739644214 7.1034645883227565 -0.023831555201958957 0.6155246679150044 0.3422804223390299
Ni 6.936744064668027 0.764527384794522 0.5253676153310382 -0.592167995466935 -0.3350682208613068 1.0542793086233841
Ni 1.8926221943787274 6.405190187656085 9.095552469082445 0.5119925142576086 0.09116720433413977 -0.3354181480015578
Ni 9.145267616497252 4.752105272621911 1.2527828748941807 -0.01791184728341431 1.1027952539459007 0.36120991225368115
Ni 6.465219703600327 1.934130131782955 7.060126272480743 -0.7392996309818365 -0.9131198315315177 -0.07835514017113603
Ni 3.1543219252618444 4.288240006256696 0.45190382948447405 1.0146442107302653 0.09736716249726458 -0.35152816618954297
Ni 6.076811039665402 5.591828814327813 4.8070774266257565 -1.0547889012699512 0.4338350919195754 0.084835348578841
Ni 5.44744943433191 2.4782162478756242 9.458159784607291 0.3153650860054246 0.4524838173690143 0.654217456499512
P 0.23958628303103932 5.739166565026334 12.237859416398685 -1.321835502675646 -0.776290863494205 0.20260987108786396
P 3.8674163111875557 6.070295364314235 12.608196609728717 0.6174064583187496 0.24782220595844415 -0.31055095244623293
P 2.3462329856090993 8.53803934289286 1.3044980986981187 -0.15740833485056116 0.3169555704209961 0.04224913847719821
P 6.2330783510123196 7.567457808758239 6.052394499136366 -0.4378280151290524 0.9077372270633658 -1.4068575133439962
P 4.794756629377457 1.1679484188317233 12.884909537601946 0.29489010598052434 -0.07551124296443769 -0.3779480509439685
P 3.99782056577845 6.2607472843628855 8.269263197278866 0.3820206783514453 0.575696480174473 0.19929314800980516
P 4.809212716890561 1.0448765677000802 3.937954395455824 -0.34287794671371274 0.0097989883682928 0.4877454687847858
P 0.04799275858242194 5.6426474521642085 3.5488896266074046 0.3836738976841521 -0.11980697955801946 -0.22985225174358478
Ni 1.299051429692868 1.0344950459706452 2.7299990039873983 0.6219835361664707 0.5922962935146832 0.7488787900298393
Ni 1.8384821955694528 6.391169688467293 4.8339459664304 -0.5510118329435995 0.5491418696143963 -0.21272896179973683
Ni 5.989811346640844 5.766381760539075 9.287062505768903 0.8931950675831327 -0.6924793281941881 -0.2125559265569823
Ni 9.004463690663409 2.332811420366237 10.143554383009464 -0.21975707229111183 0.20750550861726844 0.4392225814837339
Ni 2.6630236692217313 5.140060198719011 6.964536414710483 -0.6822417096265799 0.7061424275035775 -0.8913536434990198
Ni 0.9608170958646277 -0.1630633966818594 8.891185317023378 -2.030666789865296 0.6729155471296475 0.859490733352152
Ni 1.491781113687399 0.7328546687629882 11.368882488812533 -0.49656538106926096 1.1563683020763504 0.1586720320543332
Ni 3.9858418868598706 6.879418826237222 1.4302134264729298 -0.04874297373165799 1.1208922206569276 -0.081944143073975
Ni 5.893001841562509 7.912588957721418 8.202455745513193 -1.5088984271678465 0.6194790245770622 -0.15161821053134533
Ni 5.219854534878908 2.999297855590568 4.856592021916243 -0.1843144152127858 -0.4258109360635183 -0.018217808559607335
Ni 0.7718870125240429 7.440492886978057 6.987713343466582 0.1822675599860861 -1.3646520836205402 -0.2725474766192661
Ni 5.184263338879918 4.779193421540061 7.205588270957697 0.40644564416302903 -0.8174269714128825 -1.081533002133015
Ni 8.430766643274282 7.106696109203746 9.14960898012956 -0.7277345518520564 0.1950901656720511 -0.07388424888397598
Ni 4.892346563536851 0.10029239672147844 10.242849463963402 -0.23015949857135842 0.8666486845531719 -0.21478378744623655
Ni 8.199233299388961 6.996192796179855 4.957706591599861 -0.22166148840267633 0.9555959984178576 -0.8066913301629334
Ni 7.352113830926512 5.994784313343406 6.9470312089271955 -0.7638374682222007 -0.2989136253176207 1.3271743983900561
Ni 2.2956321419348593 5.350095443848186 2.6181798512338146 -0.690539687969314 -0.246908178784607 -0.6293258354641549
Ni 2.2703498696112523 5.385223827252594 11.226767260627376 0.018139132802871983 -0.18294324589687203 0.2593132373171792
Ni 0.7771558162968664 3.515433720873219 3.6973943910248126 0.3982890764941657 -0.14451939470303496 0.7270120718637351
Ni 3.9030982547541107 2.8461613353246427 2.6130262968717988 -1.514212126071276 -1.032722665498531 0.2642875506033191
Ni 1.362257110501885 3.675702999949752 8.181908681265128 -0.7738372597473898 -1.1794285263299236 0.3090774532244999
Ni 3.6464369094100424 2.923151571646782 7.130240565608483 0.9197453072678354 -1.3156733397289924 -0.5433013516732191
Ni 3.958898934049824 6.87841152823725 5.911102351389023 1.0182108450356013 0.21836867658401746 0.05587958477643925
Ni 0.7126007191581576 7.580289514811929 11.117895588868304 0.7948030633657795 -1.582491627173965 -0.22294935397616442
P 0.12447662347754893 5.412729414981543 7.944270748509709 0.6935332233799991 1.8561233379963453 0.40651737794122894
P 8.699842255861242 1.5963949095763221 8.054668794355225 0.2355729562774459 -0.3873310348207652 -0.7579828092136366
P 1.8581834924878127 3.3825520576878003 10.383809475613457 0.9965942952070901 0.08880487474955029 -0.19586792437834008
P 3.955777217725589 6.268424528578884 3.712787900910862 0.3317504693419835 -1.6083690091613592 0.7137325811460096
P 7.020758162719697 3.8777161601061825 10.261138728730453 -0.3624360713512984 0.1499603632129482 0.7852277609725187
P 6.751455681213827 7.957418256098525 10.32661763610697 -1.0994402214307388 -2.0667630213672212 0.9230116367239329
P 2.184520820208282 8.550208591703324 5.737123837280447 0.8506217129972964 -0.21846586428351408 -0.6221925668534832
P 6.9216255199117 4.163053736800788 1.3701394442205803 0.8444940028330037 0.04509972055211588 0.9568039026830294
Ni 5.293904550011943 3.051668276832325 0.6716908082241834 -0.2202206421910917 -0.745761070336464 -1.3665179331846853
Ni 1.6521774393585233 1.393628544609103 7.090090211815028 -0.7428888909949916 -0.4940256453665427 -0.8905285764945632
Ni 7.3772690566555275 0.6442687082573939 9.435965652007921 -0.537540537930042 0.7469941714126167 -0.3700264821040466
Ni 2.565134268089374 1.6730493798984716 9.243963763505262 1.3432304234116546 -0.24423500282781807 0.4883381080634622
Ni 6.445754350357636 1.8232729032455601 2.726612304765873 -0.9924638179784843 -0.10866716089111608 0.4520559858029763
Ni 4.248265702744316 6.808744620617606 10.514436061744885 -0.3036154016686642 0.11779483422399713 0.3189062663894637
Ni 8.23264655376639 7.276375911036769 0.22147579097209377 -0.5915571013558134 -0.8132494429964251 0.343468271999544
Ni 7.6823260797820065 3.699941675246362 8.089308048370459 0.28151445600456676 0.3631616366634132 0.520559172880697
Ni 3.39144531930917 8.629748834674041 12.209263042907605 -0.46263556109103554 -0.5749416042863196 1.3207828930414156
Ni 9.081290581363932 4.802851312404255 9.956838540317465 -0.17799541497329344 0.19538995630065706 2.1365802992706753
Ni 8.689124968131816 2.4760473810108206 6.005376369429592 0.07645638048652638 0.07467820554018105 -0.8515563089964238
Ni 3.491313017414444 2.4685697814434655 11.612750242081287 0.5013072666296206 0.13114348761676123 -0.09880646604695241
Ni 1.1997100674794705 3.542730589196769 12.50160996172093 -0.9323357423383362 -0.2604175261249515 -0.15036119819579266
Ni 2.9443048296461822 8.524499805812162 7.805648394200128 1.889537394680417 -0.8452931016955313 0.5366005426142759
Ni 5.606538995030098 7.824445845345541 3.6602976928799196 -0.22891277064845092 0.3758662287142753 0.5626627869189664
Ni 3.1201191670465986 8.18261741976781 3.570234361974367 -0.6533661642428102 1.5609293276221567 0.2822729314371461
Ni 3.734879488758884 4.17144788680055 9.14323396350812 -0.7578020606613981 0.7290841239014153 1.2625983142808836
Ni 7.0880928578529225 6.0032147623701935 11.471962650809607 1.3530062718514957 0.5647219834408403 -0.7775589315733511
Ni 0.1973351230484545 0.18581471934607868 0.8556633519486927 0.7294751886922469 0.20385197102508115 -1.257489018078776
Ni 4.509210333277452 0.46335345008414913 1.8979463541677655 -0.37113976977288343 -0.7038626303304653 -1.6456813724585724
Ni 5.911350999724152 5.812390777294527 0.20656324319413855 -0.2622278398608129 -0.4665912033046738 0.48297710086186496
Ni 8.12805090739098 8.976767533042572 11.755742091769122 -0.5123424413978596 -1.1358097611987086 -0.3094206954965316
Ni 0.08545153952189956 4.959699408183588 5.912948156913295 1.0028274206009955 -1.438402120919497 -1.478011764891319
Ni 7.84510906648009 8.769227846021435 2.9138327039335334 -0.03655954429158865 -0.4290117023890031 -1.3759119728050755
P 8.480559833597193 1.7142215513027088 3.7586898355365865 -0.360619844078166 -0.45310396745151643 0.4899033956680531
P 1.7092576593569035 3.3187928167166367 1.7205139876376652 0.42970050092591155 -0.9774619452530133 -0.12818491920906955
P 4.621310803490487 1.0966480549959086 8.097888230883727 -0.3912162288077843 -0.6246911649056209 -0.2899037085095265
P 8.813712303641795 1.7069708206542655 12.442094077009104 0.28424059668647816 1.330922809688895 1.5915298261168331
P 6.160825137717072 7.794381176211259 1.510396162222006 0.943304068424382 0.3022162073282924 -0.7724390938482826
P 1.8398161848126582 3.2432636162322934 5.913638745902465 -1.1262694258084411 0.21347072506176784 0.2766609845670074
P 6.862639600994455 3.869058842160482 5.932167584247885 0.5515826178454049 0.31053321183442 0.3592409614527684
P 2.6797756701942292 8.378986081221697 10.102726144886297 -0.35236686004075446 0.2618815122649877 0.5637562770934613
