# total energy = -381167.9242894686 ev
CRYSTAL
PRIMVEC
9.26602090907995 0.00000000000000 0.00000000000000
0.00000000000000 9.26602090907995 0.00000000000000
0.00000000000000 0.00000000000000 13.56175822418207
PRIMCOORD
 96 1
Ni 8.153700022754235 5.7795601274751585 11.37645733018404 2.1435968397978247 0.9557561781448055 -0.39385315220999917
Ni 5.514181286632161 6.26868557690181 4.824663307897718 0.3846190352062408 -0.42392040390902475 -0.9713432339497852
Ni 6.140629166969889 1.0544546553858727 7.100380454938309 -0.6353159916093187 -0.2439210711318251 -1.3359966246673767
Ni 1.0507482469942109 2.5248146624211145 4.741678677212602 0.2020966788968713 -0.773413799056726 -0.8078928066702021
Ni 5.420714933015426 6.9846432198981745 12.802706444348015 1.254743079902523 0.03403754920068331 0.7807524988099844
Ni 5.8964880462111156 3.976568499330213 5.492797163416468 -1.0261144161533942 -0.5963560654063536 0.12012965300476083
Ni 3.663645704843172 5.059164060429779 9.716524726538365 0.5253635362478759 0.7045411444547286 -0.09440010944914065
Ni 3.1834341675984676 8.563990165690235 12.32793684122437 -0.5243867741569034 -0.08436612225190632 2.170842305777339
Ni 7.7206062021885336 5.3761361060847115 3.2784470201166247 2.335851850013926 5.1970091293442815 0.4569174276603357
Ni 4.371838422259004 1.2577233576055944 0.8154987999670337 -2.248034021767993 -1.2411167473683398 -0.6298192301608057
Ni 4.905172057777204 5.676679496543602 7.231305624965377 -0.6474654824876591 -0.42403996020602447 -0.16342831579239595
Ni 2.2913109337464106 3.444791555336512 8.382916363521884 0.25994521447422325 0.5696006516893803 0.5929861204928562
Ni 7.117490162676319 3.504585188714999 3.2906114524580596 -0.04736537665784101 -6.14695667122711 0.6439844659175942
Ni 1.6269835596458975 1.0934275396241984 8.8004015717482 -0.9365127565341613 0.380192624003771 -1.115040132751525
Ni 3.061067094547748 4.006775727722259 3.185331848694999 -1.0377789969755158 -0.5087446967442721 0.0682555898432889
Ni 1.1872274699961838 7.275614810685598 11.210583508829895 0.1279334653198958 0.5287723048191088 0.8088693116508585
Ni 4.955616275987723 2.296852014291945 2.63468372637515 -1.5161641075913241 2.5560910041477785 1.539493269235568
Ni 7.249614355818089 4.187833777654946 9.959823565990135 0.3178084053395946 -1.041216047681523 -0.3055858951314738
Ni 1.3633189326840442 8.88456669350606 6.42714750807473 -0.5707149677994816 0.5450509873744742 -1.0635975007005167
Ni 8.112716411963433 3.0129393815820174 5.47968296392467 -0.06264132898030501 0.6173810043974528 0.22504377461134792
Ni 8.989105942192886 0.2910577647825293 1.5024259992357054 -0.06137274668052657 0.2651355004259111 -0.009172667638203558
Ni 3.831564537027418 6.870272722952465 3.243023021913315 0.44637101960305703 0.5390178938065169 0.06282619129760149
Ni 1.3909316752019258 6.6618984431732295 5.280311550128781 0.8012547325283943 -1.4405037406435321 0.8895343309020938
Ni 9.058063670319756 3.65961498571724 12.263342482376583 -1.0762110756994692 -1.526813873995687 -0.5754396269686607
P 8.632336336432482 7.334667162385752 7.314018761235802 0.4258479599490408 0.816996054523051 -0.8607696000645756
Ni 8.168646114593612 0.663963219476032 5.705784068439127 0.7957032065825457 -0.5362614141073023 -0.8985632738735815
P 7.97842396991254 2.1513106227723586 10.884396405311193 0.2517814477165083 -0.13505439263539323 0.5611630624449885
Ni 9.047333618025895 7.091452643724893 1.9553611505240711 -0.5914514290158847 0.192710609696281 0.06519674841230708
P 0.6771941708321673 8.479873227241468 13.122533351066625 0.4882170091045656 -0.19131887155507696 0.4846208071128751
P 5.348328777126268 8.459979080199222 4.887847378352478 0.2682755887167896 0.41451633698630547 -0.24453273657389502
P 0.5878085728546513 4.7287562843550734 3.990872455915735 -0.3710893761509222 -0.5458205185506472 0.6135603450997821
Ni 7.878628923967042 6.0203376826185 5.788877111569699 0.04416332478077556 -0.957658537373841 0.14448854146509954
Ni 0.2669892752891743 2.5067644535537212 7.472298151795433 -0.6661273205632205 0.13484330506585163 -0.5053379850555685
Ni 6.220020434719288 1.890045895244106 13.194383930943188 0.6404674539032711 -0.7722845705482893 -1.2372541790891403
Ni 6.974793439597332 7.796939683014812 11.119123248755146 -0.4994833260470043 0.9200489545511832 -0.19305025242388688
Ni 6.539614764311321 1.1762101710519686 1.7445035771224215 2.5635433466607656 -1.2833502021162542 1.0119892896059217
Ni 5.247375478558375 3.6923333057946355 8.458088811919476 1.4985111703962515 -0.5008380403026857 0.4716436781269167
Ni 7.192007503390683 1.4336202338528925 9.031344172224266 -2.060829686601922 1.8848965534742959 2.8577762786732652
Ni 3.4168452360633808 1.9102272889367056 12.328885681772634 1.3599305097751548 -1.5573446955946921 0.27498771062964256
Ni 6.017437418052024 6.7014180226493245 1.9188530278662008 0.8431146059869737 -0.2410689463950106 0.3429157419301836
Ni 6.436474684792348 4.454157752637817 1.370524190597435 -2.958660453184853 1.7448701615456077 0.40851641064912864
Ni 6.718810344027199 4.640756883116039 12.613940918164868 0.8726475824490841 -0.36287084489587185 0.38604599746075446
Ni 2.456950324769784 1.4789866725668352 2.911926780479858 -1.6814019657886332 0.5925276927991988 -2.898102231985822
Ni 1.2502086145914997 1.7622674659415596 11.537177390669582 -0.30258413219067243 -1.109545685295857 -1.3108818318776196
Ni 2.6002030091075192 3.8376801108736602 11.604579353874053 -0.8060624383296826 0.8593966309764489 -0.6426042977406159
Ni 2.9862254430991135 9.14705453580356 10.176010954658995 -1.2115395479318554 -0.5708512362670297 0.5256553564566818
Ni 1.8926218490763111 8.355245245071833 1.8576083356023785 0.6048183372410939 1.7887336956977775 -0.5211914071480572
Ni 8.588118884319956 0.4270922187775028 7.9557073928800435 2.0549344041634092 -3.045965346350109 -1.1629757800905391
Ni 1.9576415182870412 6.756217270720047 0.3668130458997083 -0.9553149768423289 0.011038002981716474 -1.2432759598031877
Ni 5.753263159936317 8.533773671277212 9.158567566870161 1.0441517332710792 -0.45091698710252665 -1.474136855316945
Ni 7.853017641980657 3.0972879705552643 0.6889036415435255 2.2010118873821836 -2.4422173593550585 0.052245330457961627
Ni 8.490399427073788 0.7221769962775728 12.607051631566865 -0.8433264648874637 0.5264071470210417 0.4317571263446242
Ni 7.282805242965422 8.372961877183979 3.248122113258144 -1.5546118700445615 0.42890782982128717 -0.5601143094654999
Ni 3.7470306276345875 0.18746365023557715 7.113372342953182 0.3191554062857923 2.1361079876199467 -0.529396825776985
Ni 4.503730964876295 7.492226583115302 10.757485275572295 -0.12206852189868654 -1.8763039267092783 -0.9893664100000831
Ni 1.2578808799622403 4.286924606006028 6.2357643309649715 -1.0172957894204995 0.29553570998432327 -0.9450213082258049
P 8.231293682433678 1.2010245752341455 3.403662468016337 0.4006789168825809 0.3918232662641639 0.2509466105200388
Ni 8.60517762894258 5.278583437216168 0.4774280245425661 -1.0926792485578216 0.9713172658078564 -0.058154496853545005
P 3.0131061699596424 2.1171282713802557 10.089962050836073 -0.40293223169313186 1.3385888108745851 1.0486617053262908
Ni 8.923771228268864 7.849357563693891 4.571939998508051 0.555301718568205 0.3274577555039006 0.42586338656800854
P 2.217127169787296 1.6335624345410977 6.293171037339227 -0.6149451412624506 0.0019257562678031354 0.7502008512753725
P 5.169976405319493 4.309024066041313 3.4319117861754864 -0.6052294566365835 1.8350752590767945 -0.10814008474305246
P 6.2236712469850755 8.893128496890798 0.2990506344791483 0.3292313024645556 -0.4860531686840274 -0.8526695966652605
Ni 4.192642842543127 0.08800866726001352 3.3026544999246665 1.5524107486281846 -2.3823245396541686 -1.4438842270799908
Ni 5.668840442795236 2.449491177881564 11.082397374604264 0.289614716514198 4.005939933451636 -1.7458052717653676
Ni 1.1958911996116937 5.397503550462643 9.780496408776354 0.7124863674437342 0.6358479528533889 0.6188275070359923
Ni 1.2999949453124993 7.999624625912848 8.481605046562473 -0.11632159211258031 -1.3420927102627853 1.7103986101312993
Ni 8.318820516602777 7.165423289201487 9.399370140270145 0.4109286196350471 -0.034978572957713956 -0.3856605890968777
Ni 6.020745387541583 6.068437597521293 9.270858768708147 -0.12418094025599903 0.15252658127822766 0.6907741725776232
Ni 9.06362328290725 5.138777712682679 8.005519668459785 -0.9263242460369338 -0.33377778418465737 -0.6024300395145755
Ni 3.577212261149615 7.536573759521538 6.113314790327537 -0.020454154089293804 -2.1815656057321138 -1.2379771732980938
Ni 5.345947409734626 0.43560583885315035 11.277158016360927 -0.5298208006882811 -3.207742499692327 1.2476440069638965
Ni 9.213315851825497 9.215567494923432 10.474410187863308 -0.3419158399107596 0.1637620449827309 -0.8751114706085444
Ni 3.717536882857937 1.7235447642696713 4.63380829398377 0.1955683908600503 1.7462405595305734 3.0956637420165007
Ni 6.261541474726882 1.2968815622635033 4.427724574590581 -0.3895676374607678 -0.3272368977423461 0.36282945013497514
Ni 0.9552619008040193 2.2352700388644813 0.16909654345069625 0.3064485002420851 -1.0980086311905346 0.8956062481277868
Ni 4.405177565742004 8.026366362458688 1.1002760557298918 -1.769434224038217 0.6669117641377288 -0.054803320993124974
Ni 6.091185679025118 7.60726423357151 6.729819303552533 0.9112586099530628 1.217203431085852 0.9134833855185236
Ni 4.736530475956584 3.7495324532989596 13.255777806144776 -1.8059580299958642 -0.5005341359090218 0.28564801855696614
Ni 3.5060492200297055 5.901741880106296 12.447863244349179 -0.8913865536194843 -0.4178438586976416 -0.9806300585683498
Ni 1.3632911346211067 4.538589735799877 0.8363047234736283 0.33814711689694665 0.34182199464537255 0.42935108800629285
Ni 0.38461955841535034 2.824690899369506 2.4541492066277852 -0.5617294764714197 0.2536565532520341 0.42195556687317004
Ni 1.709247293898835 6.2313064482719 2.94814950969157 -0.5661533165707282 -0.7284724584593454 -0.4753380962593685
Ni 4.555018390995918 1.138858840484995 9.047388287549673 1.0759583362587148 2.529494741716489 -0.33481830963402986
Ni 3.6839753548714382 5.31605522605587 1.2877230271277065 0.9240143669568345 0.100065278154718 0.034069173769567127
Ni 2.291718638669493 5.749427027250947 7.573849108716482 1.0138628524795505 1.2238700444727502 0.7661398911031322
Ni 2.051867685624068 8.621356101572184 4.024451589342094 -0.2656692614421941 -0.17441566804183511 1.5214808918185472
Ni 3.4233777808536847 4.726421247068326 5.507226211285208 0.6576825322299771 0.5965311575316372 -0.3795269653953141
P 3.5911576227232436 7.8603007344702736 8.505162051697777 0.22372634135150504 -1.538239342223809 0.24690715034334249
Ni 0.44446971452181 3.2676622982989865 9.866504542106968 -1.2673312009801787 -0.8541965748327484 -0.32221244794456116
P 1.0403703034975573 5.271550527292989 12.208593270819147 0.9251196842058712 2.122057937284784 -0.13677446065029347
Ni 3.915292302595062 2.800404658383141 6.8760009771217785 0.6745443409823222 -0.5416144508890995 -0.6941772847219013
P 2.755835097473405 3.048956405127992 1.0724084976350834 2.029130555726428 -1.5215695948776118 0.43954576915110755
P 7.205471031873394 4.114409827416122 7.149583026337622 0.41672260060900485 0.3301322170122702 1.3375454572117351
P 5.178288026137795 4.901067210483438 11.314195228816708 -1.18798670031258 0.4935317364492597 -1.3660805885369505
Ni 7.80640029043453 7.287364125287166 13.218482998305774 0.4932507148737311 1.6158036110625333 1.2505974331652656
