# total energy = -340867.67720017146 ev
CRYSTAL
PRIMVEC
9.24917000542582 0.00000000000000 0.00000000000000
0.00000000000000 9.24917000542582 0.00000000000000
0.00000000000000 0.00000000000000 13.53709522337217
PRIMCOORD
 96 1
Ni 2.1865592499543935 8.984819336359683 4.057107662799569 -1.4383296158103487 0.2930085726870954 0.7697242660202808
Ni 6.254862107952667 3.8648766160945276 10.64474565314993 0.5434144802123156 -0.07572027365145023 2.2820080647205927
Ni 0.607723180078883 5.232819589238207 3.9066837887793104 0.049769615223959444 -1.1467505764809283 -0.6272275581742295
Ni 1.2875306903796915 2.0345676416428424 4.4508207759037575 0.0670962794278651 1.0494906289854893 -0.9748643597291663
Ni 3.8419479240112597 1.3227237816974942 2.8029775746187866 -0.21992162289343414 -0.7499802506241342 0.9549354820157231
Ni 1.6284643405940216 1.1003274924106174 6.554417746963724 0.3194621388929337 0.6530501756642882 0.86062253296375
Ni 1.0311159543472488 6.116078314201384 9.456080264322177 -0.4621143984802428 0.23001294569116515 0.19123248248885774
Ni 6.1739503700162315 8.890477803786336 9.52407738638291 -1.2940411061711972 -1.9227303364926176 -1.17581792616053
Ni 8.761840349371617 8.396461143216959 3.350241706072944 2.192732678092527 -1.2324259044625614 -0.2871238317715442
Ni 0.7449179664481946 8.579520713088693 9.785384008354375 1.1649290471621678 -1.7885020393029456 1.718187510048099
Ni 6.012950070260911 5.544747842771163 12.673739745035057 -1.6729258099968223 0.30835548745681085 -2.8757225787390412
Ni 1.0465065729945087 6.928109182071684 5.185560030920876 -0.789947535045691 1.721752344581222 1.4119588391263038
Ni 2.356503496964461 7.361488285038034 13.21695643975842 0.4403271274018223 -0.020983287119886444 -0.10432996696834292
Ni 4.241401071930646 8.139435961973746 3.8566374555831215 0.9260753632509211 -1.1857752944835578 0.9564640028451076
Ni 5.647200897311847 1.6532983616684762 10.413397092355432 0.8887617144021275 0.010603743657775286 -0.05403558958916501
Ni 7.950271939994325 1.104563612206558 4.384110213370568 2.902916879765646 1.4430722727016567 1.690959013349449
Ni 7.031783127033904 6.7160719630281545 0.7244421542118341 -0.7751706338468327 1.1920325882471792 0.3543908324493187
Ni 7.228448225769894 1.4447850763416579 12.486968483298451 -0.16849107502728403 0.07429562538978172 -0.9207529225967432
Ni 9.05391988438473 3.301148962289335 2.8595491971512987 0.5456351420127183 -1.4710433039932858 -1.0335253639054847
Ni 2.390142727745762 7.040190622436765 7.150361184308743 -0.4580019189737661 -0.2897445572238429 2.054395500940804
Ni 4.764404630841677 5.315275938541285 6.849350650878686 -1.0917449096690102 -0.023102904566050533 1.9897314851035153
Ni 0.7058318995362625 1.4668813431375134 9.69988375725033 -0.23299928201299872 1.005253513543985 0.2862823097068553
Ni 3.511678566645662 5.972549696311853 10.047908745996423 -1.341608314427199 -2.1652324157897294 1.1195858431406782
Ni 6.803670850773466 7.204927586815578 3.2231285148511764 -0.49082590748232247 -1.2978172853841776 -1.819276344371325
P 1.8902343459754807 7.025040482205868 11.177552407195714 0.10715560934259609 0.42325345974898726 -0.2794226064725446
P 5.900970370764292 3.2278862878272285 12.946850157582023 -0.18241359864564713 -0.23206622867576807 -0.16250374709559756
P 0.882081305639982 7.065635088721987 1.7985787723295157 0.9540600213893051 -0.2992072452986395 0.6859718660929734
P 4.292225260312072 3.7077702168503235 8.643598036962702 1.5273080400232857 0.8906661305136919 0.41266128605543767
P 2.943502062137746 1.0494570581798908 10.959794576593694 1.0789716691637417 -0.07862510600307104 -0.9746501868358312
P 5.436532555407617 6.792914066226132 10.752731561100944 1.6779854839079165 0.5065199211788115 0.5774962523873731
P 4.376614686115917 1.0688433182067276 5.056484165854789 -0.5388021782512851 1.212814300879221 -1.334625969572095
P 2.3404284397475514 3.2273498359753408 2.6295537899073373 -0.5979095259364026 -0.021881116343807478 0.2728225846575237
Ni 6.11226765621901 0.03535772654131306 3.942489175141854 -0.684763447607169 0.837744599924312 -0.8531347092271373
Ni 4.494930066966727 3.5085430980630776 2.133798285404256 0.5933825846003264 -0.424468820213327 0.008693671119255996
Ni 2.4653199803689154 4.806830572990103 12.164190028602574 0.4660181044100232 0.7936527518114203 0.5998602219048701
Ni 4.7880917548534745 1.3738994385336054 12.43778787240117 -2.5736994612581614 0.2491622649261064 0.7425487340467535
Ni 2.896322046681212 5.101657111451674 1.2930320966124982 -2.1248735523567084 0.07149877937093493 0.4076489204425109
Ni 6.1539906614580655 2.3766944347691297 3.531272932994352 -0.3802273338964484 1.4981159918403617 -0.16181520566900517
Ni 2.8002786668536 2.2030042739657087 8.850430748125936 -1.102129595337444 -1.0597441883926975 1.006779463270208
Ni 0.1882696272539473 3.1848036546187326 8.025182816525508 -0.4433273476807269 0.28021193514305937 -0.5927094697927018
Ni 4.096475829392236 3.202229090635222 11.017354010467269 -2.414826883157248 0.8978742182263569 -0.218055773329289
Ni 0.0767616354201945 6.449779113585091 13.292465737579551 0.22128276490701887 0.06788046589205729 -0.24139470516554554
Ni 8.104520345751748 5.983380474218069 11.054540297889929 -0.24388764679072836 -1.5171418981235614 0.09691824788530407
Ni 2.423837453546223 4.691104959700129 8.001505866600555 0.6848601210860334 -0.006196615729015135 -0.31752506977122086
Ni 0.6426332467989656 4.207475116883681 0.7719930613797594 1.2501935128586275 -1.3179163701268979 -0.5003413031719254
Ni 1.486591324109455 3.789338645846828 10.000853594333 0.10898340657995424 0.7732559333226232 1.281951779106831
Ni 3.6193389038176003 2.6707717904720303 6.660305018273474 -0.2844714817503617 0.31133591024137347 -1.4074213562672664
Ni 4.9056487037757535 1.36161654095935 8.319424807451918 -0.12874670524981055 -1.0294702199995045 -1.4409919931338602
Ni 7.771827705882796 0.7568780679943315 8.048913411635647 0.5707141964685333 -0.30829532364283674 0.17711224103739176
Ni 4.913621488195188 5.730563665261218 2.2023226101470166 0.6374487216816054 2.2134125750393814 0.404230124568949
Ni 4.227795543066391 7.492955985429952 8.713110173046525 1.145446255847208 1.7721397958948384 -1.4408711512852799
Ni 5.716227451978012 3.4515682117246635 5.7510995971016685 1.1101411527880107 -0.3375686186856573 -0.12803656655666337
Ni 4.008377486474477 8.898274853978426 6.646970490086122 0.8181515082837328 -0.1557440597742608 -0.8985190508992074
Ni 3.1376606358416397 7.98638994829814 1.7980108733001032 0.24681047686447816 -0.047415513169486084 -0.19566095057385655
Ni 1.541836615684024 0.5812196838446744 1.8599562635213525 0.12042121610325068 0.17214075596472933 1.376020730468798
Ni 8.349410616138465 3.5577671800587005 4.982882971775801 -0.3072450280014515 0.6608426751255135 1.0496053001864827
P 7.794441926190818 2.442483779984249 6.68448234828786 0.09154669916074556 0.3203311717614483 -0.7478058686806347
P 3.6641233842803596 6.822243183852612 5.627424322316912 1.0879946985979585 -0.8407566472777583 -2.070945691990001
P 7.980313243700033 5.837474819674485 4.971647080229713 0.9565737889500945 0.005509102743687286 0.3663166373526272
P 5.410218667155542 8.73054115856493 1.9569495330935998 -2.1826701516502025 -2.068537082548508 0.24174128987168686
P 8.743776720634779 1.0487818687801012 2.4048239350647496 1.0032935616041365 2.5761371241653763 -0.059049240753672495
P 6.192032497092789 8.29718980310816 7.305875801420018 0.09543806379535176 0.13738278365825374 0.8074899148048287
P 7.724693936275562 1.0178526447678196 10.229427404169458 1.0635373368865426 1.3512890320500728 0.0054993325516744
P 8.02703080066356 8.261173535672805 13.089166209302892 1.5667706168942823 -0.17312291737234056 2.3217735175439884
Ni 5.793532013668997 5.731118615452825 4.79054740945134 -0.2222870378018172 -0.3098732096529179 -0.6722768851043841
Ni 3.5247476436580287 4.624520185877039 4.93618021348405 -0.7945624081098832 -1.1104471140642038 -0.03657625646213701
Ni 7.398928924631849 -0.16872243167154408 1.3882430511526982 0.034318570776211865 -0.3431260581687768 -0.31819149971062616
Ni -0.18080369734284865 1.4788590181063845 0.3059828871468628 1.3217866517155816 -0.08423165355657107 0.08430878665140965
Ni 8.42666893198015 5.5328534103310325 1.9630142137708884 0.009856838189421733 -0.4078702924246975 1.0683604693067987
Ni 7.7528299109900844 4.43137902085776 13.243678216401326 2.0408784402909754 -0.7589932527560219 -0.7612265129619148
Ni 7.376490438551168 7.917890596314002 5.378680847766463 0.9603000887617461 0.6743286254270903 1.2051572985545953
Ni 0.7953962358768518 9.212755878392779 12.190762893610733 -0.43987589879701666 -0.7808368309936746 -0.29947258314488423
Ni 7.016411006726365 6.160899791343585 7.017305401451839 -0.09875221577024927 0.4369119310726862 -0.24330400637311647
Ni 1.6444746536219104 2.3368490110116804 11.97684994291957 -0.659993953971973 -0.02640985745209645 0.7840638225714046
Ni 6.524734386131601 3.0755894569102926 8.263693009542706 -0.0336714241105162 1.175864463127749 0.7877554124903787
Ni 7.593485212639728 8.425642274125675 11.217825142600702 0.07442238077563312 -0.5583399911738965 -1.5639256912463193
Ni 5.861661398858731 5.4627539519610915 9.252834381230702 0.2589203727541347 0.5310315331669306 -2.390264620436851
Ni 6.322917499783519 1.0324293364673875 6.0938183370990044 -1.140641635369713 -0.9167849390879308 0.8951539910817163
Ni 8.112927841154608 7.410721616203518 9.180032315427631 -0.7688799157421146 -0.43355021368930496 -2.0791783643124386
Ni 4.103634686863978 8.19143479492741 11.391600395766835 -2.5873679598841894 1.3856091454881814 -1.2065572642259155
Ni 2.859704583204949 2.5733225368256787 0.5514281077251888 0.009884348993247494 0.1942293603336526 0.29799651281999
Ni 5.684706281094683 8.566016925092901 12.862432984268597 1.8574124891214139 -1.0036182919334071 2.1978463451700083
Ni 5.604469732558036 1.333129097790143 1.078036068130713 -0.9073801008342631 1.4146890935732732 -0.13285172855711957
Ni 8.392086285873116 3.1308624959944424 10.408117666199269 0.5827271617690093 0.5877588106556458 0.31869774992308336
Ni 7.359601454386567 2.8217089934195263 1.2877730186300271 -0.6734853035901885 0.3238852076612938 0.585739723343088
Ni 0.5412540208790435 8.401557435809892 7.603759190520363 -0.6222792130300187 -0.3426923130654678 -1.4870198819272002
Ni 2.7051139581627006 6.418812892893369 3.6707864862475987 -0.20174778019788478 -0.026865971152908567 -1.3789147641871413
Ni 0.28799602651986383 5.680803131413707 7.265142457355996 0.5872376480448532 -0.05513190797713731 -1.945687202399107
P 8.066580250985487 5.210945302518995 8.628571835607932 -0.37726259484116964 -1.092774636485105 2.3342677933562572
P 6.629314749740116 4.56933038932163 2.9334204669902024 -0.3982263415770303 -0.8238076781282458 -0.21906570265104208
P 1.5464242039346499 3.688106481727682 6.3105060387482075 0.14521822054227246 -0.7649589834211536 -1.5374831807840748
P 2.6196331303153597 9.308549530634167 8.205077320471105 -0.881152791706618 -0.6546781981860145 1.0129786501023845
P 2.422033865423497 0.5403207796401561 13.526279202141776 0.3988032971264228 -0.5958814397627803 -0.7882858310725521
P 0.3395398003164081 8.981434140190874 5.449249239048313 -0.02774991641975866 0.5630353397670368 -0.4345254331183807
P 0.4094431762853146 4.191030092872366 12.069010521239898 -1.1304029883608402 0.5095828763748514 -0.2628006816451474
P 4.171505095297627 5.986765670386877 -0.09629958183273757 -0.9155418107094491 0.5778127551865274 0.5998167702614444
