# total energy = -381177.4213418986 ev
CRYSTAL
PRIMVEC
9.13542570266600 0.00000000000000 0.00000000000000

0.00000000000000 9.13542570266600 0.00000000000000

0.00000000000000 0.00000000000000 13.37061893883519

PRIMCOORD
 96 1
Ni 2.5946253833490203 4.104665601717843 8.985350002513577 0.1908668716193229 -0.46844676845617383 0.2821878279225076
Ni 0.7368506606813487 5.744894774089958 0.23026114955716562 -1.1018963962807151 -0.10349898642661529 2.129585870230713
Ni 0.3918065392997667 6.815383976960334 2.5424502256057746 -0.7423983245118182 -0.9205459487922598 0.05451072945337064
Ni 7.3395838485246365 6.125010708910178 1.531296527271697 -0.19455897575892944 -0.3612893593413649 0.7511681002846482
Ni 4.301826362738056 0.3183577153445029 1.9126539664669822 -0.32337201547030114 0.4845683566083848 0.44578815051639353
Ni 7.259036798672202 2.6364564983852334 9.137574517246035 1.5448007974914106 -0.3536267005897845 0.11124803424441486
Ni 2.1631318134635755 3.3481335795527607 4.446813793100194 -0.23566165933651026 -0.006977716869413789 -0.41970070940072235
Ni 2.815401220230471 8.837519627622225 12.20903350259149 -0.8490471694213249 0.29599079524387084 0.6984756549869391
Ni 1.6668954804722904 7.888778245255804 0.8598271959641577 0.9486977286361274 0.827133142957053 -0.4695541425877397
Ni 7.868780798037139 1.8431635225390586 0.09484855904421975 -1.09338398793433 0.6766199925644283 0.5649598104832593
Ni 2.721434229782232 6.345128795129344 10.216744201773412 0.9831309706133328 1.3197243698699141 -0.6934152097448961
Ni 6.177292751136046 3.070416633254251 7.115148360041633 -0.29305330988210176 0.5334583974408683 -0.2906107618788802
Ni 4.435751705920166 0.8268958128057081 11.008057530834622 0.7041706484891873 0.6839923737690994 -0.45732546173203176
Ni 2.3063661556022055 7.671437328499625 5.9835395039635095 -1.2281270199768914 0.5258093655360428 -1.5825628467315327
Ni 4.04901258734776 4.658162784031466 3.5755042803662143 -0.5660990662940251 -0.12079325473068873 -0.6782876100748383
Ni 0.5928398073441872 2.731793802713235 10.282875549610745 0.5788303978177644 0.32653138703488926 0.6753285274465144
Ni 1.3037623023352587 1.1213461186612899 5.4104477467118715 0.9260172563194762 0.145479187513143 0.07528190056245099
Ni 8.412329501583686 4.067822429203965 1.539279062392606 -1.3919772537980544 -1.0099432057101705 -0.11376488712899761
Ni 9.378884964387018 3.764581103038415 12.63514173892947 -1.8101921226818698 -1.315155262441993 -0.2305698466358997
Ni 0.0011437553183083374 2.7854461588188655 3.623665331984343 0.5547581873599092 -2.1949574536579877 -0.3711256287054963
Ni 5.123155960564168 2.6276956249806194 3.345476084168608 -0.5305435377869187 -1.0771947797689772 1.3709556572410646
Ni 1.8555602954379757 8.648005218051086 8.559856580336318 0.1705055343541515 -1.2202463316772338 -0.22743927142671796
Ni 0.1881669342560382 9.177357469803297 2.4437483439316625 -0.19258539697232638 1.350317926386055 0.44902414095518794
Ni 4.6911508068302785 5.55324267486639 8.851925280668873 -0.3608427587222495 -0.36120939803304886 0.3024838591673823
P 1.7291442723169632 0.8921602087284444 10.206408380949657 0.09093066284330147 -0.4494478587561679 0.947499080342336
Ni 1.2003036044131985 5.056184153547249 5.989970843772528 -3.6068137057681557 0.9511659876709618 0.7507981185397392
P 2.7023229188724787 1.5964978887559642 13.405516671907911 0.3041992991965922 0.2532750015428993 -0.1613493217761802
Ni 3.21524967491927 2.680196917427249 1.9278160327752598 0.19224524002408827 -0.6138920174075879 -0.12670704911196243
P 4.007720462437588 7.291485831344976 7.136834947502753 0.956446776453927 -0.5324530961048056 3.9978651268633016
P 2.8108883198531203 5.7523492815958654 1.7205049000763548 0.2158068293941122 0.7863109667343683 0.10618476078889456
P 4.627458617698924 7.818663851741296 11.6657314555433 0.815708446059879 -1.0763298606655205 0.0774115453109441
Ni 5.921382066377489 1.1754917877636344 5.950808186631505 -1.0794439808144698 0.0679236604251669 -1.7180239878870414
Ni 0.19811175885276705 3.955739889265267 8.36202527905761 0.2865993267266419 0.5029232049664887 -1.2898283536414301
Ni 0.8066270434388494 2.2536182066572183 1.070097293100763 0.9244172588222078 -0.36310507239386497 1.1259452096998028
Ni 7.122416504859893 4.871292269463843 8.349617543647655 -0.7884982041936742 0.2855104645378373 1.312671576788191
Ni 2.2419248615499128 6.268446030417841 7.914978646636861 -0.7665039593107702 -0.47303464493717245 0.20347041931594637
Ni 5.617811864880795 5.539365962977331 6.584334440151012 0.45503923680101627 0.26578676085666486 0.19352744917062153
Ni 3.074966075335062 2.717131444199778 11.02128105977433 -1.6731330409116216 -0.5565348196443576 -0.12257117256671793
Ni 7.033547082044371 2.9687393433758817 4.680625882691118 -0.6008619236965071 0.5071218164288686 0.045884935457572586
Ni 7.594882459750234 7.428407594210833 3.840363114759621 1.305255743940094 -1.0539844030907846 1.0434750189190287
Ni 6.561738877816316 6.5018927029741596 10.72485476130413 -0.8710025906464935 -1.6255033548488005 -0.1660302721916173
Ni 2.3921295336236 8.13321483512782 3.156415705262965 -0.2959049203982839 0.29070126471015745 0.023066652011476403
Ni 8.624554579855419 2.4680175162848412 6.508777159906086 -0.3352841935268548 -0.5262238273656421 -0.6286928298658463
Ni 8.032551577520474 6.45871868033578 7.041823777878135 1.7836431685487477 -1.1253098901086491 -1.577425268394651
Ni 5.925282893221878 5.84416944696581 4.31342835358671 1.9234733853062296 -1.5670485531460172 0.13364259988953114
Ni 2.44853165291462 4.077935345636612 -0.09310095207622945 1.0456938809472185 -0.7914012367730822 0.8956239887395995
Ni 8.609682106547066 4.909103797119419 4.115248992582542 -0.6103138131380264 1.511810972828951 -0.12054668593752144
Ni 7.312168435503523 1.5247482540116057 2.7612071333710415 0.6669233341019547 -0.6372672017984186 0.20873989524500178
Ni 6.611663980168992 1.9536839046548276 11.363729806667642 -0.14836370814978966 0.44755552682946154 0.6159067338447716
Ni 8.148251746101744 0.5652964983609632 4.7392826250856395 0.35229384071097397 0.3174880458856984 0.5175463541963022
Ni 4.944037665627494 2.8635083728359954 9.60993176056858 0.3676548965480765 1.1291032957128102 -0.49519421175334716
Ni 3.5487749378275693 0.6042216344294936 6.609926422169453 0.013276662504248101 -0.6883691626805564 0.8455185874427761
Ni 4.74431898536506 4.835344368684742 1.0277381504495482 0.32446242032100253 -0.19230463250711397 0.765409697805327
Ni 5.892011672221248 0.8378619780141532 8.391360045052977 -1.8776866659894178 -0.1559885716848991 0.42667842627013614
Ni 7.608777442491024 8.880136389282836 12.418978378567301 1.2582801465215039 0.14108054422481509 -0.20909907835663344
Ni 4.051844569365936 2.8017254877104425 5.603720470483905 1.3253692268605175 -0.9583951584295495 -0.6507310406128083
P 0.4062395986240106 5.698304102178036 9.564953491321846 1.3619513968599255 2.356630477322174 -0.10037252498249165
Ni 6.735512948621916 8.426635578488407 1.9866600514000163 -0.8837154102274717 0.7411230573438204 -1.4988466993587994
P 6.128801910644188 -0.21890946937721403 4.076126531315325 -1.5289584311425153 1.1732848753260308 0.11599403356983248
Ni 5.921144545304996 2.3148346953791363 1.325060634197112 -0.9408365807204959 1.232904900981509 -2.2965273413826903
P 7.799360696888376 0.5901055743827679 7.769038391356995 2.2010959624555575 0.02138926430905349 -0.17159748186674964
P 8.680317219335883 7.907853014462097 0.7349002472591537 -1.1972781529168348 -0.5499602517506335 -0.6599713282641536
P 0.3568324749178846 7.018738556717071 4.919638770227032 -0.22057185488292336 0.1842874186295923 0.27388290760123796
Ni 8.47413065756097 0.8731767937808028 10.229874549369294 -0.4353834102433018 -1.4338031886949048 0.03745891617740645
Ni 1.7426281608938252 4.598901276444676 11.12002313732225 -1.1923110387195466 0.7820105395868017 0.3287098827434468
Ni 0.6222677546833776 1.1274942602684905 12.378358621000796 1.2368363748254312 -0.5414833246278739 -1.0278290848516558
Ni 4.099723336324834 7.281245018950219 0.8312643734543906 -0.5183631936706428 0.7066422499581313 -0.8869238898624403
Ni 8.378482748753555 7.82896861211711 9.213413168607604 1.159104470060591 -0.5894215430700495 -0.12085598964782411
Ni 8.44091424911553 6.672606406114958 12.113634077367609 -0.010428908642807844 -0.5575740595421494 -0.028585524947176574
Ni 2.0711563458539244 3.2099968050468473 6.851520067512253 -6.170647587086147e-05 -1.6645648396266366 0.4110461190495179
Ni 6.817704375130064 8.336889154789835 6.303511449058373 0.3312377913716231 -1.4953831662902313 -0.2939138581101841
Ni 8.10399060778542 4.5053727864379605 10.545889027979403 1.0855513792637885 -0.32321234996398535 1.2562338055154365
Ni 1.4401633459268064 4.270683695963989 2.3148821995936353 -0.07571924521018573 0.4013504890283088 -0.17274393676636704
Ni 6.159606566661247 7.056504407243323 13.21054567246756 -0.23947691931754245 -0.24917100667685474 -1.3419487284857532
Ni 3.384492574495789 5.075441631270842 5.877858156928475 1.411937241859749 0.9177254486243291 0.06649901216349838
Ni 2.5003934655506934 6.406939086532492 12.5503448889646 0.7886480995079772 1.025442329787034 -0.8708249274180487
Ni 3.314697920886559 1.4503676166181034 8.709608135287098 -0.2243799157751039 0.6521580028673221 0.6971327678057994
Ni 0.849345208326562 1.5800449867729507 8.102114191312731 -0.3606969771730046 -0.6692779503770603 0.2395543095226971
Ni 6.351532728660766 8.652947483444096 10.373501714820122 0.2890729850781151 1.4640442469676336 -0.011092767479051864
Ni 4.53296177255051 7.604693907129332 5.253864720299184 1.9128398168517833 -0.27655325534454955 -1.2349571555248475
Ni 6.388768724486842 7.245388472429769 8.32730152534443 -2.2265568257308233 0.4327009783151322 0.4579170725694436
Ni 3.716839367467493 0.36762049932196056 4.3675128153357585 0.4325752513705453 2.2849280665808647 -1.473661201232107
Ni 0.22174875973608169 8.363062149893297 6.685175838562725 -0.9728835818537116 1.1681292992670205 0.04908081668705096
Ni 4.563565449198536 6.936464911376137 3.0218271301630497 -0.5202665813409427 0.9893970061277025 -0.8700893348036046
Ni 4.364668957263958 5.189479152344669 11.933798651500524 0.5814380106439405 -0.03325927627376207 -0.6546943961359306
Ni 4.5110458859001765 2.808239046352246 12.782820465751463 0.7022536339721325 -0.8015432103030905 0.5799812235927561
Ni 1.9487050975583577 5.886375114462491 3.987627093247338 1.6711129251577994 0.09440345188325032 -0.18680967083081376
Ni 1.005417564433392 7.852949105012951 10.892094261988438 -0.26188305492688446 0.5461025685674401 -0.004429496526263339
P 6.460061587937947 4.247342682878703 2.7162014578467124 -0.015148168495348103 0.3075504750570123 -0.1550650314293652
Ni 4.234781472314214 8.309546825175643 9.259233724119099 -0.2677924784327839 -1.1759025154545362 -0.8008598110828208
P 6.082275186713322 4.260196227070874 10.826831693150876 -1.6377353781386181 -0.26399727305640985 -0.45258306195103987
Ni 6.559537240182832 4.295376752077307 12.895882323342896 1.1053542729223285 0.020995371304744485 0.27936295687920276
P 7.732717765202599 4.394340820473746 6.114076517692261 0.17273622345688316 1.3119467828070244 0.9632771691121992
P 1.8462238902038615 1.473434566927437 3.2341125022454924 0.21923462412873856 -0.8135073246435022 -0.09366708793785804
P 4.155038339937908 3.623137304369341 7.5530760103638555 0.015643877184844023 0.6355946991920022 0.9696830726385428
Ni 5.571349088930985 0.35272336036377044 13.29373834165052 -0.5901255111156095 0.2609677422014667 -0.6642727838529849
