# total energy = -340887.4100887972 ev
CRYSTAL
PRIMVEC
9.12830184726455 0.00000000000000 0.00000000000000

0.00000000000000 9.12830184726455 0.00000000000000

0.00000000000000 0.00000000000000 13.36019245636706

PRIMCOORD
 96 1
Ni 6.9085724638472685 1.932096306565428 11.35934334491954 -1.3178454076796466 1.964969190557171 -0.3718712486222693
Ni 4.640992818630737 0.5307495756473857 6.36833584439655 0.9339884474504108 -0.08073983835322869 -1.5000844284206423
Ni 3.0515273108318843 1.8932553834602788 4.569479878609501 0.11869652010266007 0.2696547284525033 0.9584550651332073
Ni 3.699892313490531 4.592357227959941 4.8910060441870975 0.9775282797145746 -0.4213688411317646 -0.6874438226528096
Ni 3.840988470584842 3.1082505766780413 2.584488715868962 -1.112474686017194 -0.8866179285862472 -0.10549724780356669
Ni 5.547697883521777 4.538418094087244 2.680642593100548 0.07667543847586795 1.5564342679652807 -0.02565832399805259
Ni 5.75181583453335 3.047027058166587 0.2898582618322654 -0.0013850532729847115 0.14452068025461565 -0.717378662539029
Ni 6.0768563962085915 8.309803265335596 12.46308188598739 -1.5102554554163732 -0.9020931414037109 0.5718524238380345
Ni 2.0284637860533388 6.910060377000298 0.12011201748582262 0.9451493491632368 -0.5099554292229217 -0.05111584483920874
Ni 1.0144098949069398 9.247425887584367 -0.024371652314556534 -1.2965268487075283 -0.022046181166762033 0.9489730937847012
Ni 8.234768626575473 9.017794333734042 6.677170019495792 -0.25615026620816533 -1.6148229923168187 0.022359084421490528
Ni -0.27781711925459146 2.5751395094190688 1.305805362720617 0.5430671241752261 0.6508392840558984 -0.4637269943830014
Ni 7.146565541919525 0.6031908639364937 4.221487115511089 -0.5973454259028165 0.020695066455506297 0.7830515792568062
Ni 1.2676107233653724 7.6738983942958745 2.3912069716301554 -0.5143939246102496 0.7904404155217097 -0.22540295772297955
Ni 7.9732062738951095 4.353378293320033 3.9837824917678857 0.17360834164919134 -0.8361124636375278 -0.9131306301647951
Ni 8.05118022575508 3.998524698774893 12.3282778671531 -1.3159656741584305 0.46761938745887205 0.9166628116877696
Ni 8.168990085589408 7.519894818806574 8.854146707654706 -0.39559456038113805 0.42129942134640996 0.8489373833163378
Ni 7.081389468835914 1.0243597435989757 0.120144879371411 1.3909282437082497 -0.6373070538974186 1.3582101846499384
Ni 1.4522214939596239 7.161307748926533 9.124329828321088 1.6523842384000444 -0.6312708750056676 -0.13228839985448185
Ni 0.32284703081221816 5.1634602862796966 1.165230431644944 0.04020536857429205 -0.7774308906359191 0.35645414273625065
Ni 6.998422336026819 1.7783026820118313 6.495404540495401 -1.5036346076657459 1.2190973056744552 0.8780556408385329
Ni 3.9557129644944817 4.412219325126331 0.6092246712625814 -1.2424480645852536 1.4296580561782797 -0.7040120114241359
Ni 6.082671124297423 5.798114580006749 4.799889163752084 0.00782720935390265 -0.1091351016664701 -0.15967270540470568
Ni 5.4013985945426395 3.4259154706990036 9.179186356499793 0.25534782491152797 -1.2699580970800646 0.15730574783442583
P 0.4208995947666885 5.69300218763171 12.258604279894657 0.7313274114096373 1.4777461699347583 1.2322608396396069
P 4.304925268680285 6.437086560368052 12.639703567063046 -0.5236735501399626 0.30188556346175105 0.7344916680702319
P 2.751416140696046 8.899363749394157 1.2085779972264767 0.15881447116946842 -0.31614181627044907 0.6751904592067532
P 6.424416477813423 8.22475487977257 5.836907123113671 -1.0452711915875033 -0.29851124767287945 -1.1966482326423198
P 4.736337928344787 1.3239962420540934 12.494772610486603 1.7813757126708096 1.2735149611933874 0.27683016315502
P 4.387974556203351 6.441723737556634 8.114632875505613 -2.998949639722203 -1.6587428336282206 -0.3003932951869407
P 5.0070650957836875 1.3921937829515247 3.4266083087868253 -0.8002738566723637 -0.17909867533980123 2.1072442693107196
P 0.3484318344030789 5.992355708738705 3.445152453390376 0.9790030644878881 -0.5931175038643979 0.866194627734889
Ni 0.5347012173893878 0.20944340213720025 4.6950387536315965 0.6971746767873283 -0.03472223397253375 -0.3099482858652275
Ni 2.269542230050282 6.941945534322574 4.5545295463271005 -0.8945186714905627 -0.061832202815448344 0.4241003811303148
Ni 6.203128191581924 5.743956366896796 9.058825136381593 1.053924753497443 0.2344460417618543 2.2433957516650334
Ni 8.865023078954303 2.560972385409858 10.175215503400969 0.6374140117889281 0.23519114745799494 -0.6302789434060436
Ni 2.5379781937995474 5.7901820859577775 6.744986910218491 -0.030590471192347316 -0.6255303729774646 1.5419214190610864
Ni 0.6060206374177147 0.200590775291754 9.309622483041299 0.201660105580085 1.284529052915704 -0.43684045440480257
Ni 1.6574530977605806 1.3393774301697634 11.416337721321801 -0.03998785324684726 0.1704109177578162 -1.6951509399436095
Ni 4.403246204700393 7.033475013987752 1.5586538387391298 -0.28808002503722646 0.3089221585935583 -1.3278883937379455
Ni 5.833924906996526 7.836683395878514 7.892359645536619 0.49511913554103765 2.3415239606980385 0.5706830861202816
Ni 5.674070090212185 3.0073006898108625 4.800623992027047 -0.5072249176656362 0.0934572859198971 -0.21111302346286867
Ni 0.7003269464151103 7.482733503187054 6.56485083304519 0.9167821108744533 -0.4390122652451407 0.4838970415729731
Ni 5.363151011038392 4.716693823404181 7.071844003902647 -0.09674752663539467 0.623333622436462 -0.832667956732353
Ni 0.7643774999173197 7.794063355930701 11.426223671902969 1.927783582645809 -1.3980044338287407 -0.4489421227643429
Ni 5.243816724844827 0.7944598176830118 10.398919138223214 -2.0669653671860146 -1.4717004779613105 0.49433212086336803
Ni 8.077679685161486 7.341819912123789 4.675973383009408 0.43220346985342334 0.04529718127490263 0.11754415166577176
Ni 7.305051113471018 6.201558123714924 6.945188819864117 1.1168162508153412 0.025789964479910422 -0.709040832097295
Ni 2.4443492047773345 5.447797751333115 2.688685539598303 -0.33723926037069657 -0.6400468214260847 -1.704117147997962
Ni 2.6808817546012187 5.3614622752512116 11.345274806567094 0.0308475815084759 0.24609313908247943 0.351310136641466
Ni 1.3036492578939574 3.4617257976887807 3.4815990229983504 -0.6079016041521079 0.8409170841150228 0.9375656232787078
Ni 1.6755727763419486 1.392065986729792 2.4008665403328275 0.2911920883036469 -0.9252173861260001 -0.05815295419164824
Ni 1.0922560505451802 3.8056893284819955 8.004104661819579 0.9068136868078318 -0.20371673099879753 0.3084511324944107
Ni 4.227106497946701 2.8142553685822618 6.809863575011186 -0.8075457077434286 -0.5447236859420425 0.3782426993662518
Ni 4.319265830418989 7.14693980228317 5.908064059374367 0.5774348030218184 0.7632134614849565 -0.13143145117082528
Ni 8.523861936737653 7.2337225651411385 0.19631964299542046 -0.018468491117832712 1.3564384374614962 1.1067398404159456
P 0.13980267676434613 5.877804652558559 8.107165012005655 -0.3289094003487626 -1.7887995159387062 -1.651172991700763
P 8.979172489866146 1.5742029876033627 7.594413708528992 0.006967689567084773 1.0773750141005831 2.9461772331161775
P 1.938157498796173 3.3470469452869027 10.295764766531148 0.23881948823920157 0.08344078222415953 -0.45187755124358303
P 4.1994386159416 6.225392119068049 3.588401063990726 0.4363725136294485 0.7626051384769963 0.3756973072365788
P 6.959499258207698 3.983426488007345 10.486614731236413 0.8607788560359562 0.8266960554196342 -1.1181727648432356
P 6.463978536741206 7.956428455641933 10.320107208280739 0.4990542089293856 -0.09233962737568613 -0.8464788944735163
P 2.3399031784156143 8.752690200051374 5.826165850677048 1.4799881718913996 0.11811596500884174 -0.3316530245321707
P 7.2915594837766795 4.180652571346911 1.4517048320917618 0.5596065165911459 1.2732971887556266 -0.6616980811472732
Ni 2.790649580767945 1.859097279051473 0.10399143694441401 1.165075342932045 -0.3226420792828121 0.6206306216830021
Ni 1.974643320100822 1.5159005255886533 6.9106792758455455 -0.21190492323654475 0.2582765685225487 0.11451744902430601
Ni 7.113092060127144 0.6123191654888201 8.983045628214798 1.9078742453163917 0.31007195592728537 0.17116605075628585
Ni 3.2530345675994923 1.9574729848808956 9.144557231730888 -0.3192533653162372 -0.6518430427300644 -0.02284502291897356
Ni 6.710643501288173 2.438689657814892 2.5482429688951385 1.324258767405158 -0.6271866776339651 0.5382051680972344
Ni 4.350156002872063 6.9870758571972775 10.367041283542179 0.014520819323994348 0.7053790669749916 -0.11648434294268971
Ni 7.584021137211669 6.47905849090565 11.573960668376598 -0.3018457113627511 -0.8762841507604069 -1.7277862094801277
Ni 7.851526014202596 3.970309118676652 8.149502987435502 -0.7092771164778172 -0.3000335978546768 0.20119087925315027
Ni 3.445751269972209 8.81392284686438 12.3152116163111 -0.3540517039423451 -1.6463349468821713 0.11985634473871615
Ni 0.49057774617590716 5.09873149997215 10.214093852542483 -0.41067819418713786 -0.6472320263206144 -0.7221861112300014
Ni 0.02870211857098023 2.7652455175478203 5.862746606317842 0.33100999163153316 0.7538402478001728 -1.4981674139035874
Ni 3.910445717096495 3.090788135808441 11.405115387393371 -1.2720694869961124 -1.6796286759382943 -0.17056955482286756
Ni 1.2244612419275251 3.6489837757332064 12.480917674390481 1.0606085932755218 -0.5360061035633865 0.32986147984938674
Ni 3.2100493955895866 8.815593326048456 7.914083177570846 -0.5113417680474871 -1.310434459927556 1.5708854103936043
Ni 5.604768024826921 7.91545150997354 3.450950750536414 1.0254623843916921 0.4236172708463091 0.8804087144517418
Ni 3.4355001873289464 8.916470186503217 3.5273710654721815 -0.49951675038810095 -0.33313603683560045 -0.6450411893168827
Ni 3.404527860161903 4.5187009627342185 8.941789356518905 -0.7649584692005212 0.827886990403942 -0.03375755606641928
Ni 5.255510079133357 4.756931376646836 11.680668687862985 1.3559560985084391 0.8874584222096716 -0.40766794660590433
Ni 8.502373914883476 0.24758235885297564 2.123842670483133 0.013483379198415489 -0.5271741070940534 -0.15959248698607353
Ni 5.265021769350881 0.8837912023343893 1.4148173655188105 -2.0871408136926246 -1.8399904369902247 -0.4596245421788536
Ni 6.41329820652269 5.838169567218358 0.24366357899656185 -0.6338322079749407 0.17806020677295786 0.6307931640383007
Ni 8.129811415326822 9.08367328603718 11.451167668724858 -0.1272644642773292 0.14479887361666677 -0.5936378951442421
Ni 0.30773604042249686 5.287477391169604 5.773606915999063 0.0576022238945008 -0.6162764584793644 -0.3535487961639976
Ni 7.489853578397868 6.292512520382305 2.5691513436007427 -0.3124864789060489 0.07464400986813596 -1.1104088046271008
P 8.832225091476795 1.9217174277004327 3.6238453460882547 -0.07593881742015954 0.45299109602273596 -0.31399674490298823
P 1.9256152124632762 3.408617339257345 1.3094457293796848 0.41934538294383256 1.138692224952826 0.6886152172530915
P 5.304939832039206 1.3777893231019533 8.33061396721459 -1.3640381041856249 0.7096021039174037 -2.053742697848153
P -0.3464135669298595 1.8528991622974433 12.469748284611056 1.4529208833609621 -0.329995948544722 -0.15007991950994798
P 6.7257143271510635 8.177406379620653 1.581619732614628 0.16460716659184557 -0.16610534840392682 -1.1119661218118915
P 2.280058033438562 3.6066649697366207 6.03159188730107 -1.5571788594407892 -0.4365748594482417 0.5344827249403246
P 7.180312872758477 4.109844336205515 5.958364652248307 0.3599292457690446 -0.12093029452918527 0.6186680986399926
P 2.7030726556749247 8.587276247621665 10.216739234332348 -0.81619052790262 1.3731385238249962 -0.22981419941679773
