# total energy = -381162.54374716204 ev
CRYSTAL
PRIMVEC
9.36172870675364 0.00000000000000 0.00000000000000
0.00000000000000 9.36172870675364 0.00000000000000
0.00000000000000 0.00000000000000 13.70183626038408
PRIMCOORD
 96 1
Ni 7.748974168115525 2.689877364212356 7.634840655129293 -0.35251084181778647 1.0097400885604286 -1.4006467565475944
Ni 8.383352976341419 4.579869922078521 1.1288053924402774 0.7263371572838976 -2.2387317705304604 -1.3284864323332604
Ni 5.135563402276751 8.001450623984422 10.082934529763433 -0.019016650311818862 1.528018435826749 0.1608222456281166
Ni 6.472465040467194 5.915283045437745 1.192130932520888 -0.7784881282558399 0.6836388470844227 0.9833459148376162
Ni 5.373604072801371 8.913975747621377 5.301007612988959 0.5602482639402029 1.8117298994826347 0.8126807149771487
Ni 9.753704070456056 7.15479462206105 5.637538348179259 -0.4382417056277033 -0.46821254095818066 0.0987622430725783
Ni 3.9369438557337366 4.671221668764297 7.103004603835964 0.4952690308553405 -0.4541938580815855 -1.350613860359919
Ni 6.174368881626397 7.03364449356539 3.55137919518823 1.4774232393777007 -1.2862275236640495 -0.06536721255190032
Ni 1.6524761441374456 3.5408210377879206 6.858905958800136 -1.0202587287035656 -0.9360962378220329 -1.1969752769644353
Ni 0.29734628438808897 8.462674901906965 10.094060007910736 -0.367190041096516 -1.4036089244997116 2.0522815399215943
Ni 6.865011678126685 5.3474754885627975 7.472090749878878 0.171174278286402 0.7258208797691111 1.5346871060961762
Ni 6.350303845293726 2.3170465267701488 9.232009579644865 0.6340924036148627 1.2797095200398736 1.4810230409138172
Ni 7.983213976869861 8.892827602943864 4.797108831880063 1.6626488535508461 -1.7418216045272712 2.4714235486053693
Ni 1.4306499873717682 5.21300362041415 2.0042636882613203 0.3426465474291969 -0.9702435731277032 0.010739240794375052
Ni 0.2744109857402631 6.467859070046063 8.334114029132103 -0.8670978562754487 3.1994342369369484 -1.231213115101383
Ni 4.694794501122853 3.8736398476286715 9.272512161819629 -0.7059490805458487 0.6500391567521062 -0.5305288824988993
Ni 3.8085945580229352 0.8374992952792495 12.813518561831815 0.3748151617419416 -0.416440807702528 -0.3291536551490848
Ni 5.76281793511549 1.1454730138585347 1.5171766991895546 -1.232085233293691 0.3969623872629422 0.9475093647549812
Ni 8.22317380173662 0.35816849826827163 7.078341130107364 -0.26906723138014954 0.2249645846339803 -0.4560365677172791
Ni 7.143401398478698 4.47331472831161 9.848975572864044 0.7749526042987557 -0.09434560206212138 -1.054668573642003
Ni 8.37105166509474 6.642221263325689 11.36635823008056 0.6381560321612751 -0.4685164453518447 -2.79941660778745
Ni 4.298475086878574 1.2337260284113958 9.539943978964457 -0.10095102319378098 0.11231735604919367 -1.4048805921232839
Ni 3.2598193951849 0.8567395196888221 1.4153725826354984 0.1949983772891932 0.31694708578056385 0.9496310390836743
Ni 0.9173688819619412 0.25865332433203403 5.82837718361578 -0.877973622647688 -0.15462023058246274 0.13530558941425086
P 1.6196164771086408 8.487848589838718 12.998137464854109 1.6922887879044661 -1.2984104388834863 -0.8594182282430037
Ni 4.673019120635958 5.225866635370726 13.444968085210613 -0.4436945012121584 0.003899592164722316 -0.3645099231611915
P 1.012321149428139 5.903861736669898 10.206209770628192 0.190739087792207 -0.6835570860038938 -0.07739740424355702
Ni 4.545203441449557 3.469887220956794 11.57639328980271 1.6444061052905743 -0.38709500755055914 0.010484701581407749
P 4.359953557926483 8.537840220019293 7.880514879071374 1.0380661891986316 0.4261976299789757 -0.7631689814002662
P 7.2415216748686975 8.704628774943847 11.190933480616383 -0.43498746035646374 -0.06557161525322255 -0.8388432323051295
P 0.4635600291828513 8.873336484210538 8.154716162093276 0.9933855584618052 0.217198053314684 -2.274283442382825
Ni 8.556835167142212 6.188636155857707 2.483676868483083 -0.04693214577516433 2.5050381513360214 2.4550746749337007
Ni 5.791127802094152 1.2155268282108271 11.239410383125943 1.1738461471461397 -0.5486140221353841 0.48326455019529674
Ni 4.439958889672399 5.148538757975305 4.446821036661605 1.5355929057398974 0.2808215437026002 0.5488011984455258
Ni 5.019290734328673 6.657387263492829 6.312435653518366 -0.7309779984900185 0.3213853240575755 -1.3023395987345636
Ni 9.362664671084781 4.40908390908522 12.001328699547543 -1.113531409416482 -0.5377832500684674 -0.41125720661905946
Ni 3.5892679827662866 5.685930058959486 10.58184538192847 0.15344317955522607 1.559177892148689 -0.047335037640537835
Ni 6.041291911023986 5.969431283071536 11.090102047653295 -1.3261189605423485 0.8061943359218566 0.15593689251135726
Ni 6.95090553709799 4.708837093870205 12.793787782848936 0.4169285459722239 -0.17639541747602525 -0.019710848165366054
Ni 2.144303912520717 6.653970232590974 3.7646749449463157 -1.0370827422394397 -1.0378790128884898 2.1559954705724937
Ni 2.1175761776582567 4.976910189417163 8.573608576092498 1.951249784088549 0.4197901837907351 1.2194973693263513
Ni 2.54436801816429 7.99122761646435 6.121021071779205 1.4335499350335184 -0.7563635284426588 -0.2712467555299716
Ni 2.118278307295624 0.6415583178111919 9.448251465361347 -0.9558757344418054 -0.047211110468163855 0.08971813059243904
Ni 2.1867406278032164 1.815220432350762 4.552462525727088 -0.6138647637140783 2.4378804225426016 0.05028512140779726
Ni 7.30224184590825 7.254019582413841 9.151387309990914 0.12129436273682336 -0.3927586335942397 0.10952719489856622
Ni 2.474276756898005 7.679051417962207 1.8208365332768532 0.7617175936657203 0.7753832640782712 -2.204214196369565
Ni 9.144508311890412 2.4639414086359537 5.66029671015847 0.8616198638800129 -0.643482586580511 -0.37821441723147764
Ni 4.556184748977986 7.567234932779289 12.278051096054021 1.0561089056329553 -0.23466432842024745 1.6893397325784714
Ni -0.1228792397492826 4.175256016384806 3.865369696673331 -0.08763965079685551 -0.2959784539486967 -0.628730110861685
Ni 6.626652708833124 3.596055235927507 3.73442158313142 -0.5314151417585945 -0.08254141033834171 -1.2939840276810166
Ni 2.3402916986312663 4.374688918582705 4.631823770552326 -0.9550442396794454 -0.6488986153897599 -0.7401450097012672
Ni 2.173269100494256 9.273878038007522 3.55716099870874 0.46399618888398797 -0.7709293420719756 0.5653886704905617
Ni 3.9737541721887966 3.395377223839342 2.606733044900982 0.8154965871593891 0.0728853753058164 0.6839129266814157
Ni 8.665159727595288 4.6970132307769346 6.204068029114198 0.39109795806236514 0.8755619278824017 -0.8756717139873886
Ni 6.8669214707403246 9.18031692339616 3.111728084417021 -1.6729080693850091 1.1326131086382818 -2.1240315160713874
Ni 9.326331802783132 4.345957773821622 8.458595060627434 -2.018459192055511 -2.2835183307175315 0.5553220302831792
P 3.2339342158872806 2.677566691237177 7.951503930100639 1.3689337417150294 0.5626689575665536 1.3573370380163656
Ni 8.170467270291557 8.87296201507061 1.0782998033651494 -0.27177100346455774 0.6396549853043049 1.948944275883824
P 1.3956090376028745 2.5348658637385815 2.047766704419768 0.3901227386332894 -0.3081382292396822 0.25031771868678826
Ni 5.105961616765332 8.004446377103857 1.3010527712521522 0.0020743660305254596 0.36242707249023387 0.21833730912544977
P 0.5947318880358704 8.007423406766296 3.0260092897686324 -2.179300463847021 -0.7920792366767133 -0.5711957640906421
P 6.858636341019386 5.41826887946645 4.806836603962578 0.9279401843738019 0.9645915170482484 0.8086875346573555
P 7.641791738539232 3.113196003445544 11.439991969410576 -0.26223066807429035 -1.6975016995639733 0.31536971399111496
Ni 4.0504173668608425 5.993884117908925 2.390669032025968 0.3114133004465282 -1.06489230825254 -1.933364933388328
Ni 0.49361211383503534 7.102509368398407 0.6319400779521053 -0.6153308067366434 -0.1656579764538631 0.2948309706078148
Ni 4.893132081086458 6.334257842647752 8.560838242248057 0.34564085417083057 -0.5427675906569362 0.6093208530971377
Ni 9.124876767229614 1.1430951348199831 11.135207791730641 -0.7048275653468957 2.485423462428887 -1.1583976738015533
Ni 8.907151047546163 8.994093420109271 12.636462999263246 -0.1393100825879536 -1.1389591054609676 0.33383923355021217
Ni 6.047049374050402 2.524324557449569 13.298535672732621 -0.20027505230710022 0.30651277782111724 -0.15576899947492526
Ni 7.716685566525111 2.12911918889658 2.271887420840363 0.5124080045284723 0.07736192301993129 -0.013640473601570056
Ni 1.8133387249226167 2.325266124391599 12.783443072858384 -2.7518547988480866 -1.5186380230531136 0.7726445249908692
Ni 2.4712341951360783 4.165061094050228 11.835659807351378 -0.47646732476780523 2.217516055684794 -0.37252945103155843
Ni 6.289621121168167 9.535575796447182 13.285506019008777 0.5051970886023299 -1.9386835173877641 -0.946661929153021
Ni 7.013460606923196 7.684911860002102 6.532035591247163 1.0677886559637286 -0.4029072919924674 0.7579126180973333
Ni 3.013072317156922 3.474128083966495 0.5747642573219851 0.3181207943736909 0.43666433383825437 0.03987241071490553
Ni 2.9659360141683084 1.0300709866607924 6.753676385788575 0.735634009204791 -0.9346512778453903 -0.023846210489978287
Ni 0.9838521330650065 3.0283881049800336 10.278131249815882 0.5874214819208851 -0.272251285535086 -0.2793205336770415
Ni 6.614969271667327 9.564878006646657 8.689910265398922 -0.805523020886445 -1.657681996463874 0.4196886252158643
Ni 1.2459618075585888 6.438397710462118 12.190715530893987 1.4633469637902927 0.5886247582003669 0.34926559540761143
Ni 5.44431320814854 1.659431908411634 7.077779426397469 -0.719213915975555 -0.12685771575721377 0.0868256395359924
Ni 4.136563992501601 7.676130558670758 3.975176218747678 -1.5733647251720322 0.0520902929373361 -0.04841927184365209
Ni -0.07468225292181957 0.7742926491505664 3.496201167419633 0.5055560146036454 0.8656102159863286 -0.8217050299629461
Ni 2.606885641075503 7.579152413157542 8.561770670406482 -0.8379299764622408 0.10351981236222171 0.8959546326061407
Ni 7.56600854634602 7.14254011945686 13.218791533211807 -1.9120000945593072 0.23468155481142808 2.11163339951735
Ni 2.76941460953336 8.225355084476709 11.116532079549511 -0.8972131876035904 0.2389958659160658 -0.21564793521874476
Ni 7.06515607169045 1.5937032126255264 5.293293548706413 -0.7684600545958765 0.42114849759084244 -0.523784364686214
Ni 1.1143078196879106 0.6944511476533696 0.43768140309518044 -1.199673906842521 0.9219973365268057 2.264747992088564
Ni 0.36886989011460397 1.8384843276688758 8.331195978359203 0.5804031416215231 -0.4806080864090561 -0.5057035959251033
P 5.985945372142422 3.7987366579142936 1.3616708994510731 -0.2997929425987804 -0.3707613033875421 0.5560964465553584
Ni 6.168152693903569 3.80177921967622 6.024889226522229 -0.6736511397440914 -0.9266464052630428 0.19874987391182544
P 2.063090917798529 5.700730951715196 6.284635064570008 -0.6032797891093804 0.9128984595493309 0.13305278882433216
Ni 8.538121071874238 2.3063554328251645 13.706905503899828 0.16010645050801459 -0.11109299672378932 -1.0056929150742486
P 2.947989580637192 2.0111333246333247 11.123890398149124 0.6355237367447507 -0.3921048020603247 -1.2261061328921206
P 4.252574532051728 0.344636119724073 3.3354930551546826 1.7328623384514543 1.0527734135018192 -0.45265968082524616
P 1.2818921215348147 4.688175759074601 -0.07512506267978607 -0.09191410980249332 0.5423222755894015 1.1390452374168705
Ni 4.312676829010397 2.8322318077565165 4.917890108272891 0.08266379484881893 -1.393240179670878 0.6037001644762506
