# total energy = -340875.2756770696 ev
CRYSTAL
PRIMVEC
9.19436867767094 0.00000000000000 0.00000000000000

0.00000000000000 9.19436867767094 0.00000000000000

0.00000000000000 0.00000000000000 13.45688794079953

PRIMCOORD
 96 1
Ni 7.33408135316015 5.650803896799695 3.16663439645939 -1.493739717149537 -1.5813068628372442 -0.351492170745285
Ni 6.663490064906302 5.053252674274078 11.707869253853804 -0.09778008166496709 0.9031501219133156 1.011561972260516
Ni 5.217013576928349 6.929051018887736 12.814092494049161 0.8742128700536751 -1.448259216219235 -0.7907913711032251
Ni 6.417411978407008 1.9205381431828392 5.515386474837822 -0.8421033911136401 0.012082385085830805 -0.08138261414355015
Ni 8.633006610674022 3.344911368571332 9.236457859657067 -1.7982550049246513 -0.15196530945811892 -0.8740488336719849
Ni 2.596544914658481 1.008392397878122 3.294448075425637 0.31568698812121765 0.8393602811508641 -0.7375435675226781
Ni 3.233319314474712 1.1743691434126182 0.6820943630565411 -0.41643232306209577 -0.42754103138074756 0.9511251071306974
Ni 4.711507180435628 5.834875160127892 9.456855154667748 0.538580292048466 0.8905092932208535 0.5240707855783814
Ni 5.372398409607996 4.299222489181898 0.3287520118536636 -0.13489549846002574 1.1202121638707676 -0.3283391296675894
Ni 5.037521109261364 6.855385736081267 1.8543322517818728 0.9563269630466111 2.1423732518033685 -0.25241959552113946
Ni 2.7010848878873324 2.21060209000991 7.739217422673738 1.794503508302019 -0.5979460356012928 -0.2375961573550618
Ni 7.676700312034373 0.04788519213484429 11.856312338091254 -1.2586575844655807 -0.17614653469001276 -0.9626138244965875
Ni 4.684356209376279 6.452902241965791 7.2614044649994245 0.5953872737351811 0.20585948837341322 -0.48953958457073116
Ni 1.5389442549755386 2.887371994095754 9.62538885416486 1.462231876349243 -0.7851850806600412 1.5330631973395081
Ni 7.25414551083371 7.787869425166302 0.05240422439887071 0.9580382893107628 -1.0594811645392979 0.7891787752004666
Ni 5.848372493522787 6.408144054659015 5.021962398382044 -0.7974456431949493 -0.4769092974012302 -0.33979596535427936
Ni 0.608047513944971 5.452656054842354 2.9994458331173686 0.24546707546270627 -0.15493981870541057 0.0014853262962748611
Ni 7.445305632504866 3.43814226817912 13.293696514765246 0.13046985858850435 -1.8142110140332757 -1.32706589783665
Ni 8.413822052907744 2.620533022851452 4.231612617665537 0.5267784143175315 0.7463349405620631 0.2574419884363953
Ni 5.17018665664211 3.864604676118768 6.755223201836959 -2.3440032754764664 1.3850530158743952 -0.3611104105613394
Ni 2.767505008081283 3.3568364649018347 5.756843471579437 0.710236652177609 0.8449056364491255 0.42770223954896014
Ni 4.998536985559488 4.799708760311123 2.6603060233961626 0.23004508448068123 -2.3861814515064133 1.41767388723321
Ni 7.353628581223874 1.13027295065927 9.67248792776751 -0.014469911481400886 0.39668805055563294 -0.48497947600387437
Ni 1.8660615080569867 8.038158532574903 4.1333367678984985 -1.7376371341322783 0.905546390059634 0.06622390412524079
P 6.396678676768393 3.3262743830185717 3.609743209107115 1.0488157144056518 0.6886532695798785 0.8665314422490172
P 6.742865050736089 2.717855416574177 11.095473722904444 2.1130966143264382 0.09007654237312229 -0.222660619091152
P 6.592463565944747 5.545997286875713 7.723580559659639 0.4082145631379937 -1.1411129185791768 -0.22760073670524675
P 6.806122308063661 7.138875709218045 11.172096834153104 -2.233246579046173 1.093330251878259 -1.2899111431632238
P 3.955803620222284 1.202191303394193 5.842226977418463 -0.6191352680843982 0.12156664256160353 0.06553767669149359
P 1.4392956859470172 3.3150204756102943 12.1049685256014 -0.636254187152872 -0.3396645819827376 0.3324061006481114
P 3.946333420360743 5.339188349511021 12.126001563662815 -0.30860257047061046 0.608429708741436 0.42273641090325265
P 3.598832251654989 7.818468284524756 8.53177477133855 -0.5435756883805284 0.3573424588784749 1.2089342490985244
Ni 3.1620721506620146 2.094532378308853 11.227458886994166 -1.912865784993712 -1.8718122094865117 -0.7555585160428601
Ni 3.7014689905427343 7.5372585148497855 10.926979559193159 0.6976575299610178 0.5248336318863348 -0.2086959293809438
Ni 8.140795271462647 3.521259362109534 2.0084271145192147 0.3898743700679092 0.05142951942488562 1.013223419123339
Ni 6.0451595688980815 2.304614510965495 1.7128198827440633 -1.1500061073037486 0.8704163791257202 -1.3137820362435504
Ni 9.090867788057515 5.0111976313938 0.4179226782004261 -0.8545261902580251 1.831349473485775 -0.5561851496144228
Ni 6.436766124725981 4.374478397790354 9.569220455180249 0.728947598323551 -0.9057459076649498 -1.2697783769690907
Ni 4.760053447687022 3.5874128456083545 11.107396060924307 0.20505653285614364 2.323760208956714 -0.8909144990790719
Ni 8.724481385841466 6.764094848289775 11.606525243219004 0.9383696072372419 0.054612030917925304 1.3636670939994515
Ni 6.008014318955729 8.703398698188542 5.583800853623976 0.40409205632918793 0.5674941468693387 0.21786319770250867
Ni -0.20067445450292515 1.9074729451214323 11.483960629399313 0.7521345779629756 0.9247913543321751 -0.3954253817931255
Ni 3.6861511721259124 7.953248536728954 5.719581453153354 -0.13046291660996887 0.7671796452215561 -0.5206463332778647
Ni 2.7996577157665334 4.966476221562214 10.220331634262596 -0.2842249129571944 -0.4651914947436698 2.0403891593593824
Ni 2.7555523286443875 4.769100706583872 7.928125843426358 0.8830700633339889 -0.5303617607934156 -1.7117648943512067
Ni 8.411174074694031 6.873939972314848 4.791203969173331 0.274166757390244 0.009738567444002583 0.5529314185638156
Ni 1.4570684008328016 6.824860431673194 8.064888401543321 0.03983487260875075 0.980976386164175 -0.33588480322533126
Ni 1.791550343321137 5.861851438180087 12.507491555502705 0.2666863898527988 -0.5086891609159885 0.631161603121313
Ni 5.0604702537802035 0.9817103396274514 10.284426498587631 0.1359725335742884 -1.7631314217486407 0.3731439446871057
Ni 1.6323590419592788 6.149947790084468 5.68790409433494 0.45208015417269237 -1.022425397337581 -0.6173645493372206
Ni -0.23611047128580245 4.499043706260405 11.395682736262799 0.9017041334954082 -0.69658615127371 -0.40318008603787986
Ni 7.2281622246116575 4.369449078058061 5.725811557450616 0.18092981501126906 0.4082659852012195 -0.8993523454337802
Ni 3.4237898584860473 6.451155311894245 3.601695378098565 0.20857920129742144 -1.5589140969643411 0.6017546107141056
Ni 5.719927161420144 0.7469422461861002 3.268301129438987 -0.19142480100532194 -2.8885081605394833 1.0672674933529362
Ni 8.93197990086598 5.114643474735735 7.286299137955839 0.3962861871315239 -0.6249313059408851 -1.5807149948895163
Ni -0.440503128530482 8.696282256739188 8.703430878479333 1.5215181728143858 0.5653097376235103 0.18955072391106065
P 0.9701530180488528 4.924494733632317 9.091459905408081 -1.1400058015579269 0.6255529986852839 0.5094229537582193
P 6.7445660089636466 7.919174205965003 3.386816543240209 0.25953923728505623 -0.19360458226546012 1.2480340433134636
P 4.402116670395977 2.5819534513766706 9.137765504983497 -0.6542719638865312 0.9526965653828753 -1.4560283186416922
P 0.6764113237027369 1.4511931991711273 8.18002488481142 -0.41913815202903304 0.20650894903195402 0.08794304096988725
P 3.496967839746243 3.0195502399302274 2.1320555168087885 -0.6844654567507761 0.41109265601673717 -1.5336069856581198
P 3.7770467020591068 0.1838836982047257 12.215247623833719 0.21088548083309488 -0.03941115480777084 -0.21472465207352698
P 0.2097640074962446 4.549750650179236 5.057771706538105 -0.09636726047784049 -0.12472935656030132 0.04318219181442886
P 3.7390004039745874 5.399356298922596 5.654625076471983 0.08505132124438901 -0.32504091853229183 -0.6055253906104474
Ni 5.328467715493006 9.061785999550668 0.5068616464534889 -0.7565414487814197 0.4807890920716107 0.6947413847554874
Ni 3.336489326752719 7.7546041988565415 0.21175642721468718 -2.5021963110118524 0.154226851798786 0.596363007384889
Ni 2.0408372645307975 9.109734632830216 7.192976294660075 0.19356730126962146 -0.24996059245768565 -0.3854137631933943
Ni 1.5370869924784207 7.032506056598469 10.473173098449413 -0.6331238690540063 0.4259145515209181 -1.1620972341403277
Ni 0.6208782556020388 8.567607065416606 12.946643111819936 0.6746348438135994 -0.5429385690171616 0.04259340919049439
Ni 1.3552131832928531 3.5612456720103496 1.3005177221896176 1.0688628628645143 -0.98227376481936 -0.2282784794985617
Ni 6.751884726526545 2.7752926384528607 7.789748754148535 -0.4975459998149754 -1.43157404225407 1.511728954638106
Ni 8.501756996088107 7.407121418888382 2.1559553590613016 -0.6514182964878201 -1.4114682726431307 -0.08531820175253048
Ni 8.620391936683697 2.5073595373216424 6.646020764190839 1.4650652320329802 -0.420267894758102 -0.06553587691928067
Ni 8.269029133082945 0.2292146946875933 4.726961075510656 0.10751402112327937 -0.9597424164860633 0.925930867253257
Ni 3.3070029860187766 3.2803668996120936 13.153421707767597 -0.19143225720448967 1.253855535091247 1.0312959603543335
Ni -0.00733342855297552 1.5540965747540036 0.5310704194976018 0.45023873008857945 0.39685902891585845 -0.1503714826084378
Ni 4.767234249717957 0.39200375255995723 7.847505020624495 -0.7401270119791382 1.372769313411036 -1.0420501135470441
Ni 1.0539137177951003 8.637612989441624 1.7868860400301085 1.9609824379952807 1.6420388906099783 0.04961072104859198
Ni 7.6758268469986 7.341473625673431 7.215220231092138 0.038094749989192454 0.25550491931468255 -2.704706680407374
Ni 8.267677560869696 6.2103731818223755 9.183410948879242 -0.3109900968661805 0.019808807195811046 2.0352981179897203
Ni 2.3087151994492303 0.32646629177057723 9.545132128367383 -0.19219176107833352 -0.4611273519766252 0.7527043344235166
Ni 1.9597797092110483 3.51207418768072 3.6966741272147794 -0.8617607603332513 -0.4029461156502028 -0.7517337429801312
Ni 1.2586723109179248 1.414498473299857 5.3366111679370505 0.3637442486397606 -0.16249346268295242 0.22890120068422515
Ni 4.420257160033666 2.4829852656391727 4.001849938597606 -0.5510447430640639 0.7991037476236625 1.1497564531867877
Ni 7.931375133359434 0.4961897425901003 2.302944813591849 -1.736958362897699 -0.0782947192468458 -0.9175513849403101
Ni 6.138703077044989 8.078475839752432 8.839305260570447 0.299652046145542 -0.5674774346987904 1.9187232722157537
Ni 3.2612610012506558 5.284950767973906 1.1274934929717517 -0.9938527279062109 0.5204637849534134 0.1413299412314598
Ni 5.32621509513759 1.8940215835705254 12.523181745855828 0.6614353144041899 -1.0549339114882477 1.6654986642948153
P 7.083957744389907 1.0306519647371413 0.2666615199265084 0.9894301733584832 0.4012658997343025 0.14868535315526651
P 7.188249469661223 0.4979559808361216 7.3382831797006585 -0.8730165357527289 0.09731034111740015 0.199450756633592
P 6.985247000978743 5.750470854565812 0.9905240615568424 -0.08574988997331039 -0.33849935803004283 -0.30962432686690544
P 3.881467148493589 8.511015725467303 3.1322391822244025 0.3744688341461163 -0.3586310957829114 -0.39672301755862643
P 1.348841485716108 6.548303012609815 1.1685077333041403 0.6613754077005318 0.48612850200665314 -0.434554229473787
P 0.34594180375767947 8.814981557916363 10.79578878856755 0.5503574871890522 0.8413174048772349 -0.16234331025833332
P 0.571943985987387 8.037928673354962 6.03642399910347 -0.2805310090453749 0.4625234609932034 0.24165567213641606
P 0.42839230595026717 1.164154199678471 3.204555651128262 1.9525227372637017 0.4452006534440397 0.2748491281692492
