# total energy = -340888.7915921163 ev
CRYSTAL
PRIMVEC
9.07333414301816 0.00000000000000 0.00000000000000
0.00000000000000 9.07333414301816 0.00000000000000
0.00000000000000 0.00000000000000 13.27974166497889
PRIMCOORD
 96 1
Ni 6.50717762013477 2.0076022467867016 11.153522342241772 -0.6995483192258275 -0.6479897304222453 0.9776545208797938
Ni 4.513829581577612 0.02332482055740913 5.906962036991848 -0.4406726836666991 -0.31011669312229173 0.19061901727457495
Ni 2.9383267355010263 1.6892370918801114 4.653049008842083 1.0730223935588425 0.2800473845407371 1.366245139139273
Ni 3.5031236507605286 4.269430248114208 4.846721144743591 -0.17499288070154378 -0.2769196375450328 0.350382482620874
Ni 5.154987678542936 4.415157070758837 2.599243528989508 0.21282049307227865 0.21510748933424242 0.08346623614545626
Ni 7.579872571081863 6.029031047709225 2.787882686339185 -0.614440176601574 0.08802788737420969 -1.2107113956036053
Ni 5.0184158502354235 4.5375109841741175 11.640384759622949 0.998837582715312 -0.16655220613335833 -0.8718788226038597
Ni 5.718695793683059 7.792324694375805 12.252049076021146 -0.7445269408190468 0.7093275100997783 1.1995535792145728
Ni 1.579077739801882 6.771157209078349 0.6975397964805303 0.3868458676542305 0.16162880068981197 -1.011376081501955
Ni 3.136070983849015 1.5648235315723378 0.31588269063440483 -1.5884797264365997 -0.3106375986227682 0.6305638216363141
Ni 1.2371309889763955 0.2903748258376396 4.746737537114397 -1.933098052880187 -1.1863206254640664 -0.2761819880480598
Ni 8.799292411449684 2.3779939007309796 1.2970458448789886 -0.7831526236110448 -0.6650397439259966 -0.45537039488818987
Ni 6.6721036182177915 0.7962358979685583 4.7267916262607965 1.8862571812672482 -1.6208805113648084 0.8379045225409442
Ni 0.7012027015488097 7.5321377591813965 2.7999937730004167 0.9154965592938102 0.3196102344350238 -0.3360131012730794
Ni 7.933442263181726 3.5082773046589253 3.6782226712922874 -0.39435271755423695 1.1927105881508104 -0.012032762794817986
Ni 7.728784134075678 3.6668428953779055 12.387701775561215 0.48202553558187305 1.0704890856140274 1.072032261731431
Ni 7.826794291488496 0.08896313575420733 6.69819580574529 1.2957668306130523 -0.2822883580561138 0.38276218450316013
Ni 7.067020494851095 0.5688300123683712 0.3134428710335617 0.07304324103991937 0.8146936316421195 -0.2911440086745309
Ni 1.7410458308939232 6.569547720306563 9.368021709807012 -0.18883312901874577 -0.8136227671754439 -0.2963453503698122
Ni 0.11505713794857188 4.693409014600618 1.2652737500620594 -0.09856915322516573 0.8711861674122092 -0.2589777083546314
Ni 6.099848422140538 1.813260498811774 6.821909811976362 0.732160963054526 0.9966578014551738 0.708828973196805
Ni 3.743494423782228 4.276126368848392 0.5743856149775055 -0.5405384442161013 1.2537488343100538 -0.7689591057194821
Ni 6.0657508317353015 5.495754895905761 4.6132098124739835 -0.36640096953631734 0.44227653781870924 0.7911240718522956
Ni 5.2916502401937295 2.7181804246968024 9.188930422170863 -0.1704646538138871 0.9092420937436664 0.20916952658325264
P 0.060388483954522974 5.837483886707372 12.501615673384439 0.614752051415038 -3.4217336160339396 0.9825578717186821
P 4.169614497170085 6.155694794930383 12.70252470074609 -0.8621230287686764 0.7358751786813197 0.1556838959602867
P 2.804113974118836 8.646406728020134 1.4042400312987742 -1.961536253616222 0.6782251322680191 0.7389180792727016
P 6.33319643439224 7.696183643834587 5.899179838138583 -0.22413566097478174 0.24720308431720653 -0.5059815321768383
P 5.024531277572605 0.9991011362113623 12.481948313894712 0.044202405548827095 -0.25841360832104526 0.20936544464414267
P 3.842375621290551 6.217729181732034 8.07715026893834 -0.36668121978089757 -0.6100003956626656 0.4258381897570279
P 4.831813656442419 0.7732340881132318 3.682525246430703 -1.227818230487221 -0.18238763050371815 -0.33306096062329094
P 0.44198207646035126 5.475684680371864 3.570045842764762 -3.5347870789182094 -0.49734236844460156 -0.1551737890930876
Ni 1.4718490747116493 1.371035256991428 2.600704335816342 0.8738696277816432 -0.5030869842378626 -0.6780430981642
Ni 1.6139737836279977 6.536747616710254 4.877131332077863 0.6305342539499593 0.1885744760407204 0.6444135830352128
Ni 5.860983822617315 5.515634571418766 9.309112179347979 0.9078264443430623 2.248564954570799 0.305402575476074
Ni 8.850910610442604 2.2429917592622397 10.21573335541954 -0.5710001031400683 -0.11213737882790366 0.15120657691522346
Ni 1.8639895110405347 5.397771958495927 7.2701406937885205 0.6290106182165812 -0.864339319693705 -0.8505193830914772
Ni 0.36108513492388106 -0.04599273170945924 9.26291257561584 0.6472183994738596 0.1581650105109276 0.06003294482318049
Ni 1.5958815549776402 1.2028247118816104 11.452768167052056 0.24182407939348027 -0.8037402179544094 -0.13404137798984656
Ni 4.217839269124272 6.920141358746789 1.5817634467630184 0.4899789861009948 -0.4959524300756104 -0.9748527897649405
Ni 5.366523395069732 7.775439219191092 8.004364888291247 0.17443315154333183 0.6094977449946342 -0.06490904196855918
Ni 5.269211884400183 2.662442931918896 4.684707686979909 -0.1592646713330096 1.512866410676659 0.028489622799260615
Ni 0.3806635757371916 7.190109348346957 6.93793507469775 -0.05641694533714799 1.6287182622416723 -0.04501795947158699
Ni 5.267660344230067 4.427124798737684 7.422512826495096 -1.2259786061753208 -0.38630362199751533 -1.0014451955414883
Ni 7.702299071171769 7.527610165351643 8.641141472109501 1.0564166666813612 -0.40192050259916584 0.609507515186647
Ni 4.222512036303276 0.4503132120404707 10.509641337644565 1.3138162319155953 -1.4047918890642193 -0.1330327342196741
Ni 8.205379166331106 7.45209280373834 4.755382610062271 -0.3814568354281753 0.984051682655389 0.04012952103103412
Ni 7.081483389770187 6.0065473252440365 7.049882780972061 -0.9044313026185842 -0.5924675289852248 0.08511379905120825
Ni 2.147449548786681 5.402898392391339 2.5338547304867345 2.8215792599274176 -0.49589509447511365 -0.607194036562122
Ni 2.2234387237850477 5.660816994003706 11.669161746778151 0.7285984425142484 -1.018164822289014 0.1459083046307616
Ni 1.3364749265354545 3.5255257132167634 4.116135357306458 -0.1862013478228535 -0.5097667102508834 -0.2879452992315751
Ni 3.7765395074053982 2.4899679196748417 2.6423500330491785 -0.26604284273152895 0.10140019491605762 -0.40293017481060284
Ni 0.9233206479025433 3.3556819679278767 8.39332784293841 0.9839465245360924 0.3444825721966713 -0.42873299480631966
Ni 3.7234423549169877 2.5613387675001738 7.098194656935798 -0.7361888532669967 1.198760393889316 -1.6190989939843534
Ni 3.7287139621616503 6.450532793924046 5.875249826181485 1.4201565444457478 1.0349070747443596 0.3734632756997375
Ni 0.7241500713981673 7.459460351212809 11.498782674763902 -0.22106010737325157 2.652443095116967 -1.0303045429753417
P -0.166835027625668 5.5855264657486074 8.32517621413271 0.8514838038872755 0.2012865242907501 0.35176907855575545
P 8.410581695496845 1.756887872630896 8.048944901845811 1.5160872316068017 -0.8728147041545677 -0.7636315228589816
P 2.027527288971348 3.5782962256693605 10.516811993764113 -0.9402699095837485 0.08377194031133316 -0.14006752957926846
P 4.0271177815462815 6.004741731712731 3.6270427143474175 0.6781413143049612 -0.0805007257592291 0.6580458291066668
P 6.800563885635927 3.994961884687271 10.359114721140338 0.5303738449782737 0.10662673342231958 1.9062562500969946
P 6.298490930587016 7.851963720914821 10.142548748062008 -1.1975995408119957 -0.02612369367024533 -0.025446465097562626
P 2.279929303312192 8.217501140993532 6.129609866070346 0.31805960211845224 0.06648564242705969 0.7183932198464724
P 6.996448100446641 3.9272657372648454 1.5907142910777512 0.9503710025734923 -0.8838617059973487 -0.29913114064506546
Ni 5.2675696108867855 2.5811458563385536 0.6946934915017855 2.0853135306758985 0.9533264856573905 -0.781871442905776
Ni 1.5315697612596195 1.0536137288549667 7.259278097930843 -0.5494131209979118 0.7220660407123692 -0.6641665972924239
Ni 6.787362184188449 0.7842282473186671 8.99499334490697 -0.8370465454160229 -0.7861248188654912 0.7127275369202628
Ni 2.947327483154564 1.977324530133621 9.38257624540282 -1.738370669864193 0.13098510766202603 -1.009800766595035
Ni 6.574066240801987 1.7950503168151508 2.6711932555449764 -0.25938034310968877 1.059867344234123 -1.6244273481758023
Ni 4.192443006339743 6.80217893914634 10.517064232458436 -0.32335273219659144 1.1578927091406768 -0.34474353916754175
Ni 8.14228319941306 7.456094144177061 0.1058522402726503 0.19421264816310424 0.032221064817234836 0.42353885219988996
Ni 7.631599650086722 3.7494011644298624 8.449342072413325 -0.7705593603270665 0.28613369994413296 -1.4599991303639823
Ni 2.9932839215267104 8.348520088692208 12.511256998441544 0.8846826592367473 -0.7679188373804259 -0.4522241359497243
Ni 0.0458067283557319 4.706465542698845 10.474941277839937 0.3246084589805635 0.3736057148148727 -0.22177204583861163
Ni 8.751430572868623 2.968395765464559 5.973360697605346 -0.5106272584789657 -1.9347546146470034 0.9155904045591973
Ni 3.7433401770986494 2.674900619951464 11.567332622946608 0.03960758708929308 -0.16039647094460763 0.15392089052259297
Ni 1.4266366497544123 3.400105012798564 12.639286282479093 -0.5860834798357519 0.056943507264579356 0.4739928950853837
Ni 3.016774784102325 8.432629897914282 8.26832633056617 0.26251168964981886 0.0009579930378951243 -0.7677630285288519
Ni 5.702917265286383 7.718912346326635 3.638011468216734 0.3837296906227521 0.24163176087701613 -0.39748072166025744
Ni 3.265456731368622 8.029782927078163 3.5791291577606863 -0.8432907265535219 1.298839041780473 0.3360673515497825
Ni 3.6863687108521126 4.610106732133752 9.488282404992788 -1.284673034692736 -1.0142300060109821 -0.05053683240728715
Ni 7.3763213887638495 6.301122197542183 11.285337021361029 -0.1286824276707784 -1.023996598479443 -0.592091890813361
Ni 0.685438690487059 0.10945616866779673 0.3986169823723281 0.46824082309295484 0.43229268713312 0.26832443967685404
Ni 4.9801989660452 0.33235351444031946 1.3779591184172495 -0.7058621772589972 -1.8593284751972046 1.0446934647071622
Ni 6.191752225550504 5.4740877735301074 0.23907237887933927 0.28032506368215593 1.0809434481781317 1.029867198327607
Ni 7.797324101590622 8.988843438899341 11.302932938623636 0.6053790948405703 -0.5152362180058868 -0.5073760985315198
Ni -0.45550769594334417 5.265255910633104 5.567093987060945 0.7303642761654195 -0.7475772976095963 -0.6424505457715709
Ni 7.984715675470177 8.937515586604922 2.6166670528998797 -0.10378437887751803 -0.27125369750850703 -0.473283784833501
P 8.731178890648163 1.493407317075365 3.8558658547696636 -0.8936702074473384 0.6966473435289486 0.012499418018591377
P 2.0787644079224856 3.414186827675873 1.56099367715242 -1.4889263549212937 -1.225501409428586 0.057236613024965945
P 4.509265694410545 0.9960252758741149 8.138409792988366 1.278912735170191 -1.8939740902955318 0.5300622272751259
P 8.62508439234895 1.6302694920813787 12.342697129960094 0.7065298927499831 0.2782365565842434 1.0381098979523733
P 6.506052526678077 7.622798515788403 1.363404582821443 -0.9586730946812845 0.07706058972942857 1.1812272701015594
P 1.8647244511211158 3.3496935672712893 6.314437315668762 0.08968676313387135 -0.37885745013211525 -0.5650266591654527
P 6.625657219791925 3.922837950112702 5.920109298433357 1.5430771299320845 -0.7841458407622495 -0.2356773430657941
P 2.32785465523355 8.39173638009725 10.2806185838671 -0.6126797422670415 1.0790989387702252 1.4915825615972182
