# total energy = -381169.2526323561 ev
CRYSTAL
PRIMVEC
9.27633145025459 0.00000000000000 0.00000000000000
0.00000000000000 9.27633145025459 0.00000000000000
0.00000000000000 0.00000000000000 13.57684874339724
PRIMCOORD
 96 1
Ni 6.713986084498117 8.871939073871621 1.0513868296349758 -1.927510274379764 2.748061136133609 1.341675677330025
Ni 2.9473131393014964 8.410682767962632 11.605993063259087 -0.23002785808950063 0.8056027250844449 -1.0546847715919192
Ni 1.7680873304413385 6.746712981916807 13.396901096744564 0.8589996526483464 0.014733963776064948 -0.22965787634459162
Ni 1.6463262035939128 0.24287105522580582 9.843310123530937 -1.3798784136519913 0.3794045808848369 1.3312629666371332
Ni 8.070640285344465 3.9860118027547027 4.3337573510238006 0.18475253119146892 -1.3769941501256606 1.0100833308324604
Ni 0.1200700516208306 4.7502330944047335 6.202189541852665 0.03958110472673184 -1.6308481641004815 0.9118435359222554
Ni 7.901514210022031 6.133510366563903 7.897721118084813 1.3366918509621881 0.27329258231540676 0.8854516761922879
Ni 5.174680917049165 0.741997984352425 11.345846695940642 0.07730767274322815 -0.9230646014490556 0.24456924623878526
Ni 8.901614058237378 6.656899540644769 11.786524388121281 1.0024875207630735 0.045310036790709066 0.7128175255309078
Ni 2.117702987134362 4.793757641652038 8.865410391784526 -2.213952763813568 -0.3715904841570568 1.6420260350941718
Ni 7.934630713362371 5.4262364737952025 13.604274414342223 0.49456994790578696 -0.8441718436068945 -0.2727518793205883
Ni 8.58553233980075 3.081467444990013 0.709185744684231 -0.28619232109621034 0.3204527849409772 -0.6403301569944585
Ni 4.990694158715184 3.8020621497465927 6.525549469958993 -0.14807085949971918 0.06497820464359777 0.7862798563861169
Ni 1.6914741088480971 9.138494458601226 7.593911986180194 -0.3183452516796711 0.19065089895377488 -0.07773061921325967
Ni 8.971186544246496 4.9666499075504325 2.600034190505233 0.8357044295658318 -0.9402966490566258 -1.3116935291456377
Ni 5.384910417105786 1.406662903789701 3.186513550165461 -1.1083832895566395 -1.42829460017185 1.2580595458702655
Ni 0.9193772117818337 2.5824750226696778 9.96768810348545 1.5530139294298222 0.05842471979579616 1.6899974207671282
Ni 4.188189447097201 8.119470894191398 13.417456519644244 1.6732963059623633 -0.03783763967306387 -1.3869623170819663
Ni 8.758424605699144 0.7123888619400909 0.3880846032903319 1.0765010961360622 -0.28924576321055345 -0.4140478819903192
Ni 8.718870328320092 0.8550217345902521 8.472455714473556 -0.11226979064070987 -0.11782054525560998 0.46250752015360347
Ni 8.059573621903281 0.10868521001029842 11.177534154887944 -0.08118283942791825 -0.9313247845753188 -0.49236805515846177
Ni 1.3624055263564336 2.390473513947446 7.670009443743821 -0.6259564047712897 0.4947308989636835 -0.7841712946835463
Ni 1.2525644854452371 4.717552578643383 0.8305999367347578 -0.23935864857212324 0.5822630776483971 0.46026474686601376
Ni 6.881238340864039 7.685143778533671 12.891747335063261 -0.3851833923501431 -0.984611154703285 -2.3465494389370876
P 5.303427121491906 8.227744235084522 5.964255350234065 0.3079096581686439 -2.4733433913359018 -0.0503429712289262
Ni 5.765620336879151 7.115159591489632 8.094965609352693 -0.9491394441592365 -0.7246173463793134 -0.8512614034638243
P 9.103327886006483 3.6126301848409645 8.590438591514113 -1.4779086636545513 0.5259420344591652 -2.6174899760805506
Ni 4.191185702161328 8.87198545552896 4.415177567583699 -1.2852003679511155 1.0740945435770985 -0.48203607710483437
P 8.286917953518145 6.763818537143583 3.3742544398444942 0.02002863651610099 1.7251148332955517 -0.07296842193792595
P 5.70499951073654 1.8905534584803232 9.072892242460359 -0.7759581627451346 0.4573642853897672 2.1217026108278945
P 3.7300314358984856 5.422702191505939 7.730290756154709 2.0453498457987678 1.6541598422432287 0.8161879567994589
Ni 6.45612262235392 5.68160460277454 3.9485818052817967 -1.107384930199112 0.7366801910811184 -0.24484075473261704
Ni 6.578366118437676 2.216458811941439 5.285942164308095 0.8537391755803555 -1.2761071474005956 0.6327759987962844
Ni 6.260364199387196 9.057836756487987 9.246037752207826 0.9073122237108052 0.5095417387242708 2.2586958723572135
Ni 8.474643073433683 4.843497330982824 10.114277331506665 -0.13406014704292396 1.8530917502588728 0.9698476232408654
Ni 3.6192534855090326 5.691613764428385 12.102416869395965 2.244976208778276 -1.3026751276971114 2.5842494688598654
Ni 4.501562476745208 3.6905791981655813 2.4054918945939483 -0.17851014982618288 0.09556327651930639 0.25455001160058094
Ni 1.3471830664176383 6.455120778555389 7.211805050887766 -1.2901962785038101 0.5241810859040005 1.1467757732919088
Ni 4.170944746898408 1.856388729684112 5.453168446945905 -0.3927663469037236 -0.4661857403361391 -0.24547838831661592
Ni 1.8784849512406079 8.91237460274012 1.0014365675798689 -0.4207409777397786 0.1724713998312707 -0.3769468633729637
Ni 1.4847881674122074 2.070458630968436 0.3582537765559154 0.027670983552707185 0.17630311487253508 -0.30694240915936816
Ni 8.483168022052666 8.850909630433932 2.409917632337275 0.8047984840155946 -1.4819774344072862 1.2274657322438087
Ni 5.468647861266361 4.943505460538065 0.15730524613291091 -0.21936420772806736 0.11615678439994188 0.2284476580865743
Ni 9.030851908247916 1.9926673152787737 11.886327510751084 0.530774422850802 0.6530463190095462 1.5694083116274455
Ni 8.299190540050153 6.705498241205005 5.5713544756456095 0.4482127007974861 0.6293343201045871 -0.7706354649806406
Ni 6.713401675615642 6.698457505620882 1.6169758908295326 -0.07843253037629073 -1.0115514307375546 0.5940377016858222
Ni 7.015105080277052 2.5260099930246778 7.604583477900846 1.4934093303933118 0.3678747258683664 -0.7747266043308786
Ni 4.029749705625769 8.402955583849886 2.025285679619289 0.5672275234715135 0.13259718934415227 1.248354916987992
Ni 7.886449447718189 0.4670577236090027 4.345826785896663 0.4745937618941762 0.5639732782002739 -0.17939640908587814
Ni 0.4144330951917053 7.554829874072858 9.649066525492918 -0.26226717773918057 -0.5458721977241889 -0.5968713144798753
Ni 1.916221067651954 6.226858090125205 4.883918017720975 -1.1003714749957565 -0.36085535712773986 -0.912560359483622
Ni 3.7949750325051306 0.6098427280952372 9.480129687332429 0.7952854023188368 0.2345308881661767 -1.2461347694082214
Ni 6.865357261391025 4.138718771378984 2.057150805844612 -1.0246391171594482 1.7190660559983104 -0.8483018066148681
Ni 9.029553221842413 7.698158471583111 0.5118039637106275 -0.35801994456147374 -0.9533822785959905 -0.9943003569665908
Ni 2.9370535166980187 7.674967642913404 6.2692045432760874 0.5185922789623133 2.7176719823187905 -0.07028753267165315
Ni 6.816582310532898 1.3616726961704708 12.941384057114751 -1.0876247168530493 1.3073781895997354 0.19561724182011472
P 3.1796945189034207 1.4941016042059612 7.37999514436509 1.3446540432320584 -1.2690281290666272 -1.0015297848354943
Ni 1.2129081684200393 3.4116491872578223 4.483238011563553 -0.31051392856071036 -0.06970774890878317 -0.6451273212727857
P 4.861382098052902 7.336585623627986 11.178104649273218 0.677555102784188 0.5425631879556139 -0.40319345577431853
Ni 4.332185940473142 5.038532200095053 9.883741941866848 -0.13024128751746603 1.186415756281034 0.7871193215682767
P 2.6749693237359344 3.799112276339806 11.105291940682369 0.9658611277892912 0.11705641339607582 -0.5211222444730186
P 8.844175013788249 8.114739965142777 7.728702648207407 0.5712261031079452 -0.5339268524368546 -0.7024922323454998
P 1.9416289395424842 3.4709342216690593 2.326297997586342 0.8782433313693068 -1.3123591877540948 1.0316800831666297
Ni 6.272386324969571 4.54763801514618 8.623430792012783 -0.0618039206806742 0.15979149037075707 0.1831245086697427
Ni 2.0268598730693883 6.42401723914358 10.991056701554836 -2.869852236001193 -0.6258988120604768 -2.222524564642979
Ni 6.975662118875615 4.87260645912904 6.157915467022755 -0.41030101335337726 -0.3454670475971276 0.7930943082047889
Ni 3.065762615814888 1.4433786237395796 2.049873523808058 -0.6079059750274821 0.41098029880858894 2.6854100369612914
Ni 4.366814485842747 6.132814641703812 5.745600158305168 2.23702301536947 -0.5232153795566215 -0.05658946635927028
Ni 5.519324460075404 0.45103378863138244 7.344613360880292 -1.8341802580663509 1.8262846573683582 -1.0868965804377733
Ni 4.2182354847216725 1.294001858112268 0.2101645657363457 1.8374429879780225 -0.6305370821634366 -1.3406171541585234
Ni 2.650461255997789 1.580093196913232 11.727641018862606 0.05206278213351034 0.7010704122973088 0.027993142778816305
Ni 5.086963926688869 3.13050213312924 11.615428947628217 -0.056863545956263355 0.5233940712263309 0.11816892973396423
Ni 0.6122592124426205 8.63025353380741 5.49524310358478 -0.9990494416158019 -0.6203526854312671 0.23125890228312432
Ni 7.602463836160435 2.6339772149793617 10.079968819572702 -1.00676737908535 -0.98498936397831 -0.20805109670809332
Ni 6.26306361184435 5.607486714346158 11.448962396537626 0.03457079599633401 -0.2027461395554121 -0.02706368898601146
Ni 1.0360085273275204 6.818381918837667 2.323623631224151 0.5828248636891382 0.6419926322985459 0.014913683887038832
Ni 7.362707773041544 8.825826430144778 6.273522675574387 0.5440099477044695 -0.2098027892918774 1.1050624527135227
Ni 3.9903716785446077 6.2470619400622525 3.3456480888638387 0.15819689219012756 1.1793773613770138 -1.6664260612050914
Ni 3.907765946823114 3.1419862314864786 8.549640358085218 -0.014975904583541949 -0.7290638121864411 0.5494915396443311
Ni 2.108037049744828 8.50514365130008 3.6529330621694736 -0.6259803160306896 -0.45762242414716026 -0.8786984166288544
Ni 3.2373190899819067 7.412892726282789 8.870705321786394 -0.18924939062055796 -0.30081624165697224 0.4062666953830036
Ni 7.558336327367718 2.2126091343822676 2.8183906845608657 2.3023969127895896 -1.7711416936476272 1.2495831329681384
Ni 1.9274175997336882 1.1580943257763217 4.924703264285815 0.21841521355123678 0.7501954519587337 0.3977031220837086
Ni 0.8913766052460304 4.068923653414636 12.300339460494145 -0.18516133659411338 0.5067029837238951 -1.3244397730677127
Ni 0.5345680811328111 1.4711055784970806 2.5069786713851694 1.0067108148158017 0.6173236687969562 0.7109118238677627
Ni 6.147962890990864 8.113552594714887 3.525595004843557 0.8640845233704215 0.07892798195547052 0.08678115945130216
Ni 2.5653787437743705 4.266769250961635 6.475980465127216 -1.7092714385053915 -0.7398881564954548 0.6286987434031173
Ni 7.3443684657295405 7.362188298479343 10.275380307742527 -0.8480752924263588 -1.0954778943488812 -0.9448048213396244
P 0.878783057645233 9.17246438443661 12.046358143069257 -0.36452689244205605 0.232579935087393 0.42535250836986094
Ni 3.446546746239996 3.438949430767801 0.2944854911462508 -0.4936906306246272 1.1675130058392604 -0.8755344170785759
P 7.45629668122101 3.8360599045763824 11.962018664996418 0.19915482265972798 -0.539697950592677 0.7882968868161456
Ni 3.3979944273370997 4.382537867680807 4.4890218042337775 0.5556434181783398 -1.5273334939445826 -1.9282975461677498
P 5.573155011583525 3.7602537238208464 4.432990906901474 -0.9554880120850834 0.8252372114859207 -1.2286823782597291
P 6.077147376565049 2.1686393232245043 1.4180885612586918 -1.079649669067373 0.20962641161501316 -3.4510547335955595
P 3.8199932984740097 6.292348990288455 0.7878267723363517 -0.2832638345955057 -0.9102954747088452 1.2330421978903214
Ni 8.915741911062963 1.6938395733724072 6.1656676972304645 0.03284481444416279 0.2709598204171721 -0.8732939577838315
