# total energy = -340859.9814737331 ev
CRYSTAL
PRIMVEC
9.39592987819013 0.00000000000000 0.00000000000000
0.00000000000000 9.39592987819013 0.00000000000000
0.00000000000000 0.00000000000000 13.75189313188098
PRIMCOORD
 96 1
Ni 1.8596424161968046 3.4875060373110363 6.80498708823095 0.19178578388916648 -0.530954400072092 -0.2888230738508381
Ni 1.1931327434232772 6.353198839671141 6.523623153076654 0.06234565211675714 0.37166787436221155 -0.20497708576845988
Ni 8.525603569469112 4.39459849134325 13.438652551765225 0.35355213859810725 0.3333342688893356 0.9158729687966226
Ni 4.9732750128101495 9.04803605545019 12.657916561016231 -0.4002654834942461 -0.11063971123645461 -0.4809922092213523
Ni 1.3475736407304055 4.6901192738524555 8.672741010581266 -0.5934170373826877 -0.3216915424440847 0.24549458626653203
Ni 4.201277236729015 9.103415665398977 1.9455766501008787 0.41291325416524377 0.2919253669252456 0.6550402095111235
Ni 9.143254407540622 8.835913545405429 11.010645647002573 -0.008737379872997856 -0.2453585749093 0.7689868736336241
Ni 8.662474078143015 2.962640005524609 4.516919402798677 -1.2535081790541573 -0.587133518366821 0.40266560829530657
Ni 1.7416765181806824 0.7037006419115133 11.927140607935998 0.5272512401888919 -0.06417576334696046 -0.43276885543859017
Ni 0.47933899377389705 2.534899699567943 11.956157118191147 -0.14087922684728643 1.198824414358032 0.3963869743754464
Ni 9.03640389441921 6.712997177602752 12.430776536451424 0.01485737672780667 -0.4124671677667607 0.15574097445046728
Ni 1.3797453041957344 3.7643665033359706 4.588153704608269 1.385132462962079 2.7681602208763296 0.39984176569326624
Ni 6.744605085283056 8.119135648467326 4.277540240141016 -0.7467473455091334 -0.3488639890938185 -1.1541736084178769
Ni 4.035767934175929 6.536109404121946 10.596645009119898 -1.2443409107325925 1.1650241779791355 -0.16409705972464642
Ni 7.300064264336748 7.487992255274259 9.11874230600781 1.9964641758416584 1.6376821563031796 -4.431139461183401
Ni 7.120667777612589 8.228823732373355 13.147194569280087 1.374428960501646 2.036728422678344 -0.627746663902493
Ni 4.115699108562481 1.446634928088747 9.092848063208715 -0.8209581244945925 -1.3126638634787071 -2.1862892364600284
Ni 5.577818528879868 7.6232278721715945 6.542902661331476 -0.37014321018756896 -0.39170525262906086 -1.7512768364028999
Ni 5.633254514407158 2.4301444787808664 3.6383379580010407 0.07294373934757761 -0.49167077198112097 0.8394551548575157
Ni 8.297169725377678 5.967477131558211 3.9633920269016656 -0.6820231658578706 -0.9747270628203536 -1.047947967088718
Ni 0.09372533885309592 6.757928513669107 9.363595537338048 0.867810308961441 0.9919444551399044 -0.17042762992836455
Ni -0.103533749919526 4.778882622204371 10.84933632504791 0.7505080981031461 -2.3187542711016906 0.9125577883804606
Ni 5.0740369634533105 3.3475160799600046 9.125618247399144 -0.10956601855630162 3.0207052862317396 -1.383696758956817
Ni 4.322137081108257 4.519085164606142 3.9984040799305367 -0.6292201631242261 -0.34550792813739206 -0.20733735847052032
P 3.880030398563248 9.19402061598197 10.19557129138781 -0.7106665406261761 -2.6516663648519425 2.1743264076711974
P 7.628414425393808 5.783711537500121 10.351476074550048 -1.6080548203550498 0.1608317587098133 0.17269482869598646
P 5.827195900384917 6.124088488637679 4.370434039211202 1.2764527036654727 -0.2915826388738462 1.1248689459164887
P 7.063803610763239 0.8384523684267037 4.237948610951805 -0.6380341618714302 0.9012901858864413 0.8559027588905775
P 8.863950999780588 0.6406342218339336 12.866820965121482 0.5108404029310363 -0.5448635539540165 -0.04398643288327908
P 6.525473211644506 3.296280075031139 7.398421796556785 -0.677053223447105 -0.46853958528029627 -0.7332914771145436
P 2.5410352416949467 5.627278703085911 3.6649481706471145 -1.2256685311340698 -0.014642946724155427 -0.00677717082283349
P 3.883262598397381 2.510489074076435 2.380397728717437 -0.4603562781385555 0.25470659178310323 -0.2807133002595101
Ni 5.244554296563354 6.013113162355846 8.589157638300737 0.06591768573873164 -0.5067523489045918 -0.530364331896577
Ni 0.10646246122272197 4.464372665669631 2.4405072497025695 -0.3536634673649909 2.551166056042335 -0.475125208917614
Ni 2.7361980985402568 2.9319998786085937 10.121613109543578 -1.3477414239081305 0.5448244731859648 0.2364317047333154
Ni 2.0723756616753404 7.936713672363542 11.043746567920214 0.05105645235618304 -0.02352842213924335 -0.5116029921286738
Ni 6.487654594399194 6.110840227689632 12.98092043804532 -0.9336984270138178 -1.6987168029179969 0.3049508326506361
Ni 5.225649685905573 8.5180304500903 8.528951339239176 -1.1527229920142792 0.2678076479414355 1.6300156408968571
Ni 2.607680571414449 7.367094827176016 1.5520384680286001 -2.104253819223828 -1.4246845142230884 2.4854548298874546
Ni 1.8740181887148981 4.413625249087786 -0.15225446445421323 -1.0579490441654875 -0.7031897726331567 0.7988677203534564
Ni 3.2197126434952263 1.958515784960138 4.907761892625569 -1.0149447726898198 -0.6019225037505376 -0.28018005346385944
Ni 4.067291278488482 7.2462161909372735 3.9308962038599486 -1.397681246161367 0.23615813935695457 0.505373209168878
Ni 2.2974739507053874 1.9345561640966484 0.505440886620475 0.8619620777107799 0.12189960042099006 -1.9086653737591193
Ni 8.204882903369366 0.47347969198155504 6.6571534087242945 -1.6554942447839358 -0.8589451452613271 -1.3240499938284616
Ni 2.6635957493590086 7.078555220471349 8.547722527694502 1.2558543106888307 -3.030693507792703 -0.6365228674332264
Ni 6.213378009055616 7.311696425367728 10.793077256074486 -2.3484165740528136 0.4776631448481193 4.266269784958788
Ni 4.56699501040337 4.2941278145223505 1.1949771644332783 0.3546962795048795 -0.35910469298522024 -0.3559044408803677
Ni 9.107963295398164 9.448734875585238 4.237384855166782 -0.7369884663501566 1.0503768882451845 -0.5532173252353505
Ni 2.704862672822713 8.986351776638891 13.639924642134238 -0.18298824020219454 0.7637055706300266 0.20194087004529737
Ni 1.0422059238427939 0.8161680418377083 5.983696385493331 0.014249567940478684 -0.2734453058431871 0.9393962487295434
Ni 8.569980545680195 0.4637342336444525 1.93193469969629 -3.5569895831571774 0.9419915202605453 -0.2390110354247174
Ni 8.575214078551163 7.577093857097189 5.3955966860797675 2.182671437201783 0.7789105605052392 2.330002076101368
Ni 2.2687881771774525 6.764111035444863 13.023716079279414 -0.12743955640261279 -1.2854466796339667 -0.08801168942429359
Ni 0.22824968386832686 8.253535027616877 0.545535198051331 -0.05892042848529208 -0.7554073351769766 -0.6305622789744172
Ni 7.271481846036067 7.036630581925117 1.3927915526541481 2.2386458956848734 0.11265391345300597 -0.13859891545354197
Ni 7.346921766001933 2.745988657340161 9.365038752147708 -1.363884095106264 -1.4417121591293365 2.7414937673287367
P 3.4173842135838903 4.76459141305403 7.747747431188611 0.8787822345919123 -0.9939931101388173 2.744261302771545
P 6.164246692390838 0.05358122899456294 1.0070783008779929 0.25559156549121786 -0.28989830919288784 -0.4351630667023796
P 8.674989456570533 7.911053388215231 2.7666474880823393 0.38488694415564684 -1.4242330285079665 0.26943824156632307
P 2.6200925946147113 1.486464274300642 7.079612262568268 3.0562402459135556 -0.055295430138195094 1.7243046786894305
P 6.96404702460337 0.4621914219794388 8.904667321760918 -1.4644142287125426 0.2080670375476933 -0.18469622403223676
P 3.086891780543741 2.6468803903330675 12.230864976710267 -0.4411357393460467 -1.3838952481208682 1.1438256895246495
P 1.7567945691490567 5.726105092200491 10.474239534296718 2.3794531316436442 1.644157222504562 1.2185362909646629
P 7.969721573576655 3.118208414401784 2.435268079273753 -0.8418249406412727 -1.5288514732510057 -0.875652173603363
Ni 5.207073932789056 2.372218571869724 11.293342864588448 -1.4018402626350632 -0.3495278479300626 0.49935477088894
Ni 4.785478564889144 0.2091825236258644 4.391666961261129 0.3538843251265454 -0.02183843603133013 0.40708430618829244
Ni 9.004072500148125 0.1585544353518484 8.807207100832043 0.6353650996796993 -0.36801382254939197 0.21701781898307784
Ni 4.599495531409962 1.6633614437111979 0.4698030646702282 0.9773228485719878 0.6652084082933769 -0.7432760991310812
Ni 7.488574802918783 3.062161693440719 11.718042647677889 0.6799140899346678 2.1117976930093567 -0.36816140387084983
Ni 1.170103319605076 7.372459903063487 3.8887329086980573 0.46214473749754603 -0.1740081481907713 -0.07784657596583368
Ni 5.44713054198172 0.8879097238538213 6.994529299899579 0.14796441582884196 0.5987569615383623 -0.46320043245557
Ni 1.8869751758406834 -0.3949522694997118 8.918831685859628 -0.10438061770062024 2.830698191509551 -0.2298792483267783
Ni 7.9470585910187195 4.753306901423814 8.26648261881291 0.34172223584271466 -0.1782440406489898 1.5915532231556009
Ni 7.042822499630623 0.9210068863995632 11.45888881126756 0.11154036867385307 -2.429201663821681 -0.9875941485910088
Ni 5.416217933102944 4.758888083695545 11.102233411837455 3.2529854306905266 -0.027633445446552413 -0.6120950734081652
Ni 3.4913677644384458 5.731357416930959 6.021665337614649 0.5230354023353314 1.5448172525516426 -1.9703836767045229
Ni 6.848016688115828 4.3186417952411125 5.419318589920572 -0.24793353472532786 0.6357458800578858 0.7839748624020241
Ni 3.399597718566406 4.68250857075464 11.856551806500258 -1.8365932383832173 0.8506024297235867 0.22233537454124938
Ni 8.749292469036602 2.4371256545854045 7.770451755837449 2.087846838620714 0.853206443005337 -2.1666128410770233
Ni 6.426449508005167 4.507791257046175 3.0044312218683853 1.1923285222210431 0.29998089023987046 -1.4679235274173814
Ni 5.363271868959506 6.485408967188851 2.1006564706310336 -2.095078837592779 -0.04327243753538999 -0.47949351318863875
Ni 4.594947901410775 3.347581851468257 6.131089395894693 0.5347516623309951 0.234183532129087 1.3706898051741878
Ni 9.423365865259191 2.218341430347619 0.6515081313340577 -0.48744284994270254 0.8708820059082292 0.034708350015462804
Ni 1.6398340356162262 2.9773728233732175 2.3969552361235706 2.3869378700564634 -1.170675976948274 -0.11324012497377915
Ni 7.120151001476317 1.7861662455487697 0.006906008366535222 -0.47588085613671594 0.040381232030524 0.6817053775071357
Ni 1.3782231635761717 0.3865983483586418 2.0523463582264383 1.8232260730476924 -0.12881355393200394 0.8785572630652999
Ni 7.530236355432004 6.40957441817347 6.897165857047132 -0.6429058881414347 -0.02017827472008783 -0.37342985135864076
Ni 3.0845521940358944 8.522192846969721 6.176511199494019 -0.236356885631322 0.3753748909001535 -0.18842226673357226
P 4.239283772569335 7.366625030688497 0.28171064496208487 1.2258490225759922 -0.2918199516956329 -1.0040314682114255
P 2.603029586188007 9.08410702976193 3.8231916007242255 1.4061422324445267 -0.18496207609911372 0.3725590187179132
P 9.282342355635617 4.676936784412661 6.52143672022374 -0.7098946954571581 -0.9832579831095003 -0.9214350362654324
P 0.21209808062740979 2.6264348471962236 9.849862150116905 0.439370677025824 0.27627120532775645 -0.7496236386156638
P 0.48151227232516175 8.304601905810236 7.139460576706339 -0.01447608212898797 0.1521709977110218 0.26223092518460644
P 1.0507938036346485 1.7624133351397888 4.077518748021779 0.24047759266791485 -0.4809950374348297 -1.5745230071461918
P 6.1019704700052655 3.7881851852532047 13.2395528003545 -0.2619977261278778 0.5967769549938561 0.08413600851897123
P 0.5672971109462047 5.997027330623181 0.890664610456635 0.37546950749648883 0.15070546890908884 -1.7113440047637045
