# total energy = -340891.54966070456 ev
CRYSTAL
PRIMVEC
9.06895894090407 0.00000000000000 0.00000000000000
0.00000000000000 9.06895894090407 0.00000000000000
0.00000000000000 0.00000000000000 13.27333811443321
PRIMCOORD
 96 1
Ni 6.174881934842255 2.0588532307580305 11.497418656412359 1.3337227410315353 0.47638659212854095 -0.32571737577402615
Ni 4.863202105673906 0.5389773077374902 6.023587211014754 -0.7678008237453228 -0.002149442242835008 0.12667748142560764
Ni 2.4044168479616665 1.3884122920373385 4.962742093760863 1.5156054068743767 0.3688082934262294 -1.0526996228410903
Ni 3.501842518605034 4.430104895323894 4.858917929399316 -0.03373673013081287 -1.8866631584564153 -0.5895249014171331
Ni 4.871899237442179 4.73296278416799 2.403548948576658 0.45100106217590064 -1.1294959031655387 0.24350763774349035
Ni 7.22281829572601 5.918738254275923 2.7153669690026665 -0.4693224861929079 0.71137025156142 -0.6344698415589395
Ni 5.128786572653974 4.443109782660394 11.497976397396455 -0.08871102948416335 0.4310919819567995 -0.47304647201171435
Ni 5.487699697639568 7.811012844450382 12.643784057894424 -0.0182777152632653 0.37434310720152947 0.29544160760862026
Ni 1.9210231904929436 6.312412699457339 0.5157698414236096 -0.7957314887173199 0.19631992431409415 -0.6361634272112786
Ni 2.7500711547562138 1.5130651347431956 0.4949193975774811 0.645511701195398 0.30966829273096347 -0.27925239944326746
Ni 0.32507321103342096 9.119291813959604 4.710097217611841 0.29365083425678457 -0.10782229639231755 0.3890472461809235
Ni 8.621306201313455 2.42674462524372 1.2946637412258972 0.26415591012146117 -0.8276877299089423 0.06195715842908685
Ni 7.016807821014751 0.5630000734736521 4.949335451536631 0.06971931887300896 0.5402062576876633 -1.267359740225269
Ni 0.7277204843394764 7.407271854677952 2.612312759267946 1.4344223103361424 -0.3414910936685151 0.2931440698236952
Ni 7.626704388843898 3.7726234991442475 3.8853978192327068 0.24180273923724166 -0.1188477009685437 -0.5476760837021472
Ni 7.713285741285718 3.9930898946465674 12.65142919040814 -0.05379262034042348 -0.7698628484806741 -0.5518194164465593
Ni 8.072135383557676 8.628370920445347 7.082613095074989 -0.3691242820047514 1.100450664973124 -1.4055776181903084
Ni 6.876674265140549 0.6382624580739896 0.33002667648892764 -0.17826538080522847 0.22157818466025067 -0.016468944189300668
Ni 1.8797684955879637 6.560485006432677 9.405168983801703 0.12227472437222166 0.13639830825779736 -1.044039376062931
Ni -0.011861291595124826 4.78992491621859 1.490569581717959 0.5200115279073432 -0.38263902866173455 -0.6223717727438249
Ni 6.7350987447708786 1.9949352070846305 6.85003782539436 -2.025480103458034 0.03461193364691458 0.49103905193439307
Ni 3.427903295136074 4.189650513985 0.2665376145805322 -1.2335155379823144 0.14374729242370082 0.5245536387520707
Ni 5.6967664115644965 5.373149675361091 4.82971678802219 1.7367963833985378 0.5423765258661046 0.29104990629882777
Ni 5.409443649643291 2.8434179506799233 8.912436112261064 0.013476437219880016 0.7661838569671902 1.1571226637438716
P 0.24329750001392403 5.531121873767298 12.655517477166363 -0.12566266700784812 0.19548508711762463 -1.1535768553741421
P 3.916157914677576 6.157342567960252 12.7988034032206 0.3397304022236665 -0.1225410906597309 -1.365063974346978
P 2.232106625232581 8.376988443401794 1.2459081102567477 0.4569606221934453 0.49269149993615147 1.543729933024735
P 6.306164186643636 7.76647518635446 5.782994074601768 0.7323856774708226 -0.7295667199647887 1.0751227277312967
P 4.754628527436401 1.0744539972658527 12.725574279248466 -0.3216946277678782 -0.6290113895475297 0.9420578547221067
P 4.0795170747838405 6.222385142560937 8.181301164823825 -0.27050036428225027 0.6074434335687668 -0.781969401936221
P 4.672227965135533 0.9831839929739831 3.6666273190804044 0.06212582279646721 -0.3787916298911863 2.1151326709198606
P 0.2014406262253017 5.485214802848634 3.505515447036891 0.11027101504312622 0.021547387153472566 2.246444051573054
Ni 1.493376424556625 0.9654269710737962 2.6555698803402192 -0.4829516469405683 0.47648660804151494 -0.6542516521715571
Ni 1.914139850542871 6.527156581773235 4.711026785918668 -0.764287925496058 0.09976343064358302 0.4814223547802354
Ni 5.924723767275986 5.531466494212757 9.339466188979195 0.5003533873567835 1.294224940047229 -0.4255214298475575
Ni 8.1850257863225 2.0711235324081594 10.149604466641811 1.7690439305783339 1.1419526408716525 -0.13188627932005673
Ni 2.518504353326504 5.251970243987088 6.7874148490791555 0.1961718287720041 0.6304270389481336 1.965485210961641
Ni 0.8004662327920603 0.2883185336293978 9.062942743543557 -1.1039427372867827 -1.8259807529746939 1.111247241367996
Ni 1.588110771221258 1.4179680297149222 11.276192282138213 -1.0800173368194368 -1.9074921793866249 -0.33590948581567953
Ni 3.9606502279780442 6.833895985108281 1.5267656112419763 1.0761041178079598 1.4683968675093744 1.1642412770665238
Ni 5.711712056146472 7.975723279461207 8.129588146295099 -1.557852488469046 -1.2755479324630161 -0.6990700940378283
Ni 5.412037371943318 2.6939615048601686 4.570979385155831 0.014303046886233432 1.3036115234684515 1.3947653580661528
Ni 0.8711279344455312 7.1465846256070265 7.135733616054639 -0.09412937228625724 0.22051503350305893 -0.36051648573108236
Ni 5.1357606021949564 4.324551280463692 7.037430633987696 0.43358080981692426 1.1406452349141387 -0.05867925900876346
Ni 8.045753781561944 7.532895076006547 9.036090462571002 0.3644381893829917 -1.0301662176252646 2.0056872371018235
Ni 4.728618752763398 0.4772893411045683 10.4241499720997 -1.0662331385511508 -1.5841548738090008 0.6504294502119894
Ni 8.191754953968026 7.119350541456741 4.667489434010483 -0.25127108373899304 -0.4732254207917399 0.734202161854271
Ni 7.278048256590228 6.093170613432305 7.245450790033521 -0.2945862015868604 0.28665074878986757 -1.4211402485152556
Ni 2.2409307224281285 5.244642525041557 2.6633220265712096 0.4452837000761492 -1.1449649453354152 -0.44889738556933656
Ni 2.384410724206911 5.412118992575137 11.44156475116268 -1.360619051201747 -1.2588745855723933 0.8394258442814768
Ni 1.096954084770635 3.2599552417297613 3.955162600832077 0.2073378726911526 0.6179510179683099 -1.2676762430244233
Ni 3.6247722590836005 2.5974405732546075 2.7272863019359734 -0.2680717002360996 0.6260654195453283 -0.05544609678344645
Ni 1.1758268219851011 3.4549015863499943 8.271598976701139 -0.3096222699843765 0.5905857385814797 0.2837947673983112
Ni 3.5264375356598383 2.6749166907690594 7.204674936168547 0.7261317261413107 -0.06514429790781685 -0.8279733794701613
Ni 4.136968930625354 7.287452767167601 5.593358512425227 -0.0016794445849519465 -0.43591305749452663 1.4443585956132479
Ni 0.8161700423540437 7.5151289851472685 11.660442265032255 0.002407581000228112 -0.6989867902954026 0.14338065311290146
P 0.17767723271914254 5.51479774740349 8.388510555926914 -0.02955123129455556 0.8783667443210484 -0.3353471855543063
P 8.532666195157976 1.613812201285165 7.929306533041627 -0.023555932943069107 0.08950344347847165 0.477864462225648
P 2.025697116321318 3.4506210376590407 10.439029413280311 -0.8314978476836519 -0.0689346181881845 -0.9119214403480423
P 4.040039895860698 6.16083411721029 3.752797847675402 -1.2539671209684466 1.199727642898592 -0.9519290910892315
P 6.907145967686325 3.8804171468999273 10.318441278039042 -0.040301527832524144 0.2464528364147433 0.7792268061940774
P 6.2125815977835614 7.775589490240918 10.420433512664207 0.1522707565136797 0.04012772125882121 -0.7621765355800099
P 2.0660086394808332 8.463841864616343 5.777193568367161 1.1433585200802439 -0.23673175247223743 0.10972645539356587
P 6.900707006731712 4.094254133306723 1.5554888184750058 0.5043807633486217 -1.3186316510263678 0.7890859583763442
Ni 5.39083414558855 3.111750312264565 0.37691410188533014 0.4956744938238754 -2.11547539897126 0.2361288287809159
Ni 1.4459729753879442 1.2678223430042512 7.09162582661963 -0.28012683162842084 -0.25201567521450147 -0.8698625635047792
Ni 6.725113820811682 0.7492193587606117 9.013114254713942 0.4781333996163185 -0.3726382086952808 0.6488171114195471
Ni 2.666301179632605 1.67578946771309 9.105337406606276 1.0307043495169217 0.0801328008968491 1.5024953518549802
Ni 6.429248099426751 1.8444902447239564 2.484198294877052 0.7136968428120677 0.6506197118459246 0.1879080461013151
Ni 4.0413458259698025 6.767447721848491 10.641912004001082 1.3812904635081695 1.6176591762140333 -0.5585294814768832
Ni 8.429706302597802 7.103044553011114 0.6741447016134581 -0.7526138315922393 0.6735123001733819 -0.8014992444390325
Ni 7.7470766828588005 3.9552269904416235 8.183305404782937 -0.0030441861429624994 -1.1248843725354563 0.7914169205023661
Ni 3.136009777833002 8.532856643298889 12.460518532583404 -0.14914249529734314 -0.25782379725584625 0.03486801552177866
Ni 0.02935259299394526 4.724918617454269 10.564595500166632 -0.06072277180135349 -0.22990907312344921 -0.7327209493230542
Ni 8.737443291432859 2.487751513048907 5.839220714070086 0.9841825518062984 -0.6136817011689948 -0.8671083977984099
Ni 3.6251259484881495 2.5593600140314794 11.522717424692626 1.0790264336610773 0.4687316466864443 0.35429133075697694
Ni 1.2483059430404093 3.29831693868471 12.553419135719835 -1.1214244390113137 0.9808244339673431 1.1276285109394966
Ni 3.069307583718664 8.595994736490463 7.769535053151763 0.0350194534979784 -1.1518835268321195 0.40212619085206874
Ni 5.80405219761108 7.811493499282205 3.536375301031761 -0.8136577341784373 0.14548458682978171 0.580080982395414
Ni 3.2155536180202033 8.405347078479364 3.569930449668478 -0.4631621230184669 -0.3321898708722473 -0.042320358034765825
Ni 3.68426463072059 4.53335499457498 9.423645174157807 -0.8054985954064128 -0.8609156387241367 -0.1179681265770678
Ni 7.246152727467165 6.363733938953334 11.680060237337917 0.9461183979447255 -0.9919246576455626 -0.4025920747448937
Ni 0.7128174638652287 9.36941370568951 0.028457486731663113 -0.8630362846115653 -0.5746089035372491 0.5208936734019803
Ni 4.659848835976311 0.2945126326885539 1.746505583121107 -0.19048352013797518 -0.8180059838448042 -2.5091873976177044
Ni 5.848734959052459 5.4369679404844895 0.2354147607720229 0.4832714921738322 1.8830705560091503 0.6434298789657048
Ni 7.986869030184051 8.805850449856306 11.35750456934816 -0.714619354626337 0.11256649594552227 -0.5821777170234426
Ni 9.142961797187127 4.837926916687277 5.930142470332862 0.6271954193847133 1.0997078732698284 -0.058641463792292556
Ni 8.091969197089703 8.819943612283728 2.520102303918339 -0.9386879098086091 1.2907624354199254 0.06247137906134402
P 8.540528982689878 1.6875428386950317 3.5789830846331188 -0.4848429504260102 0.15304465856522675 -0.24987600316367936
P 1.8196231588964218 3.1627904140287386 1.6022510922359525 -0.5724738594721173 0.3266095485709924 -0.07518317020105761
P 4.625577239571405 0.9800098572921315 8.331688085846316 0.36360977994442545 -0.15100834486148831 -1.8853123008554755
P 8.388542297283733 1.611680995898779 12.266582470005908 0.4648924754460123 1.489020971517629 1.0452123133251094
P 6.409822389053819 7.85027236835534 1.4881799109974791 0.34974793436066864 -0.9026197033311424 -1.010702195363382
P 1.8876403520789558 3.337376945489667 6.006305402570935 -0.8212692279771081 -0.42186172160778307 -0.1411175681103376
P 7.080290534651783 4.004825127710327 6.036342701976252 -1.0318022105667908 0.4680022247195875 -0.4649968622343605
P 2.3399637557018975 8.476837682993754 10.402647470094928 0.32100762900318264 0.46085327237963214 -0.5432044210840387
