# total energy = -340867.96111368254 ev
CRYSTAL
PRIMVEC
9.25661597512714 0.00000000000000 0.00000000000000
0.00000000000000 9.25661597512714 0.00000000000000
0.00000000000000 0.00000000000000 13.54799315268005
PRIMCOORD
 96 1
Ni 3.1864234088367467 5.713960897012429 0.9061171724251574 1.7206305722719528 -0.9493605590311068 -1.0113213170046194
Ni 7.117152789976315 3.2195620938039653 0.15182516287578887 0.012897167677642306 0.28369320882344046 0.8444119846421586
Ni 1.8347445834266505 4.004032522551693 11.615629302824368 -0.019023078069722078 2.044834853835562 0.6410796335659733
Ni 5.751801942863264 7.337923079492562 7.400848628805035 0.7929847792101182 0.5739926101094889 -0.03655851585032413
Ni 1.2876600697583414 7.505486340743006 7.815254363951241 0.2952598306151173 0.4359246274587525 1.1654648650609798
Ni 6.510650058764829 7.221678496861744 10.776859565133147 -0.17298613468416013 -0.48292696435021987 0.3479026536218137
Ni 3.28713538996617 0.08476190625036954 4.7767785215844825 1.4780426181292545 0.39440388250714653 -0.7374882888047105
Ni 6.924337480516215 7.783018199035505 2.2235372623426066 0.06941901402377076 -0.2186800371768492 -0.10546022391804419
Ni 7.195963617856455 5.104412739165686 1.8890642569251508 -1.3716115456575089 -1.2917975615526591 -1.1153589495435243
Ni 3.3439339852060734 2.228826492675084 12.062360992060665 0.5406256046132689 -0.5133374583212772 -0.04839587480488439
Ni 8.78397310413193 1.9877379312306134 9.24063899356566 -0.510201998016089 -1.706242678981397 -0.2656049838631619
Ni 0.38710612349667506 4.083370977538852 9.490680553920829 2.900839942631959 -1.0633010525060205 1.202103085109304
Ni 8.512060011698399 8.504932417445673 8.9186577913223 0.20776390448497767 0.49167642840807574 0.6076810035008696
Ni 5.494810515280894 0.017836573202048407 11.31476892110886 -0.8603494818080216 -1.2157106485904094 0.8013336653954457
Ni 2.831987585542111 6.4116690648110675 5.835500263945272 1.649109938524147 1.5241376127151043 1.6150788170813668
Ni 2.1710652093802674 2.172583294389939 8.019775589894454 0.5108452880270428 2.96324447301111 -1.6320151878253895
Ni 3.7681276660182954 1.3914545039866713 2.3294958933713095 -0.3244719334026992 0.20077333209975745 -1.1258580493026353
Ni 0.18619034945143095 2.5679241034024907 6.93317199474323 -1.0932050391543044 1.86858933167384 -0.888652956738405
Ni 9.109287613765428 3.1181466098651813 4.476771599856116 0.9732738753135947 0.3380599564997791 -0.19327548106081552
Ni 5.853948699459146 0.3748855391688198 5.833522125124743 -0.7384277698998444 -0.7567203975614452 -0.6920026456680856
Ni 0.8210173996939768 6.531570010727375 4.771278240409197 -1.1293868883915001 1.011787715118077 0.941397081209656
Ni 8.491575120683745 7.051236428062471 6.823961514544419 0.060966512381043385 -1.5055737336699877 1.0701615270712794
Ni 5.987790108939875 6.816414595590852 0.19622266977754027 -1.0659400327907642 -0.1033694028272865 -1.2849846523958839
Ni 6.292980735579315 3.9622666715539023 6.360498492046044 -0.858818904096108 0.07530169805679289 0.24061051870135336
P 0.9557733628268743 5.913487253009188 12.547595575185548 0.7445197417301952 1.426475287574924 -1.662858141348175
P 7.374819950520308 7.841566294682894 5.392114841361393 -1.6455325055855337 1.5681412719895638 -1.891037890485343
P 2.615003251934131 4.991630130886192 8.707254271448045 -0.636800289464329 -0.6289136876274007 1.0261311283239425
P 2.3154036213059204 7.697283422452717 3.941463352951856 -0.04590756116539191 0.6172534776806531 -0.38123700610788536
P 3.3083145271742698 3.9583511230228594 3.4603470382465016 0.8836629597229814 -1.9247975034342915 -1.1305109746936144
P 3.6241410054973224 1.6238325898573562 9.629655682586703 1.0292462769141564 0.9557618345717603 1.2434837049386198
P 7.135915950431219 2.6992754832027224 2.402438952424432 -0.25459989100190994 0.8939769400544798 -0.4176379133344227
P 3.5627233589170166 1.8195729899458484 6.213149828625603 -0.6623138603544013 -0.8020548598321864 -0.8440911109676301
Ni 4.686874565194646 2.634312552727879 7.7695164990653405 1.139861562670579 -0.29100928286887945 1.3484767594122582
Ni 4.851494222584874 5.205680117249869 8.564471896657306 2.0041566593899094 -0.5187164632450034 -1.1234090735415103
Ni 4.707340942977473 2.2570961976722588 4.2705036504901885 -0.927924500644518 0.6652572592534415 0.7037996383030137
Ni 7.4228895569546 0.6047476768344519 3.288951538008229 -0.06361294886495496 0.70330444383415 0.8529719583970279
Ni 6.90450980923136 2.608218152470173 4.623049272815465 0.21787322500483766 -0.29026289162115815 -0.47328301350255264
Ni 2.1575227803000887 2.135093999943784 4.371246178452124 -0.01756809079075039 0.6168858099285892 0.11766550773498446
Ni 9.052840769930206 7.336349454787415 0.5311649856217666 -1.0373385670039879 -1.0263668984838323 -0.7064992966223639
Ni 8.314033227479486 0.7456889107201694 5.561423900372959 0.3356744869867381 -0.32231709184322554 0.13382514821398242
Ni 1.9285603857011642 7.802207163822389 0.019753618357554258 2.759023291572068 -0.37654114329411276 -1.8593994376444556
Ni 1.6111787959047899 2.116367865952532 10.395808194104925 -0.6427490508485962 -1.4685513908093675 0.5003017081832415
Ni 9.254098113102625 2.6267776673749976 12.432139656230486 0.8277967446829809 0.721523537945338 -0.32049109437808027
Ni 1.2951209021839218 4.0982371026945374 2.5623858701019637 -0.09225041009598951 0.10763383453059526 -0.43365151515385963
Ni 0.7253891520237699 0.4585773806196892 12.906969803069572 0.5716310518558478 -0.12037262225350236 -0.33572179528490564
Ni 1.8380584519233722 7.312578465123779 10.653125454567421 -0.7873628050376504 -1.168840466401432 -0.33092257412404946
Ni 3.1742879853752877 4.242001604433607 6.728435089649252 0.4441827537024866 -0.431383030834657 -0.20566871251884578
Ni 2.531499319786288 3.207926527601788 0.6069461231137017 0.7440096348629961 -0.7141174752892541 0.13467232670562612
Ni 3.592344529837435 8.666645497439333 7.0209089773479185 0.3349090695756232 0.921110305936162 -0.7914729705512821
Ni 8.922627953887227 6.10553426334854 9.281391245121018 0.2337104491474104 2.1546194161605734 0.19805181940353633
Ni 1.2022955578120595 8.63768154624871 5.89100570994218 0.017363688089428158 0.5013039241955108 -0.7757182788201866
Ni 8.121884394365095 5.806314153972746 4.09378374477897 -1.5827644212193772 0.2709449080188366 0.3849825891932466
Ni 1.743326244673508 0.03363761656490929 2.135624404035578 -1.9964523487671166 -1.770209925861977 3.6377993555163934
Ni 4.176872054872336 6.274587839760917 10.876193236153181 -0.1562773065699115 0.7022821732172227 -0.05960537036745863
Ni 6.600041198633106 0.7361758865467586 9.555331536439416 0.21290071149091075 0.034930750438914034 -1.5983224235586344
Ni 6.308541106928447 1.0709719478595654 1.0432159850455418 0.16944238319695978 0.3991779068570222 0.9877895524312664
P 7.376051080436689 8.257068013153155 12.926221712844661 -0.6363781143252459 -1.0070936520765172 0.7996979295642357
P 8.383568926215169 4.653513721445525 5.943396304684488 0.45700330250592264 -0.05954417811222003 0.46007037146702057
P 4.068819577324196 7.673142168152576 12.594878369267265 -0.27311980418296833 -0.019721389688327325 0.217933903039444
P 7.660238445570369 3.682411402667334 11.547184959104785 0.009345702880958097 -0.8069085883800621 -1.0790565155680643
P 5.354961562072867 0.17467974756407445 3.109711055784001 -0.6646684766295069 -0.0654821408632098 0.4282347150136625
P 0.23722022165458234 9.253635282306995 10.805743909426921 1.0315083334754558 1.162214219334166 -0.8682787639574273
P 5.057259537706745 5.764622355902257 6.076518475108807 -1.0188947584765036 -0.4107571270541894 -0.5727242849200265
P 4.419848965962984 3.7688867085231315 13.187399907804314 0.5224767016183841 0.3658070447060603 -0.5799223453303626
Ni 4.868267210618561 3.622613663871738 1.795881607179061 0.6403298998841424 0.18116892760526865 0.3754476531196179
Ni 7.872168666890052 4.295717746574604 8.164467604547971 -0.13645461541702952 0.37458556222963874 -1.6742851522381939
Ni 2.275248421476928 0.2000234362712665 8.786469613443566 -0.8852835260455398 -3.1101431665795984 1.4109075150436539
Ni 1.7824817299839366 4.638231048573771 4.68728000497162 0.28496513355732855 -1.650328127201964 2.059828241920601
Ni 0.960697882492394 5.333513983003301 7.29169276264011 -0.26927626206716204 -1.6945603575474621 -0.8674164159571318
Ni 8.795330971856728 7.296740395297268 11.441524391108468 0.3734817876424987 0.29580079072025184 0.2055355293750912
Ni 5.39209910511434 7.36381383420019 4.191315152680814 1.5802195433103365 1.99508735009879 2.0089062582597528
Ni 3.0174994250471463 9.188107698261481 11.15417126333267 0.48093975871686206 0.43574490734777854 0.4823435810429242
Ni 3.721900126150617 6.064425632080545 3.590285858458466 -2.2645965541123645 -1.0966557167070663 -0.7947410997795926
Ni 0.5883912365168331 4.442703550651269 0.3954750299432846 -1.2177919565994704 0.48540550779769953 0.0924167604705247
Ni 7.902817322176772 5.470872906530829 12.733636893120785 -0.517570008345386 -0.09932454333395152 0.19798419939039452
Ni 3.984251134346401 3.8201776172950184 10.176480085347865 -1.1501346624618127 -1.1029906577861586 -0.09343748842555522
Ni 4.089128592636508 8.227752310557854 1.6496983517020207 0.09524934482331339 -0.9598110649404696 -0.00199954692853204
Ni 8.460611740455995 0.1292408713721521 1.224815978665899 -0.05430118454572583 0.9199913618403704 -0.830338537268228
Ni 4.557096810099561 0.5265551908972765 13.359256387515037 -1.5141622466699471 -0.15335113406205203 -0.3672705166254642
Ni 9.138908784685848 8.146062675128887 3.265336985153516 -0.20751862124339102 -0.011619843627115472 0.48203016356756334
Ni 6.625607971783792 3.1179151944673658 9.575220301389296 -1.0424509485298885 0.18967850773817657 0.9175292734531232
Ni 3.4478672686730927 7.00538840944721 8.524437958496769 -0.6623403427169625 0.11619046585135473 1.1575422677797935
Ni 1.6342092562954156 6.80972206228602 2.0280393855910255 0.0804269350985002 -0.04247205312128169 2.13439897534864
Ni 5.918661701304348 2.1870884115250315 11.85579497966235 -1.0476252936419765 1.1578014349784511 0.04941171766390845
Ni 0.36700908468876214 2.1768598509415744 1.2734141378688024 0.01185355690447636 -0.41590961778940627 0.7420095737138318
Ni 5.721754967610863 4.615839294681117 11.564769752354009 -0.10125492758744498 0.8012038246858009 0.8101492068045467
Ni 5.896927167141491 4.884623650936179 3.966459918562324 -1.012329960774792 -0.7831986463576318 0.7578036033232949
Ni 7.765338062642379 0.8262696035628035 12.11717589451049 -0.10880985711656746 0.4284802553655653 -0.7226463386958716
P 0.3524410225654637 0.5836675854166177 7.543535660451875 0.4684413691395352 -1.1500282187909354 0.34575038316550133
P 0.3356226771138047 1.2158287302763258 3.4425447145233297 0.02745321111494627 -0.0986444865477914 -0.048128480076110654
P 6.842879260485063 6.078930749215638 9.029330816835307 -0.36551856693136403 -0.16117602942310952 -0.9598532310323147
P 4.830768659556493 8.430138960871616 9.324772375595563 0.5102066260017794 0.24899025812461634 0.21312362613499425
P 5.3610339021115525 6.3194268872417005 2.2690853666022983 -0.21768322048121866 -1.1964476865957394 -1.2278593681378014
P 6.836556991816736 1.8324952257598812 7.02322498264926 0.3406161472627295 0.8333971215888937 0.9020795145569561
P 9.001012977435385 5.956271331757367 2.1384828470293984 1.0841755819621843 -0.6633536144728253 0.9330379106116834
P 2.4838555176839767 0.8200269417913253 0.5708619829630841 2.1807233123364766 2.962447688141427 -3.764874329490736
