# total energy = -381166.46937949595 ev
CRYSTAL
PRIMVEC
9.24476260283573 0.00000000000000 0.00000000000000

0.00000000000000 9.24476260283573 0.00000000000000

0.00000000000000 0.00000000000000 13.53064454418331

PRIMCOORD
 96 1
Ni 6.147443391521878 0.24230337206185304 3.615198519914851 0.5464326982133493 -0.01877830904876766 0.6354625444895121
Ni 7.556918347885309 1.6995755986919088 9.885799710896123 2.440276176468288 0.4652033218182117 -0.19478240462364518
Ni 3.749675606387214 3.4105499893529383 0.8720417912584182 -0.8744342420358617 -0.8122156024152721 1.1872763045091166
Ni 6.848686349537878 6.144392619948634 1.5507876201123285 0.3439359556645819 0.4794135518803228 -0.7358389261267456
Ni 0.5736726334902142 4.088560859600567 11.322078006721087 -1.6089238532235643 -0.3293634571670457 0.42873093792379063
Ni 8.108867638821556 0.36435642242123806 7.685297589116121 1.5644435114230024 -0.38541736273782007 1.303296049110562
Ni -0.032082098759481134 4.24089605349122 7.567987101838778 0.8024130145025535 -0.6284539743821629 0.967985630331462
Ni 8.891899009287526 3.443664728066151 5.001697468426817 -2.6490582378051344 0.8403529840814367 0.851352934736366
Ni 3.676900837221829 6.329269377287223 10.90388563527067 -1.2743217733653989 -1.6291057274880782 0.3291906790346073
Ni 2.2904638286175625 2.7369488707429985 10.312014687107938 0.3328825260638976 0.17002936604868138 -0.9570489288143
Ni 9.231218766331008 8.967853976698958 1.6668805721890758 3.8524990678892554 -1.3351808136343006 1.011552202068503
Ni 5.938659678763868 0.6375622615675846 12.763362341354874 0.19717713010806687 0.009455746096261135 0.7341941914344711
Ni 2.8258187711478318 7.014602099310637 8.512168547089606 1.0031079279558917 -0.5333318991653331 0.3073990370808125
Ni 1.5096881801633255 5.061932641949935 9.583322180742616 1.2111857641368624 0.4189458335125688 -1.2269972772478224
Ni 4.398306621908269 8.242824245173999 12.009975225818497 0.5058696891893224 0.4908716731185933 -0.08752755069902345
Ni 1.6869842323805198 2.2953635526594396 2.018041020841682 -0.15872911054451372 -0.3115182014555087 -1.237214069879824
Ni 6.0604224435856775 0.5854144061422666 8.324782761251083 -1.5669505941155724 -0.29217116438746454 0.46069592086616135
Ni 6.015816465279913 1.7356486613549336 1.472309757057446 -0.3790130018733731 0.2598853077705653 -0.4017132716843662
Ni 7.040496678633838 5.120322560909356 7.580678311583474 2.70752615213404 2.9207086565314277 -4.323117904296084
Ni 0.9077663263811058 2.740129068989047 13.229722698041881 -0.3045304572837659 0.733716223356788 0.15688588668818784
Ni 3.5405868164718797 0.8066572851101582 0.641335973556064 1.601244996522068 0.44663532900803726 -0.06542249126986797
Ni 4.188570698628912 4.915375424523759 6.513557243264551 0.16658408781255826 3.7708544583335706 0.3095158263134992
Ni 4.8573183170086915 7.845891129207921 9.667388502633942 -0.25017476535102073 1.5822219184523458 -1.2471616680108393
Ni 7.975225354388781 5.40108599327124 12.332032238138588 1.6126979755540163 2.3862333877902713 2.157664887855116
P 3.9138348513147725 4.700554881955664 8.58963133523921 -2.1474941179697016 0.7739341903365704 1.1431996259048762
Ni 3.8082226863064697 0.6322224868381733 7.6359379540135 -1.1122301741065554 -1.0365934613078471 -0.3584953415359955
P 6.423981967492935 7.607810764584425 12.741442085363 1.4342364195775816 -0.11818564190451257 -0.9443628487061994
Ni 7.623055377688302 7.586353671185941 4.7686998741395925 0.7072089210948788 -0.7833122891173606 -1.3681495552508374
P 8.647883507239719 6.383610090340339 2.842680293185528 -0.5851100601788891 1.9410281063605412 -1.1172024305101664
P 2.3859807131471302 8.832196334075375 6.324764404597398 -0.40422883901736834 -0.5569626512103956 -0.09611323548550543
P 7.930905963715655 1.152618479420969 2.832613671470057 -0.8066885019494558 0.40713752802373104 0.14841101644795732
Ni 0.41577394162144615 0.4685707793632543 3.9106537285924903 -0.7956810950953587 0.6341823922255079 1.1938009930015119
Ni 8.183491360455575 5.800718579841522 9.909816678987427 1.735848931883604 -0.5759911285967564 -0.7947151316376636
Ni 2.8234521119879816 3.9004484354418714 12.306675703983759 0.2511314728373353 -0.24114042306289438 0.03523234083973287
Ni 2.559800734723295 1.2140221909042626 4.6068592156077 0.02352842213924335 0.022610281200348158 0.9202852389317054
Ni 7.464248850157435 4.640741269595395 3.333828631143257 -0.08763270881832004 1.7380636801467355 0.9078367287557073
Ni 5.552940459520047 7.031556993448 3.5109989545925844 -0.3050315652899005 -0.23107712528962135 0.23997082823482546
Ni 2.372132059157071 0.047710369500599446 2.5007202320168385 -1.1946527994788458 0.3372217768691999 0.27231582022443424
Ni 2.0649655855431126 8.221635249883468 11.397579056301472 0.14444997491768025 1.0894815675561302 -0.9154525934297524
Ni 0.8468581341594057 1.1620666265356825 11.243545599568382 -1.6337272854204896 -0.3227184410467023 -0.09127467644628152
Ni 2.3419941339183574 7.06583657221645 2.2511070263702457 -2.0541144793652752 -0.19861669076807087 1.2031844910989407
Ni 5.03401345967358 7.722843342420411 0.7897190315450137 -0.4418083399330391 1.9241063909045382 0.7975155772009362
Ni 4.042845509813622 2.960588916586473 5.902513582478332 -1.3253797683834787 -3.8468768366064716 -0.9551398847170455
Ni 7.818776241255421 2.1825127387364396 12.153102636415356 -0.10290583292730664 0.4358906888970235 -0.2519879073003596
Ni 0.7663066709109515 4.949534821381749 3.4425609034423768 0.40609108903708774 0.7357116565202619 0.6707871879327351
Ni 4.443568978340398 7.500895088085736 6.842229807517412 -0.3269463630851208 -1.2213647615523933 0.8803169260688839
Ni 0.8229160486430803 2.137703375659125 6.533244889150553 -1.2448083372873142 -2.35964715266131 -1.4306880401046909
Ni 3.138892647899072 6.065128027618348 4.181889508883508 0.8762952065040005 0.10901143160441225 -0.40531307322048266
Ni 6.261449800737774 8.683457352736212 6.127838948496965 1.071307981970897 0.44166281549411035 1.0974249907729228
Ni 6.506436002831612 2.7545786325314117 3.6346689138857884 0.5052048019118138 -2.66969622577046 0.4393539648552756
Ni 5.473740580526163 1.4691036734768366 10.566567369274484 -2.0321588010297904 0.5209001011598835 0.6457415578180169
Ni 2.1690153857154204 2.8710718828176183 7.961985930237137 1.5843577338484263 1.8978538849659121 0.4318885097161659
Ni 6.376371441425642 3.4795528954823127 6.036575579121487 0.38187515391251653 0.9254904372817288 -2.2238263141735377
Ni 4.263554965994314 2.191461668684622 3.0491167607846084 -0.40101753116892225 -0.808756183111762 0.08794844028652596
Ni 8.75246950362793 5.836357138674417 5.95748848622819 0.336354286662582 0.41708384060316556 -0.7061462841583194
Ni 1.8314059097054236 4.1638502041232925 5.649558395244686 0.6628946725585357 -0.361325611895939 0.24925585308117718
P 1.2483202591974003 2.812950061966148 3.9822849206560256 0.451695517139764 -0.9997989181873168 0.5106642823644882
Ni 5.964415586651922 4.493185617836158 9.054828700823442 -1.8368596046707268 -0.8681700062937049 3.020102362540418
P 2.2717894086843717 5.8191803702408205 12.857143059516398 -0.2978882693768999 1.5880670643792134 -1.09589569861259
Ni 8.272352016098065 1.4995466758728748 0.7573586654390032 0.4882710022709526 2.3601816850085418 -0.5957454284055482
P 8.994525116058986 8.14379435095403 10.2823556405586 0.26887465575336916 0.5144250349585011 -0.4817080043414542
P 5.461417312322726 4.384633618402729 1.5402069896105777 0.8266780576975054 -0.3281396120622736 1.0900680361872195
P 0.3308191980689429 2.4509621476572283 9.028065113839984 -0.7668024643877955 0.3870839518069656 0.3605370545563726
Ni 3.1289730179048574 1.2555034395380384 11.863262696384956 1.2240842173660853 0.013861331363124516 0.9518840967839091
Ni 8.887110222393767 3.963895239403004 1.5979553220633842 1.577461520949225 -0.4958205324834364 -0.028404519284622048
Ni 7.934197099109821 1.4221957493476238 5.745449692649151 -1.1360632719704111 -0.3797311109863202 -1.5464956686953302
Ni 3.9452762880438725 5.95017865264345 1.4317178545610825 1.5842343208966845 -2.3758129637878955 0.11587139194903914
Ni 1.853611828853703 4.92753228700502 1.1669709729587308 -1.1002210654608213 -1.1004465512080661 0.1853539122208937
Ni 4.272947644534968 8.796077047600633 4.9841481360707895 -1.0266409780808252 0.376877443587609 -0.48590610158320185
Ni 8.423282006112554 8.964793960363371 12.557290117392116 1.1828532357407564 -0.6676157321832888 -0.04370618263869892
Ni 4.307717195707607 2.5630548910680884 8.693343701585992 1.4784807341079376 0.3983536111835139 0.5623182590953542
Ni 0.6010075467864808 7.0874600713371105 8.560622195482596 -1.7578935703884693 0.18284451553547865 -0.4362781541434293
Ni 2.073849802154893 6.385995239024875 6.040025724427956 -0.7823802642213945 1.9375062092502116 2.302856111814195
Ni 7.154151786880694 3.9613067059469182 0.34275511073020165 -0.4340369235177364 -1.46262191269881 -0.5653426477439748
Ni 5.327664090741833 2.9835436614845485 12.82502120827884 -0.08668345753117328 -0.9379384332370942 -1.3021421380117768
Ni 2.8079671350631825 4.017024888589166 3.158959329041143 1.5673933380799459 0.2267263045200934 0.07956947219421134
Ni 1.2436886332634751 0.45859660527121493 8.62282280547987 0.5983864655728212 -0.5087655226798786 0.20290991882678602
Ni 5.548308833586122 5.489660061281092 12.826103769949226 -1.3477470803350853 0.14426125594564188 1.1310408790551554
Ni 0.9334806328386157 7.34442748542769 4.074658585988917 -0.6657941055935179 0.25218099714777215 0.5301313899501644
Ni 6.868895400020033 4.14873501769222 11.137262264813964 -0.4374562336119305 -3.797484916436905 -1.0605589709845091
Ni 2.7119880124164566 7.769529392253388 0.1649330315356814 -0.8298556840945386 0.725678440653976 -0.7326209334100802
Ni 6.984741516942218 8.85509561039939 10.710993668980558 -0.5757288760743052 -1.0718749102179603 -0.6107938380982383
Ni 7.0560186346080105 2.7595338251473476 7.92824069873212 1.237248008441553 -1.053600794499121 0.8542672801696836
Ni 6.218295250119885 6.270306283062524 10.815625889180486 -1.110507277878178 2.0439462805830217 -0.6215582757035941
Ni 5.024103074441708 4.491956064444517 4.125277357722676 -0.798856921720179 -0.1903297681689303 -1.575192008188758
Ni 4.558037625673451 4.010932590205021 10.736634017339322 -1.058233408175126 -0.2793997236544091 0.4718287975545294
Ni 0.5348113505044911 6.660934471110565 11.64402593084553 -0.2109253329320948 -1.7754169239842135 -0.08187909416399447
Ni 7.241792133893886 8.654438043741022 1.0336707447326527 -2.718049163152551 -0.9198301536721578 0.3393010279957318
P 5.6237923181180545 1.4834330551087405 6.023288082205657 0.03667524393384652 -0.7061455128273709 0.5941665139542025
Ni 6.924077386446378 7.344436730190033 8.567320025800218 0.23861611397914387 0.9326478742621163 -0.530922261282576
P 4.324052690767977 8.787423950047431 2.805010660065839 0.7539641749725466 -0.3476087765304787 -1.1215619930304426
Ni 9.43880990474675 8.420748941230528 6.229548899320219 1.0117326935104254 -0.1844026040512179 -0.10772999378882737
P 3.2445787710061196 0.17122409231020433 10.00534280827934 0.7875998607491209 0.24058866432448242 -1.2730218236070527
P 1.3990283749156553 0.7808190988372499 0.22105705924479416 -0.053377644290191935 -1.082562986059426 -0.300885661442327
P 6.109105362084778 5.62892316121851 5.45789690682245 1.4281179653846694 1.9251577149871875 0.9486267661888759
Ni 0.33834535909251257 6.806668904688197 0.5805340961013105 -0.6516746354730002 -0.4349661202002251 0.2768710436952845
