# total energy = -381167.0418672839 ev
CRYSTAL
PRIMVEC
9.26517860985671 0.00000000000000 0.00000000000000

0.00000000000000 9.26517860985671 0.00000000000000

0.00000000000000 0.00000000000000 13.56052543413097

PRIMCOORD
 96 1
Ni 6.731170731704059 4.55704099879383 8.977705055265172 0.30600421361581487 0.6822681919891411 2.6117600155753085
Ni 0.8344692307357712 4.2732300500923 11.478211820075042 -0.07264394871897167 0.39736090825294146 0.7258085384739371
Ni 2.2608703342990952 3.2353354860907957 0.06960835977081883 0.789229425932744 0.15409598264787655 -1.5029208694281728
Ni 0.7174129651998896 8.968516777717923 4.077894144200272 -1.9270281925370234 0.044880662562774315 0.13115711446351605
Ni 1.167875753585395 5.115314331061088 4.387358519213005 0.5499826203481367 -0.49489904911043153 -0.11760123015595231
Ni 2.2716457369283676 5.698158916787359 6.561395600337944 1.107928461407408 0.39306048110537467 -0.2489126108091455
Ni 7.269014345314787 7.699594987094827 12.103893958730326 0.7364786165932735 0.9213167655200133 -1.9051267644782417
Ni 1.1021393119218617 3.067876649356941 9.297312947731497 -0.14689792223754056 -1.5296927382053784 2.6597493989703938
Ni 4.693767238346862 8.496492992377492 1.975578810068625 -0.2594425638061919 0.42762716333665063 -0.32862169390501467
Ni 8.251030617607654 6.240820423233187 4.92561628630398 0.2154417327452096 1.1248563475109983 -0.4529587001229038
Ni 2.0561376843429153 2.6197106987287846 7.421241228546901 0.9320243817455045 -0.7460114957843733 -2.0464831880722625
Ni 8.33951307255998 4.940906610430454 3.1021874584856794 0.8789665826885765 -0.5160528003699113 -1.2483652014006372
Ni 6.147418158481942 4.870509783966813 2.4987306300858547 -1.2192184046333518 -1.4944488274014198 -0.036231985748840824
Ni 4.052431580566766 4.520378687354421 4.10742875379729 -0.2708945143968754 0.3254690072086459 -0.08586481828461986
Ni 4.177715324636434 8.87365987993762 4.755866170919894 1.8171366723205027 -0.7772799668803516 1.2147143461154113
Ni 8.013276871373979 3.424521166475248 5.076748951951816 -0.927524436992622 2.9422599003396424 -1.04986780981925
Ni 4.9025302409631735 5.9722414280333975 8.811954717452071 -0.799220732817501 -0.4680798720350584 -0.14174774549516878
Ni 1.1807450865622304 3.826768892313486 2.0649016167135334 -2.2340032547065394 -0.6804288247875572 0.7364539340029251
Ni 3.2794470010675516 1.7511002116313565 1.7348796635805677 -0.008495181955204724 0.22225978410830755 -0.3517287122361233
Ni 7.9704161554986435 7.278409236343232 8.376757237211011 -1.2475177657986776 0.2268929120049447 1.7954710144216113
Ni 3.973788745212281 0.9010932765023866 10.589183659053173 -0.06117708572995271 2.5905000777552676 -1.7217220055639189
Ni 4.832680060032746 3.7705107282851604 0.6008412685010767 1.2551287453767157 -0.5756589420683182 -0.8274879551933105
Ni 3.1863226916721787 4.621489580641827 1.8945548238321768 0.5358808908394318 1.0645233549488957 1.3189964905649543
Ni 5.329553054188062 6.520962361237218 12.33386773455317 -0.9140662546051872 1.657983329754377 -0.5295657472546815
P 2.09620958148101 4.7513595880833694 8.407552837605833 0.4138753609681969 0.31485780735170293 0.8041747343886667
Ni 7.910822527199863 0.10591025576544745 1.9912684633896998 0.8813458815540305 0.6902314127002758 0.9243902622390144
P 3.6609407270007424 8.20913348029934 13.484287891789855 1.6059382882326794 -0.0037309277973419613 -0.6056215498686797
Ni 1.5388071759954807 -0.0859641794281318 13.507720454807647 -1.8109318290613716 1.7934347007178728 0.6954098715774217
P 8.235956172140908 2.9459468999147846 10.284464908483011 0.056958162552598675 0.2786083381013653 -0.11758991730204264
P 7.245953315956007 6.237976013424771 10.517353509471087 0.07693434856420943 -0.605542617001628 -0.8924067673538824
P 6.858474284693058 8.411661017765608 4.377066758902948 -0.10341285447071222 0.642960395528454 -0.04562731092081174
Ni 1.9464842964517357 7.246953955237144 12.553425596673664 -0.3948679666277587 -0.9539700327786604 -2.5805499085210912
Ni 5.514523078341802 0.14828084369659675 12.380230687912482 -1.5575976921457626 -2.6740514174153622 0.02103316652121539
Ni 8.313941179819832 8.897703018220477 10.02899799393752 0.4289343121838483 -0.1889817387814681 0.7934763741345561
Ni 3.577266899704989 1.8131676425973904 4.146062695227678 0.19431523517923951 0.766061472456713 -0.07599101081433365
Ni 9.237457114880346 2.0158990139912976 6.096866417909652 3.1343467604089956 -0.9411718525727275 1.2174651693876712
Ni 8.088046862103326 3.1130443946860074 7.773801654969607 -0.8007595380595306 -0.8601188538544542 1.0331540966089947
Ni 3.2718402894952106 1.038469005070304 12.838508654387232 1.620223851617416 0.9762794949091381 0.10626292232499764
Ni 3.9895024879975316 3.5938330389149113 9.174129619634362 -0.774081514547712 -0.1451536858529242 0.8187210076339577
Ni 1.313292730598666 1.9241830117323384 11.610874352325238 0.2319857531468198 -0.10390419228483395 0.221914742064063
Ni 3.565861464935742 8.110616837000066 10.803603053161462 -0.22997077959932008 -2.316125318119276 0.510907765833862
Ni 7.733366562833175 0.7683325333597834 12.963129938192074 0.5039519033413191 -0.2642543833725384 -0.8729864538457417
Ni 7.342598393192416 3.542087016830227 12.627601689459299 0.576340284406059 -0.10532472678144442 -0.10891655789776081
Ni 6.4195179215227665 0.8968627959860273 10.426972619438164 0.3945092977367593 1.113316979412831 0.13394444740066608
Ni 4.138078890889204 1.451918331750151 6.465997616131545 -2.5118104370628482 1.2807873264850846 0.4900088108976658
Ni 5.629142601924546 3.298866815264418 7.481707636663117 2.197805464629744 -2.0665339360755506 0.34101929623841915
Ni 9.135753250167081 4.90102001686294 9.36502101938601 -1.194527586754891 2.0187468984992587 -0.6088254015179578
Ni 5.71956147918944 2.9542577650553326 5.032554976886151 -0.10936110163434713 -0.09969683907170572 -0.8069145019173328
Ni 1.0832290825440927 5.4859770632938325 0.2823183284405015 0.12279280165922078 -0.8048061973250785 1.0251019157284798
Ni 0.10576571898039443 2.215480224685332 0.19577229580074604 -0.05867051725801509 0.2755746934813641 1.1273693437408392
Ni 2.9763088899544465 0.29601318882427435 8.102210540520668 1.0983912113409342 -0.027001982510140594 2.605238155296391
Ni 6.512336480026682 7.6059888884159434 6.348387292919627 -0.40694649505884756 0.6782482721964707 0.4245292411376173
Ni 2.134752724161813 7.30774279156617 1.3159796323720871 1.0143367067921758 0.0073664676674002165 0.9944613080244874
Ni 8.643197829206297 9.008616470391605 6.353106048344466 -0.33639439587189807 -0.5016129707954975 -0.019528814061547013
Ni 0.21627798892121566 1.0491424907357574 8.411756449104457 -1.488424732694527 2.122206804157823 -2.066805187459066
Ni 6.077206635588883 0.8347823937700527 6.219480864045104 2.049023180885297 -1.2925778913621093 -1.9520319136702122
P 5.146408270204544 1.2477693880413 8.62765363918813 -1.4041360006477754 0.538800378479072 -0.16698260880255758
Ni 7.825165951698896 2.623824437995678 2.630538912875673 -0.2139792892670702 0.23208936860421964 -0.6057537045711696
P 8.609092707040904 4.340106108714905 0.779763910628912 -0.7567666774183482 -0.8275501758898135 0.5788779632262482
Ni 6.474599407877905 8.213154567780942 0.5502672915003161 0.23874466913720815 0.790614993426361 1.0449577741121423
P 5.028555199315165 2.9073203706272204 2.669687998232275 0.07816307876498796 0.4019688393385981 0.06849444532697237
P 0.003241885967310827 8.651805180059776 12.094863189218072 0.4057612165014947 -0.13342868410651215 -1.1995070422473535
P 0.7519831993274408 8.354819147489952 8.179885164718868 0.53113849105844 -0.659466106492961 0.4772188582218491
Ni 2.8444376039506314 8.99342157760398 3.0886945789938394 -2.256839792985081 -0.07830757476265222 -0.8943824030230145
Ni 3.945381707842247 7.724017997697374 6.7690078677809495 0.2671617868273205 -0.7953728198263206 0.4001060750982464
Ni 0.8091901176371407 6.957472717275842 10.485595257027102 -0.7479256820879506 0.5427735041942071 -0.09747386327845793
Ni 7.04929990167715 7.050912042741203 2.6522898459904454 1.0796087885271084 1.1183002915600353 -0.7846636609389326
Ni 2.0178724970179833 7.358608621690596 4.99915586132467 0.8059169138907539 -0.42079805622995914 -0.8247656711661409
Ni 5.275629715149054 4.511409994538311 11.521944389249962 -0.6780161015810064 -0.9148936356024889 -1.1546914285945598
Ni 3.295383108137499 5.5764793271654876 13.412132534441403 0.8099111226518115 -0.9136039702567879 -2.319106769345103
Ni 1.4389378166309668 0.27023838867434014 9.971434366254451 1.878212456585901 -1.5931347087101078 2.251059181747562
Ni 4.999156787842524 6.485365545328649 1.0503478904623853 -2.618384719980678 -0.44127689290960137 1.8932382405707717
Ni 0.288224879752764 7.0859900086521455 2.7429144102186838 0.018406784641961847 -0.7355342504021333 1.3150457334473222
Ni 7.455077660534952 5.541114140720144 6.9409955237798 -1.0169165517042098 -1.8353930474275293 0.11311671202203745
Ni 8.624991753396735 5.898333098907251 12.549479557138147 0.09704988836716189 -0.5630685069978174 -2.4118459461520523
Ni 7.1184829897534865 0.6814464686680122 8.122266872482479 1.1990768966884704 -0.36471226897998477 0.7192306281461033
Ni 5.287053680275359 2.280707081529768 12.237113328210118 -0.24949162324106708 1.5095278332217295 -0.4805499794776111
Ni 0.30587319181487793 4.407417630728375 6.6842815162042974 0.8519430029118812 0.2775531573639736 -0.19031665554280772
Ni 8.948411340309908 7.653408072127566 0.6025034415291863 -0.31295699078456424 0.2594425638061919 -0.6256913240353611
Ni 0.2781239821204054 6.848143610633179 6.834694277480426 0.8596894796265193 -0.8540597921445677 -1.386182501493148
Ni 5.502450550718463 8.151309501099606 8.900857811509615 -0.06103104707039167 1.2448229925753336 0.11948507744222647
Ni 1.9190593680057797 0.099713704365226 6.205215268663943 -0.8335524162198356 0.6318236621853441 -1.1181372836196097
Ni 0.9570651465141654 1.8934318841944573 3.5370458331925767 -0.698907600318035 1.4740664070903258 0.19048583413082032
Ni 2.9157331527315877 5.659245166965395 10.444845148820681 0.1856274775972545 -1.4160396940638966 1.1238389619900775
Ni 5.687902364155713 0.8954795048316416 3.2293307238861257 1.0143122813121437 0.1962602747207523 0.5739216476622374
Ni 7.837257009679292 1.2388006952251902 4.658122243509942 -1.1098531892339465 -1.9132961876629115 -2.0805991559193653
Ni 5.793757028849987 6.290037051579444 4.352426943122821 -1.180458767366651 -0.2124829072272018 1.6657182365047893
Ni 2.5731995025130074 7.109782987114718 8.725682934096776 -0.36550828251871886 0.748712182544988 -0.8442780301674557
P 5.0725740625066305 5.7648867325535 6.594564939471905 0.8024870622735986 0.9881649334928144 -0.24533826319432583
Ni 6.937858334329866 5.94251873531224 0.47606803576835827 2.17314935664396 -2.0701059696975257 -0.23338006239118517
P 1.031130983675305 0.6592647047516393 1.8408686733635118 -0.4328027940003191 -0.32553559878052324 0.3587979603780789
Ni 3.9217647677717253 3.997174055819576 6.460112374729899 -2.110214150572321 -0.037410322327658146 -0.9570702689705388
P 2.9452520115251066 3.6100471013407294 11.44897554922666 0.9404000074037095 -0.4030556446448736 0.2613726909493692
P 1.978662261483089 2.696120626057771 5.215269856585922 -0.060276171182238124 1.2124399482589376 1.2048582792569378
P 3.020605708501783 6.540965881681412 3.159697348133278 -0.1750288761458018 -0.43289278261096414 0.9137114423689296
Ni 6.019818119780014 1.3706441856934186 0.7993819996462996 -0.8140382574463079 0.8771354430171088 1.2134899867900069
