# total energy = -340890.94849456707 ev
CRYSTAL
PRIMVEC
9.04761181666283 0.00000000000000 0.00000000000000
0.00000000000000 9.04761181666283 0.00000000000000
0.00000000000000 0.00000000000000 13.24209444030424
PRIMCOORD
 96 1
Ni 6.369681390490567 1.9624269458982637 11.423358728205063 0.17981035669484516 -0.24482018590732676 0.9018781971794275
Ni 4.393565408312247 0.3323911532430171 6.457665793801227 1.0355771042281907 0.4901939303252784 -2.201175409543241
Ni 2.5525664570700486 1.7379104652045552 4.659906282933129 0.8657655106172703 -0.15683420751464602 0.8913333317840456
Ni 3.3944829025454615 4.148537992227338 4.790989888638815 -0.7770701648623907 0.6133209753954663 0.15045864300560538
Ni 5.384287921003836 4.400043498184369 2.6578607508043723 -1.1644459368781623 0.42619942975118863 0.47791177052381567
Ni 7.345656296350371 6.230465791520826 2.6320379626702635 -0.16666250645897748 -0.4199652759160186 -0.6707967010144319
Ni 5.2344594736821435 4.447751553904615 11.813192262438461 -0.5364642741467277 -0.27659516432607845 -0.41346938377902986
Ni 5.488217834915932 7.744864060914082 12.019173806104197 0.5985181060546789 1.1950837163686774 1.1102604519746944
Ni 1.8829617736261361 6.374404243721359 0.36435365057715635 1.5657462893948262 0.43193967466907546 -0.0383091799928437
Ni 2.8642657226908006 1.5199987409447133 0.47110099072693074 0.7912441423699277 0.3998237679711372 0.058597240817918436
Ni 0.753328566474151 0.014798273456483173 4.572759688452298 -1.1740878308433005 0.006732433627827115 -0.20752607744255874
Ni 8.928906889663802 2.4409189305030385 1.2965960212332086 -0.9233186264413904 -0.6591984546538712 1.1310087402656392
Ni 6.777022957840643 0.5371820312283468 5.036551113805365 0.08478958294257011 0.7438196303393771 -1.259669827780179
Ni 0.8736717525049827 7.428659084739816 2.337573492297283 -0.27401403386246354 -0.9259563211745536 0.8518818106566425
Ni 7.599351324303286 3.8672206062023733 3.609397153097714 0.4849910459681002 -0.40950474270432696 0.9129714788791116
Ni 7.760380714727893 3.7343835733776696 12.658567609810678 0.2920963452854711 0.15215428554047344 0.1220582374860414
Ni 7.559858499873383 9.1412543328184 7.093445076692187 1.4922186525193204 -1.4526072087752855 0.5125545574086657
Ni 6.961530900245914 0.6450015133471805 0.32480563571677873 -0.5551582510118052 -0.010366430835988597 -0.19892728002995416
Ni 1.9276479270876001 6.40680374069352 8.93618840744185 -2.456165079784402 0.7312402510124697 0.5816917785259594
Ni 0.20686278103102224 4.905216889259655 1.4916950977227053 -0.17748479388546207 -0.34743162752266615 -0.6245286711858277
Ni 6.2668100471302015 2.1222801468209496 7.144944081653242 0.6941001516270627 0.015569315193166733 0.6232701161883782
Ni 3.7321035752662524 4.502941984379394 0.5911030818022053 -0.02690299503843109 -0.5492231164742928 -0.11567367411593626
Ni 6.12968444642926 5.786173778587308 4.778714089283375 -0.3029579705903234 -1.4252072194957779 1.026220088493323
Ni 5.086458643894205 3.0028208460171535 9.710719146829868 0.19164540165656027 0.2352330564395239 -0.8138875908010563
P 0.31435473961162846 5.507118295450654 12.426778658950473 0.8293581756328297 -1.0902233308181613 0.806294866055463
P 4.097844224694521 6.24632625457366 12.604275607163137 -0.6437384113450592 -0.28169931832186323 0.13747662892364065
P 2.6163702137435134 8.296125985241584 1.5027793266365823 2.0885618624098674 0.16340826118773794 0.8586800645253985
P 6.092616381895626 7.705461712599712 6.207854000726963 0.6711692538625021 -0.28424856710627816 -2.231197152716312
P 4.745626069072013 0.8965613049735306 12.608420318015677 1.032816253653602 0.7910230274980571 0.27341933770125815
P 3.8138577932613504 6.243458161711282 8.131161788552474 0.6270298403411265 -0.9552216457975743 -0.5153120655491448
P 4.995303957495288 1.0064291663480183 3.914614709801723 -1.9924375711807687 -0.9780874946521543 -0.011937374867534281
P 0.11313495390636354 5.530587799819766 3.589097027055704 0.697727721077321 0.8083833731533755 -0.021703196005046492
Ni 1.7025071611967177 1.0770457745210746 2.487063558946885 -0.6442276922766518 -0.2691579913217429 0.5197523607086856
Ni 1.6484024441083285 6.6809373231452085 4.552671276520635 0.09700258006899425 -0.6105716947851033 0.7596841081754594
Ni 5.834804690685986 5.346188428753132 9.17295716370096 -0.29539892729614287 1.1870163659795105 1.4162163288510772
Ni 8.688231374736002 1.9615312323544927 10.438822067532426 -1.0084015722546633 3.18694253222784 -1.1860408894401187
Ni 2.0635430526173 5.1986037890966434 6.69684483377812 0.3989004848259195 0.8842075193725418 0.5789759222566931
Ni 0.5034398687016849 9.164868598972362 8.84104462910911 0.15755617328233512 -0.9399845171328457 0.8365222974814368
Ni 1.5119463666623276 1.05596483960202 11.219972944293952 0.7182916612716017 -0.3057830987439443 1.028955742256931
Ni 4.334158790853658 6.700652068719724 1.7862654251508587 -0.18966796621521528 0.8067494370943783 -0.9711699415967144
Ni 5.262470879050982 7.859678251524728 8.143529873545756 1.1082650188112204 -0.16702374645313814 1.829370238272217
Ni 5.174600475645892 2.764723900382028 5.163211342222671 0.3058149804231443 -0.3558188231450969 -1.3356451548652286
Ni 0.5559712061409652 7.624087494289851 6.744132175561141 -0.06580147187584152 -0.462894471179377 0.5754432265130864
Ni 4.898793085056853 4.7760169962793535 7.000592153604727 -0.5151585706904159 -1.3022395828215896 -0.8068774780318104
Ni 8.208083677216983 7.146789794410104 9.021944384026947 0.026756442158237786 0.40634948490479694 0.23733416194292675
Ni 4.2781178848928745 0.6555790760140762 10.451031819323525 0.762562458164519 -1.442205039605355 0.15183598296910625
Ni 7.9903800480228675 7.302888236538195 4.930084249613741 0.2027656799394379 0.5289790215132761 -0.2749640564805587
Ni 6.984611357318236 5.9144055771314115 7.119214483918133 0.7255956511321826 0.7155768334435999 -0.20476625530923445
Ni 2.561813116077462 5.183584753918261 2.6266754433026565 -0.9898762597569661 0.09352310616082601 0.09362903561107101
Ni 2.569901680806061 5.170257622100336 11.458158556522301 -1.1887243498095528 -0.3022036089228021 0.8329746893394944
Ni 1.0227239147554077 3.381282437289281 3.5176561814701475 -0.1369122717797384 -0.21381602421632853 0.5951515035752911
Ni 3.827257305971702 2.6302763927008472 2.6996788114034582 -0.1440933629092099 -0.33357235304207067 0.004395815074850494
Ni 1.1890913959964278 3.5292289814078996 8.328164482512772 -1.5671200298139012 -0.6570281864754298 -0.7548887436693451
Ni 3.6082146302677054 2.622513541988165 7.0167738068677 -0.05923975949792379 0.8678380768755827 0.16899732523974123
Ni 3.7819830577592777 6.777755814376456 5.828096791480412 1.0396430467674482 0.6611596921453001 0.507640665046816
Ni 0.7640454623589666 7.335351066791228 11.408460931021494 0.9308149348184357 0.9045521444671648 -0.6740774286482327
P 0.05167995719212025 5.615662491254903 7.803605678923509 0.9436300843052328 -0.14391775656329409 0.6305154848968818
P 8.392591619622255 1.748885218018638 8.206191821641202 0.024785434474796024 1.37183394608096 -0.9936676084785983
P 1.5827982127357685 3.374650538020754 10.480786699438674 0.8974361022476737 -1.7208740557413267 0.1656060401700051
P 4.197983189365807 5.957200779778248 3.811021367039409 -0.2464212118458595 0.6621783632178014 0.3799103168766618
P 7.011030383053703 3.9869386022748765 10.635189619161688 -0.3146174092061227 0.026116237471077604 -1.6346395128221138
P 6.44118466459584 7.535285186894777 10.166790245244556 -0.5784681293823392 0.6548658887167883 -1.401445855410122
P 2.3680856574994373 8.554987199391402 5.943012315340453 -0.25457752240440673 -0.3929044151434846 -1.7380202285033097
P 7.032961793458762 4.121386109956057 1.450142132142129 0.5142879951600046 -0.3939739940585796 -0.4322705756459329
Ni 5.322311781864126 2.681268731414921 0.5050666292589578 0.08200893487363942 0.1477669551060552 -0.13410411290698196
Ni 1.5692358430174582 1.205069477999454 6.964043421974249 -1.0773549594959253 0.5369651250425462 -0.36698589550550986
Ni 6.72527966736765 0.6778334861515863 9.289381829168082 -0.575168375585145 -0.28225879036975904 0.17898554680070466
Ni 2.6492220912933364 1.564902037083455 9.053725929130023 -0.31255667002235205 1.1415723747140984 0.763294194124221
Ni 6.3290847574511675 1.9862764499526107 2.6066928884261653 1.7901429173404784 0.03233882134202172 -0.21086825444191426
Ni 3.8399420573693477 6.8083457890379675 10.348272666346421 1.1650457752456902 0.997055808224541 -0.22757116901889196
Ni 8.271507434205214 7.188562616951423 0.241288038229954 1.0309360059117536 0.8303282528555829 0.7347765463005024
Ni 7.631868440225639 3.8959196300492582 8.321583249868944 0.39147282490328067 -0.7578025748820304 0.41283740662198576
Ni 3.055468897645471 8.659052827476795 12.34258520488062 0.49526003199427604 -2.3316725218252556 -0.40033927415497506
Ni 0.25115807767338605 5.0634143772680975 10.165491912986665 -0.316529538627171 -0.6557518908661674 -0.39985642098128554
Ni 8.690004706600437 2.271773832515173 5.7190748817861525 -0.4797105142954513 0.2524494203178104 -0.20360051713590743
Ni 3.4366900104413367 2.652813993079974 11.576119506431164 0.3238001041466552 0.7720315739972188 -0.018875496748264265
Ni 1.2366456423202696 3.147465011918839 12.717349942072094 -0.10372678616670523 0.9249646466852457 -0.7341414838196646
Ni 2.9182075827712315 8.437024439960227 7.969449303455596 -0.22570017724842423 -0.8011549737257364 1.2494180681451836
Ni 5.738311913470656 7.808161151340566 3.6543945443966095 -0.6881634744276536 0.7695016084865135 -0.19076094216907793
Ni 3.2051887736285254 8.41855826478006 3.9069206209368454 0.902305257414517 0.3425563017082358 -0.8429778232987934
Ni 3.1205031294901766 4.359383531864097 9.293937301585139 1.8206130609048772 -0.20887667793318218 -0.5331588639225786
Ni 7.629968441799458 6.171602030755431 11.412447308671855 -2.1058651295750055 -0.687656452884248 -0.6767061245203314
Ni 1.0384305684118365 8.912177855901856 0.32878387051673935 -2.273890063599148 0.4138288240009776 -1.019571987049186
Ni 4.854414550388199 0.19823045484807372 1.7322909936688362 -1.1168784715118443 0.18248790352700828 -0.48817767122619804
Ni 6.249375299667103 5.879563225039875 0.26939172923663535 -0.6466779535893572 -1.1364875039920235 0.10311923448969337
Ni 8.019431928720328 8.932851648301014 11.17562517150458 -0.4017335833993404 -1.64681651450428 0.5453356084944285
Ni 8.853277904690248 5.026916312262316 5.689293763597499 -0.3724754578651714 -1.0311296099797982 -0.24881028090332635
Ni 7.982599102087078 8.667738534567908 2.4253289910356464 -0.2201203691678016 0.75124369071759 0.5884897752843994
P 8.515322470341987 1.472878779975427 3.4047275131071975 0.0500236402162945 1.0243483253919068 0.7744818353099243
P 2.063923052302536 3.282962042540196 1.5501191445666125 -0.3299108450300834 -0.1448826915797247 0.1117393720585366
P 4.778930327199498 1.2782013221843118 8.403247896509663 -0.9769271557954661 -0.6625915394958202 0.2715876838091581
P 8.72514562987323 1.4049131219874706 12.580227960415774 -0.002520195318692434 0.4413288291934593 0.1306290098741879
P 6.399312318327435 7.76628880507216 1.191380441719398 -0.45571235160864093 0.1701556072139005 1.0659585447335254
P 1.6695919503660221 3.242962551863312 6.067951688040332 -0.06313703766980094 -0.5499419969181883 -1.310449886546524
P 6.840166238870721 3.846583004249428 6.027032960029638 0.5491069026114027 1.4676278505538338 -0.5957153464985611
P 2.201681985812204 8.404896371334665 10.069009992905197 0.43638434070399035 0.017618227302395463 0.663728738424057
