# total energy = -381169.95541804604 ev
CRYSTAL
PRIMVEC
9.23356677274671 0.00000000000000 0.00000000000000

0.00000000000000 9.23356677274671 0.00000000000000

0.00000000000000 0.00000000000000 13.51425831514467

PRIMCOORD
 96 1
Ni 8.780983276961129 7.487406772404412 12.852600158445991 -0.9598100364992052 1.5207635540365487 -2.075579076996954
Ni 5.164555371959607 2.495491394061258 9.44985822040548 -0.5878580552376714 0.09612017746404092 -1.3758626076243787
Ni 5.682152177980032 3.593307054382942 2.2258657109251088 1.047080733992416 0.3822165964123353 0.8757208220577692
Ni 6.64150127445338 1.010955499870811 1.6443606208046924 0.7194833675868577 -0.4189473761744656 -0.3149575661543608
Ni 3.592549901926583 4.818379728772228 10.32573125856522 -0.8227136737331185 0.28870403177447057 -0.12023661089627036
Ni 4.400837849789718 1.6542396136468727 5.817442394938275 1.137207155766867 0.17490700585595684 -0.2182979712470821
Ni 1.0772063398022464 0.2209730976751424 12.71198402030692 -0.20788706032640328 0.926774703310791 0.014261652125336729
Ni 8.79702198204279 7.994541947533922 5.357105705108346 -0.7053744389893013 -0.7747469160458528 0.7270825200903542
Ni 5.3752561268579235 6.841084815236373 9.534903985031054 0.918996602027269 0.7511768420353967 -0.3577335236693065
Ni 7.32517300827963 2.5102281662606414 6.110538880864907 -0.36181386438626717 0.19384806573483387 0.38090533380007946
Ni 5.9664721589094745 5.417074949721962 11.395600606394014 0.17489954965678914 0.2733954264418582 -0.05261582642350294
Ni 8.330062054933025 5.843794993846192 5.772075112452543 1.9980770288547332 -0.2285265909536258 0.01588761776453393
Ni 3.0269662505927553 7.22343757213126 9.69568253906898 -0.32513759201115616 1.259330185052573 -0.5389366469466201
Ni 7.652650679221551 7.04069605671899 7.720060331753878 -0.11294933320623773 0.3713014921617283 0.2898998518547846
Ni 4.948000535874317 3.381812212762102 7.2133563641818315 0.009662977011060779 0.10626575053847505 1.0169384060810809
Ni 1.5753018532881493 6.8298383311894755 11.486740524936627 0.4785707442640532 0.7375247984696008 0.4542185406719339
Ni 6.464706175893491 1.6323468273782409 11.153073594342294 0.14548638660199462 -2.0951945372350367 0.7263577261091878
Ni 2.8417778400471287 2.270303173260165 10.598313529707788 0.350194534979784 0.05931689259276236 -1.728295287906062
Ni 7.9708209150901785 0.2512278018032736 7.154812782242142 1.528812135372638 0.49734673931997575 0.7189598909832199
Ni 1.6064466732308296 2.7924151933191217 2.796599845675488 -0.5892153405965143 -0.16897084287717995 -0.5591822845695338
Ni 2.036038356549301 5.184084365193752 3.1464439848495926 0.5742404644542368 -0.12356876059329687 -0.07362019658931192
Ni 3.873222624072345 5.502540841625149 5.2797505780547445 0.441724264859665 0.5460786573080402 0.605436430441067
Ni 2.8136062285306402 8.073562809991515 0.06681593420374257 0.3094528342860477 0.4905263739640326 -0.5493832962012409
Ni 2.328096066240075 0.36215248337321365 1.9406066762784488 0.29872722033842747 3.67115993325471 -0.8609709174421043
P 0.7643767988209142 2.20988794738262 6.84143107398166 -0.43483885059374144 -0.2588524956306768 0.07965946080485635
Ni 6.613071123073744 4.929164060130746 6.774305815298795 -0.8035944364051645 0.5316863931421101 0.7991950217858881
P 2.8014917892288915 3.6375635388137955 5.228639093823878 -0.05590992379374242 0.3396977492135182 0.09194881969517069
Ni 5.490214030292959 3.7283202643449562 4.991801805474701 0.7909880604950635 0.5349974597932141 -1.1024075315891788
P 5.578459225724976 4.629701030074116 9.385881607913085 1.12390452512069 -0.28458152496566474 -0.8471067578655024
P 7.697027200017437 3.284555056386101 3.7064884196154946 -1.0479610797148404 -0.04129628764562565 0.7054569714007786
P 5.810784993462237 1.7948668320657941 13.328869367342357 1.303494538274613 0.7777458507731766 -2.1936377064053
Ni 0.9284720499603564 4.543838094809668 -0.02985581405356143 -0.42574511582258934 0.20003259727899098 0.6593493784094387
Ni 9.171027594784642 1.6051355067820121 4.801926436552879 -0.894195483823189 0.384061620040874 0.16613954407597195
Ni 8.904251390283035 5.501811389868412 11.659723083871748 -0.42379030608906365 -0.5382113387448214 -0.9325455443562971
Ni 3.6750610525366607 1.3170112964376903 8.03459161904871 -1.4503168700792122 1.2766599345802723 0.43117965657459933
Ni 6.934362304433217 5.707369048203411 4.050466473966123 -0.5854748997174756 -0.5431404006153226 -1.125293435048417
Ni 8.608343283344677 0.9727008336915863 10.755024697684417 0.5808631119770771 -1.9009479505102036 -1.3662795919216342
Ni 0.2921805161257687 4.119703449316908 4.649526420794226 0.7760247543170119 -0.43197387034112056 1.5554240815332117
Ni 2.0967952243888615 7.089015310427867 4.731112368036898 -1.372199814060811 -0.6494318621854106 1.894226315515654
Ni 0.744391667399646 8.127163663761825 1.150391588205948 -0.03368350829537425 -0.9053232183052344 0.94100498797756
Ni 4.485445020004595 1.69977956382692 1.3392789655078852 -2.8990609963546654 0.004551109705792162 0.4753648357322458
Ni 3.366253653140573 3.929704350603438 1.4347678938912916 0.065576500349229 0.27107603428006216 -0.022818797666728445
Ni 7.544470213627586 2.2065269291617087 8.871474999132564 1.421736744448674 1.3752825667511928 0.6690192973990349
Ni 7.901550698899848 0.7954874545673929 13.034934473573804 -0.18641834892966605 0.17544230953413656 0.23777613457635177
Ni 1.4930400089746776 9.221064291870139 8.873042858731221 0.9356408954521693 0.29925841025154915 -0.31044270900314275
Ni 3.8256512892532855 5.501968360499609 8.08978341633403 0.5572997228348402 0.7893762359232533 -1.064481703077683
Ni 7.064971103155191 8.966365592404117 9.410599865543253 -0.9801675171096346 -0.36357789826522546 0.16409088907705935
Ni 9.131249390126158 7.782049880726658 9.829189754328162 -0.6939165748613468 -0.9694858690260723 0.36697226865875504
Ni 5.278128240413497 7.576510689524741 4.606699292463914 0.003068611622994715 -0.947996845914361 -0.6136691027635044
Ni 1.1574460330432461 5.696418038285824 9.032916523248133 0.4435289221685716 -0.12801959727579887 -0.24225036829762148
Ni 2.6202461115962583 3.568995073680577 8.031753220694018 -0.9493502746184619 -0.8941198933902471 0.13469212419996804
Ni 4.462536541416457 5.789390819786818 2.9409454213404564 0.6835365171786034 -0.39655486741187834 -0.11946450861693618
Ni 3.9802304267156075 2.582942502770753 3.6173752689286256 -0.041079286538813126 0.9629673511812642 -1.700156363578001
Ni 0.8847492656755712 2.239269156115976 9.062093670160934 -1.0433688323584678 0.2643621125949963 -0.5065392044525211
Ni 8.850872142109706 4.111153166699973 7.386041602274336 1.4205674067309213 -1.6420602307662173 -1.5788319189341906
Ni 8.940613175321362 0.972820870056619 1.715675148627194 1.5629319598744826 0.8165867348997743 0.44660216177725665
P 6.069841936335597 1.1368459460903497 7.946788711454006 -1.634314011161895 -0.6818169633843355 -1.8809465676876123
Ni 7.54402700243362 3.6576834803065617 11.136045974284096 0.23900203656365293 -0.5466036765735748 -0.07721125637467992
P 5.181849842090837 6.7062562766051785 6.773021426192947 0.40005439592470454 0.591300248150001 -0.3591633141372976
Ni 2.5441061218994476 7.54278970451713 7.202775620282539 1.463309425684138 -2.308301451199483 0.7863821862919359
P 0.24800159365385982 2.5662297473316036 0.19330748560509822 0.9218101602166642 -2.390178745591264 1.0831260576517476
P 0.5549419658953636 7.728919938849935 7.515548836507971 -2.8584499077015226 -1.1108466634954677 1.0619039150481777
P 1.4293561005416309 3.972695836418178 10.3312713984898 0.3667357271679168 1.5909891231220148 -0.4135074361058169
Ni 2.881546811139072 7.761302056709106 2.8521305148528606 0.5123740659667434 -2.1495751688684464 -0.27612336689598255
Ni 3.6996869745014185 0.8570282522062813 12.305178009141592 0.8198661769819945 -1.23846156913368 0.9415734588865203
Ni 7.876213792311435 -0.14934001180697754 3.646998397105355 -1.3646330574571466 0.04227819194292074 -0.7791550724158776
Ni 6.29216775150899 6.611547584594484 13.416955745429872 -1.0007276006491734 0.783565028558115 -0.3380396447848049
Ni 1.3381838645161266 -0.04602563578010215 6.177691840247394 -0.5108743414927653 2.3094844157639907 0.37619018771259727
Ni 0.880724354020364 8.984334112892837 3.7571391488759667 1.367155566768684 0.005473107299429285 -1.114334622044068
Ni 4.127865922139122 7.047048750499174 11.785230337079838 0.1936035538241956 0.16879677919316088 -0.12354279245136787
Ni 0.24913639898174464 6.722470419451116 3.065155358449539 -0.5117701138341573 0.8338946300506025 0.42514142080031947
Ni 2.6770048451235797 2.6306431075213865 12.914630335111552 -1.5701883843265796 1.5271997965801956 1.7394502760816173
Ni 0.5540620070040095 2.542933458948745 11.61639641959157 0.4930275431193316 1.29922907813004 0.6402789920415489
Ni 6.3957683680986355 9.348709115732461 5.527236938695618 -0.4280989607667466 -0.19805207651385245 1.0707629081007044
Ni 5.574488792112361 8.788711772155919 12.640425726327736 0.846220241495491 0.13087814977051654 0.32848645387873104
Ni 6.230533694848038 1.570657369318043 3.80247965401873 -0.25642897379084867 0.912096789583642 0.4049724020516123
Ni 1.7504533770037447 5.176272767900094 6.531278343940553 -0.31402914080282046 0.39795174775940495 -0.6141936078084067
Ni 7.676454813764163 8.069823215542423 1.5583287112725444 0.3265925792901279 1.0367644396680726 -0.9679673754990167
Ni 4.815868198673086 8.307818393135838 1.644374471154504 1.071026446174736 0.17198494711315543 -0.4879043629601533
Ni 2.314467322025608 1.5664283958422802 4.711692330887938 -0.984541220697298 -0.4457943211639806 0.6687683577304935
Ni 4.530606393956463 0.11836508948865096 10.22429314325947 -0.28682584091515123 -0.4436919301089972 -0.2508404239594777
Ni 8.176009230763539 5.7845247302197285 0.6360514611045225 0.5639701928764803 -0.9716003442659138 1.2706391823074892
Ni 8.951268711109636 4.578113093809736 2.546545630179571 -0.5836866974688012 -0.8933647603917775 -1.5750243722626422
Ni 5.449826410242771 4.1454189321334995 13.3733714646432 -0.02149956463467265 0.579905118939182 1.466454399071023
Ni 4.571492626599863 8.614899115588763 7.890462108840801 1.8634576668742293 -2.135465983160574 -0.5196410319418019
Ni 4.868231754526907 3.133032229448839 11.513620360494034 -1.0842298322388875 0.6856934156206062 1.4512833477575393
Ni 3.9911075681008654 6.180441596363294 0.5437619635275613 1.1968996865314936 -0.5816431846762112 1.0201288879939205
Ni 3.5144431625565464 8.794224211380875 5.595240309556529 1.1648341734555165 0.35576457286839375 -1.0400361684408088
P 4.227874681344331 0.42576159991727847 3.305303803760307 -0.049946764231772044 -0.4710237851547307 0.7181906169173632
Ni 2.8890167664707143 5.002838687561118 12.49236364013003 0.7696643593166228 -0.4358670347479397 -0.32884717965225946
P 6.982358383313162 7.78675899966255 11.280161634142198 0.11648125761889619 -0.7620096709848425 0.0543358944384032
Ni 8.030894499005708 4.995581104259918 9.118001992209832 -2.0108584968901178 0.886095480423874 1.9130028247922086
P 2.175963823911109 9.431164864943295 10.911060891946905 0.08917254250161417 -1.259162034905825 -0.6509968926796853
P 6.319452940637547 6.746551560989958 2.198405084032274 -1.2599559915620302 -1.7275576384090892 0.580835086952619
P 1.8654943825376475 6.2177636723218805 1.0416451049830218 -0.1326655806882425 -0.18723210308021304 0.8176732830957337
Ni 7.651921227464815 3.398137158406531 0.683780689911433 -0.729479302457305 -0.016108732636404516 -0.11427859354062254
