# total energy = -340891.1218240073 ev
CRYSTAL
PRIMVEC
9.06069528363642 0.00000000000000 0.00000000000000
0.00000000000000 9.06069528363642 0.00000000000000
0.00000000000000 0.00000000000000 13.26124341671748
PRIMCOORD
 96 1
Ni 6.365002650020618 1.8876781099914524 11.221028017484194 -0.19500377660583187 0.22573411581015318 1.2504364821073692
Ni 4.613144364970351 0.7867682749233155 5.928187427977116 0.5526707087032611 -1.79387384513782 0.5813459651507665
Ni 2.8727841024584686 1.625941800246553 4.721718678664162 -0.9251698207175164 -0.21074227038701127 -0.0927728582583628
Ni 3.3670994039588917 4.607961647167392 4.74048337896124 0.3838631308768227 -0.4330835584655316 0.17349084223472055
Ni 5.045149263794288 4.4441170911692955 2.43586468241718 -0.47124515713691745 0.16240244563104292 0.5177708115022824
Ni 7.075361174062579 5.970989247259283 2.658361838334675 0.45978240791295655 -0.12964402025309932 -0.10770633963974355
Ni 4.946007134074044 4.316859623437544 11.563499654122918 0.8786014860396739 1.2229292778260359 -0.08230332618560665
Ni 5.348465105003837 7.9503887773894695 12.473923770332746 0.8060678376463214 -0.40063906478358097 -0.022087318817342605
Ni 1.800541401755336 6.567210190595164 0.2411304761304066 0.7889923702212734 -0.378023127156278 0.7338653473401425
Ni 2.5537298332353875 1.5034593190220733 0.31777127474598477 0.33388731317932824 -0.06298174303885928 0.3830565758151274
Ni 0.5327788597964759 9.157554294183276 5.01951293206056 0.49029960266520717 -0.13768617383128545 -0.4674694921445691
Ni 8.870901071924148 2.2603626356406092 1.2925843171707598 -0.9935943320385016 0.6117073510514434 1.533285083542327
Ni 6.918574899827602 0.8671828531978665 4.882564144465093 -0.3136054230018405 -0.4632572538354345 -0.826041709665087
Ni 0.8731647243403731 7.568598252803295 2.451659286742562 -0.2993563692819941 -0.9932534037593151 0.8537774850174586
Ni 7.589800280179038 3.7763438357880146 3.976980251769845 1.271059043453727 -0.025523855302717335 -1.363982311247025
Ni 7.4280940483094335 3.5291861850378026 12.665070919959614 1.4318990296936567 0.08970373241473584 -0.7830639205519804
Ni 7.940023341783551 8.882109152207821 7.206411448913768 0.037974936581876534 -0.974248066301406 -1.0232273244135863
Ni 7.009979195625247 0.5783052302033793 0.4866716988106044 -0.3690160385616612 0.7860726254713172 -0.06849418821665623
Ni 1.990381093027366 6.43391829968724 9.391440744293636 -0.5641661109373703 -0.5140830782380501 -1.5337103440052038
Ni 9.23864751854776 5.181612398113114 1.4759365504936313 0.08501404024855036 -2.2738494401692 1.0950084109116305
Ni 6.377923201746176 1.8055972698218592 7.239485705550379 0.3554884363888716 0.6867696794039205 -0.05104513950227338
Ni 3.476353269812182 3.9682312442339405 0.22169347223021768 -0.4732452182860817 0.5883306239987158 1.4767550096660826
Ni 5.775577228279525 5.425689412407022 4.941908981517614 0.194500097496536 1.5121958669721958 -0.6577817768120027
Ni 5.240878407115136 2.935547539907941 9.279422460255585 -0.08457952381429304 -0.09201541126704799 -0.387674534203113
P 0.011633026900733071 5.268486346180899 12.539540420782487 1.8538075453789749 0.7746947226516787 0.32668513900393414
P 3.9411397648093813 6.121759219709005 12.577480270880965 0.501212392922969 -0.44826437997102797 1.5046638202612088
P 2.3735216612370387 8.508083643630627 1.273082076263261 1.1985251379500583 0.29234702784369654 0.38683224080747575
P 6.246515935493874 8.105553187137156 5.920204049207559 0.6780153302500581 -1.178357404752932 0.150117971836735
P 4.51746342091572 1.0453958600559852 12.372170348181012 0.5385854342547886 0.6992045627331636 1.076708584161178
P 4.059871118113538 6.357310119575317 8.345711450644734 -0.6319748430512278 -1.235174927962608 -1.3802265410200294
P 5.052832733544129 1.0656102716266183 3.6878326200506586 -2.234141837166933 -0.9871963989319578 0.30074425076845623
P 0.21235823769806933 5.733127870050742 3.662967353500552 0.1197103060791551 0.20956856179388428 -0.4962511922629518
Ni 1.4661654965098703 0.9674376363205641 2.7292563438896997 0.4762603509633217 0.08925970289878175 -0.6078414403381338
Ni 1.9905170034592616 6.681420256864921 4.729224558782994 -0.47379723413480984 -0.4287101119881842 -0.6345523739704169
Ni 6.105314057449615 5.838105087647046 9.17650202052864 -0.383533772561862 -0.030051053749109533 0.6056212927583634
Ni 8.607651626037477 2.4828570733494666 10.230333388057621 -0.24583551454571856 0.39322940258307115 0.6923250620045109
Ni 2.279951859224522 5.327833901442057 6.869801176167936 0.43741303907882084 -0.26697409629654667 0.9491245317609008
Ni 0.6371191105019606 -0.23967804664821368 9.073489161708004 -0.5967766978835399 0.4675602520861625 -0.4946524803172643
Ni 1.4357668632425136 1.214395951770662 11.4590542993501 0.448440500537576 -1.303438231115381 -1.7372596961882014
Ni 4.2527189602781945 7.115536297730972 1.3464139088969498 -0.5742733745747013 -1.9238081429378289 0.154870656030372
Ni 5.587105702021914 7.976266123622426 8.096573131867029 0.11148740394873059 0.9413636568685594 -0.04709026861958342
Ni 5.222757016195698 3.025656156254845 4.758187071819986 -0.09733630925932914 -0.4894747927710667 0.3333399253162904
Ni 0.7241769906875775 7.265418322025642 6.625794835298615 -0.10598138652883682 1.057481874721082 0.5009758514321307
Ni 5.174789694431945 4.766007358071268 7.241050487656273 -0.05012211346737174 -0.47472077439034377 -0.3088188002464746
Ni 8.080663456709308 7.1211720503069165 9.707204168925749 2.4115271293600533 -0.4333177859635247 -2.0761346923901085
Ni 4.762374019191921 0.24713137473337846 10.336860890647085 -0.9609423503314353 -0.21480564182310746 -0.4594167970434217
Ni 8.072998108350385 7.357384380941788 4.54304991882442 -0.42563044462159594 -0.29227426562423214 0.8288313565950822
Ni 7.4787795787111015 6.148098661410407 6.904492766944108 -0.532559796885999 0.16282384943917766 0.25672156533060303
Ni 2.4405164434662 5.403354798098814 2.4412757297457244 0.15537767757377757 -0.2548516020013998 0.06780641812101225
Ni 2.405279398823353 5.017822206287776 11.636595002605107 -1.1590900718828876 -0.01846669134561981 -1.1670563779178158
Ni 1.439164624039908 3.362188507019724 3.6455427300619667 -1.1544991100780955 0.6428724638003379 -0.4443699300126282
Ni 3.5797539263984937 2.4538447264874463 2.5090542621321514 0.5103830036786435 0.18000704608668355 -0.35623251364374775
Ni 0.7928815261499879 3.5553444128300113 8.07548708139317 0.9947698404038416 -0.003491043872393988 -0.32707928911855927
Ni 3.7139971903296884 2.8518901387283564 6.930591194146282 -0.698017741513914 0.1745038568802672 0.10880908578561906
Ni 4.027216371676711 7.071093586501051 6.053240428503519 1.294480507701461 -0.15411475170095396 0.14390387260622314
Ni 0.8294948904331658 7.3029749047061765 11.477009879542626 0.05093098252191228 -0.14790939422119043 -0.7040909442911875
P 0.2959911749999125 5.8341999279039065 8.112606032483 -0.7875463818033663 -0.9599589033722435 0.02051843166832595
P 8.4895998248928 1.620396654625205 8.193764493854795 0.3306883466260563 0.8213705294416628 -0.14481789978006027
P 1.5617195908280657 3.3410227224258207 10.218159437637944 1.55912004232756 -1.0940414190126706 0.6932151779189482
P 4.2547213739747916 6.221426869765913 3.5141363698792096 -0.7224272807065301 0.035383264595300355 0.19144665538219288
P 6.7083395830757455 4.13808304132183 10.401430124701678 1.5128353003284074 -0.936780151262935 0.2824040576983717
P 6.320940488000005 7.7732612418474245 10.473199893438112 -1.6505505276254153 -0.7465845946790239 0.10349487266155724
P 2.5730744180418874 8.673541003420553 5.819988227075338 -1.199245818166167 0.4875323243327153 -0.5146672328762942
P 7.136239986856429 3.9018616499915 1.659498991951168 0.4626620434535968 1.4166793845304246 -0.3835062617580363
Ni 5.506710151207828 2.786517220986485 0.5122699756234022 -1.3382597096699405 -1.1142970839379132 -1.2025486572871547
Ni 1.4043353106927488 1.236667141210651 7.189874773630236 0.1979075805161882 0.2586033557343482 -1.1012757319775808
Ni 7.339262990022351 0.39534713713300584 9.63089861604218 -0.3088493963740939 0.44617484443185096 -0.6226851902191857
Ni 2.716659258992052 1.8163523153325454 9.165402668590485 -0.03781244286208327 -0.9639122315930366 -0.054170058284500264
Ni 6.352091158990518 2.203878260144722 2.5628285836160374 1.1757096827174396 -1.387070046304424 0.3556594147490972
Ni 3.9597413725881845 6.760918798828494 10.513606970910274 1.5756542925371573 0.7310013955287863 0.2527777501915066
Ni 8.343731688686786 7.049819073561631 0.5391014130882678 -1.1480129881331196 -0.14304486704003752 0.02641525676873515
Ni 7.53975805915501 3.831976505910688 8.342171436928622 -0.8697995714773278 0.22818591978475541 -0.6702374860768522
Ni 2.9553995236601853 8.372327243557658 12.300373397358198 0.12177464480735156 0.3148549791382255 -0.21092764692493998
Ni 9.363503901982686 5.0009240092554 10.310524167154318 -1.4448409345663051 0.30367427993105767 -0.33059193025750805
Ni 8.54371029817824 2.2103475967029613 5.822256119148905 0.6395966212625436 1.5616703195532395 1.2470889057913748
Ni 3.4855861184856356 2.677372083478711 11.400956213992837 -0.8286976592306954 -0.8923463464295923 -0.5234434364070275
Ni 0.9175313257284324 3.2149069023219936 12.625101474078157 0.6631119307756644 1.89796161418837 -0.4568978872763099
Ni 3.070425052521316 8.503236171559676 8.010705827064818 0.1992638374337665 -0.28188752307326936 -0.008176108052889144
Ni 5.739280082267892 7.895770905158283 3.6044189515789404 0.03464561509832743 0.3748244177133222 0.1370940487732413
Ni 3.222237004948906 8.277380215835263 3.4842587266007867 0.6800940671559579 0.702754741978267 -0.3244768184987057
Ni 3.31138518757708 4.284576365514566 9.24595134515784 0.010801204380562044 0.7862795992758007 -0.30557895315293826
Ni 7.386886005358632 5.970916761695605 11.61732652764047 -1.788156997258701 -0.7333709242022273 -0.18076449307799836
Ni 0.4462256603479653 9.077004711546374 0.4166732960365462 0.6401743481428845 -0.6568299544216946 0.19287207497480977
Ni 4.624606144726896 0.3159962845054258 1.2307215128499833 0.11706052716113388 1.4563257952774533 0.6300105202360053
Ni 6.091378707832568 5.244756384771895 0.337103174578841 -1.1460738621288777 2.0893668748096665 0.13377861124676313
Ni 7.849008655890675 8.365749178653903 11.918543005712001 -0.24135716705939078 1.531741393204291 -0.6304337238163529
Ni 0.17332294951850843 4.85137723069274 5.619637223000488 -0.32503294811249184 -0.16195481657066302 0.4383877442872644
Ni 8.01317033622986 8.938149553626182 2.6902292103360526 -0.5270182982424795 0.4560221695395759 -0.21841752754408192
P 8.786201690766697 1.7384846985517215 3.6811485450100236 -1.126865407521227 -0.3516783186141621 0.009369357030041929
P 1.7393907680976932 3.29463196167206 1.4669592134321419 1.3395015524968412 0.5743330241680431 -0.0950310581649202
P 4.576820036872339 1.0872834551662656 8.298727214338362 0.5295261522659976 0.5085266671961952 -0.9806686251157692
P 8.680436192665399 1.5259117223712568 12.490128824162454 -2.715541309129033 -0.22726032264669246 -1.5399686662100898
P 6.386195616700901 7.7004766752195035 1.3011312711979128 0.5514584335627148 0.013786255150814967 0.5525961467115837
P 1.7591793269817193 3.308286429729856 5.765736406940725 0.7513146531648415 -0.4810012080824168 2.2067888990752764
P 6.923014640602864 3.8838580481130385 5.948449861233685 -0.18807773890995996 0.03226477357097669 2.3335514840155227
P 2.3624857341671013 8.386316957347464 10.095029116688096 0.4637331650305884 1.3002433783271672 2.4133770380845982
