# total energy = -340865.49306864943 ev
CRYSTAL
PRIMVEC
9.29757793533300 0.00000000000000 0.00000000000000

0.00000000000000 9.29757793533300 0.00000000000000

0.00000000000000 0.00000000000000 13.60794512193983

PRIMCOORD
 96 1
Ni 8.802816620681979 6.519954418108316 13.237414494969677 -0.9352050934663313 0.07360271308781519 0.20603458049869677
Ni 6.251161440071129 3.9537764207664354 2.6879093257004167 0.2118964385961125 3.099293111238972 -0.9674472413294887
Ni 3.570530258376506 7.658721763317401 2.3559030450559297 1.4549150309728556 -0.9063598870998648 0.8996166548387604
Ni 0.9329747552445367 0.7584369032588816 10.413833982316081 -0.08228352869126473 -0.8369254464571263 -0.0828684546604573
Ni 5.895194371336029 3.0609579046136526 13.366757750381796 0.21451664982777893 1.5974665033162425 0.17678699648748905
Ni 2.7139908913175015 6.8890775596183245 4.751132055494215 0.09707405673687798 1.663392159474774 -0.43606089592630065
Ni 6.985019266306866 4.503635179712102 6.139619327369147 -0.46329684882411826 -3.263647281279747 -0.7829207101058968
Ni 8.77340838168054 2.5490146684779353 1.9192785579960152 -1.6469751515693312 1.424906400425907 1.2479723368375928
Ni 4.392780158019353 7.43630510400901 8.52710624466279 -0.20740883513840408 1.1822749946397832 0.6901949030353856
Ni 7.021586640316561 6.139116328402982 11.00756243297986 -0.12530528366842933 -0.3955616502606736 0.014675599734303756
Ni 4.5009853700012545 3.9976888813430396 11.0161487462008 1.2365921200251089 2.6737518838970726 1.4695446079605725
Ni 4.314290005110673 1.1651166810706344 5.037593220877098 -0.3224425616774963 -2.4282428994528376 1.4002623766249822
Ni 7.922726488719197 0.7486493429690253 11.224567901931362 -0.7968617456670213 -0.31002259074658867 -0.9083553202633388
Ni 8.826227921916765 3.664658937368152 9.354850083106129 -0.00032935831496072306 -0.874786740279274 2.0071694780743043
Ni 1.9141388569147648 1.4685431369074933 12.668765331021826 -1.7000715171736787 2.0846982656894033 1.4778251028018097
Ni 5.9808901471426275 7.690361421022712 13.028382628853343 0.6947023039874358 0.5301835833443386 -0.04421089018925934
Ni 3.1023321264146033 0.4120351827010442 9.679902705214673 0.781273661420777 -0.7684253447031992 0.23822093542325423
Ni 2.473955321826458 8.785997302201547 0.6070807023330715 0.23561820769308453 0.749571959442122 0.32415517349322887
Ni 2.190555848856846 2.278780565861165 1.7155128400208168 -0.3081521131967532 1.06649950483866 -0.7353637862625401
Ni 4.6899400463295065 6.047888493726368 3.808196805010273 1.8930888594771011 0.1797234534079937 0.6986242647496614
Ni 5.678969898930882 1.8233573059789263 2.2125706538861247 0.035082445525429905 0.22986279326654607 -2.423559377934239
Ni 2.382104549428348 6.80239624055085 9.937324745440048 1.2769944351015556 0.6159031343003458 1.345531303630689
Ni 8.39976661729519 8.552953511315968 7.6244360149324155 -0.08796566667770656 -0.35764739171340343 0.06687747854883967
Ni 0.41972892844043447 1.6317435223618943 8.039669564442342 -0.06994069085519568 -0.6062571265701495 -0.16806221501998153
P 5.453838346866113 2.700286261444557 4.099475045520138 0.829530439544636 -0.31197097272221114 1.9500511357947574
P 2.87017160543264 9.113513782462286 12.045739282534006 1.3230943147834118 -1.0681159573961605 -2.1316962317054964
P 1.8070958421744627 8.62689714861551 2.8377872117349114 -2.019439039470277 0.40636285464123567 -0.3703974922902202
P 2.9274725782324733 2.27510802257771 8.541543523676838 0.19235991122508161 -0.45192948752744105 -2.4806149852966506
P 6.534681781553868 4.58590944683943 9.440742967564901 0.3744899171920389 0.2976872091096873 -0.5677875097400416
P 0.9386741705173417 5.356223076149669 9.215178148368464 0.47365839456410036 -0.14729952855133344 0.7373355652769302
P 4.381009424356431 5.581280247590974 6.188526446811249 -0.43144859396526986 -0.059511267991755566 -0.11103643245424104
P 7.4419766265480165 6.053913324226822 3.990176438373339 -0.14696091426499205 0.3470971270013829 0.3855340908213425
Ni 3.2739096295864556 2.814683660329702 4.093228932664884 0.13219429747877878 1.3890953042645688 -0.6534692654795777
Ni 8.109077843226265 1.83915389088675 13.283205066288707 0.9838578214770282 1.5227587300897065 -0.3263403540700057
Ni 6.213292405150844 2.023059982397492 6.17121714597376 1.811188682267184 0.20973285528589036 -0.5834298442629887
Ni 1.3628110806557159 3.7979211218789444 7.766939062150615 0.36906874617646757 1.3558846218405551 0.11021316522199727
Ni 8.865798413598752 8.277401194121637 4.028849713784812 0.003618313478877639 -0.6187292908952312 -0.9291126074153483
Ni 4.043916438824911 1.8462479428494745 11.74131612634275 0.5186444723564874 -0.42764541816909574 -0.38227290357156746
Ni 5.193422486546377 8.722095049069429 10.89348673029119 -1.4579751579554179 -0.9440052082564645 0.8291979959058817
Ni 3.589422936735952 6.577013653881896 0.24776278651099135 -0.039688576838873585 0.4468582436521207 -0.17538651659553664
Ni 7.790217408020961 6.4785894938852975 6.17201952694936 1.1400605660552623 3.390985021997173 -2.296874954530096
Ni 3.667104200364478 0.8221941141752498 2.602179148855467 -0.21040005655624408 -1.0915973283475522 0.02559250375712367
Ni 8.355407872977812 5.630910718596248 8.128855651004912 0.0957396541961706 -0.16638894108261668 0.9140251169546065
Ni 5.5809176420515945 5.4532247067225486 12.809743575459047 -0.24302349901822018 -0.9889280369110839 0.36109652660426844
Ni 4.999168190796431 2.850386359591646 9.270262578589119 0.36133666763953254 -0.5483229732575267 -2.192542673568908
Ni 9.563674613234562 8.68391919407736 13.194835307068635 -1.7169032440190366 2.0801767236699664 -0.28151137068077325
Ni 0.4468815750353774 0.7034817093714932 1.5030520271628658 0.4856749594090023 -2.5672642471557787 -0.038097321092353746
Ni 4.417121217047417 8.17878178498845 5.988107856891857 -0.568506133073621 -0.7885678810893452 0.25464154287312274
Ni 9.126614069769598 0.5212194296392696 5.8742915566275125 -0.46623999061284216 0.6372995976982508 -0.038913646346062016
Ni 0.6203325401606883 3.449977862899849 0.1218075684975851 1.5269758534948474 0.20985266869320632 -0.6269560496803976
Ni 7.207417330459392 7.633915825392696 2.359672283149886 1.9477489700241422 -2.125655424828055 0.7998246849500871
Ni 8.27707577889399 4.465254778005512 12.519826500358542 -1.9396137425115174 -1.3391246287733969 -0.78029587088854
Ni 7.271756569754352 0.7775471449419543 3.3944750416722185 1.0771531278977644 -0.3859668074833869 -0.16902406471261858
Ni 7.890463893292388 3.0788929324460197 4.246971821846043 -0.23969726285846457 -0.682388005396457 0.6236020456065001
Ni 2.5249618343657874 4.747603624668718 5.413267435798556 0.1272624073948002 -1.4531833929937297 0.6235979318414422
Ni 2.566484817413663 9.571019699801472 7.249469345691643 -0.5496661175489823 -0.380844398655157 -0.5017656943232778
P 8.380483440662568 2.5121218792405937 6.3198017389178025 -0.030657062764224623 0.38553666192450375 0.9188490207058111
P 5.060662371243956 5.900884489030902 1.5243351128088336 1.2684907685059186 0.13057681648001382 1.12439997669987
P 4.250834035719327 6.437187379350549 11.136660232334552 0.2471804586093872 -0.7149777664070203 0.33737938549298674
P 1.901800970997942 -0.04601185367383017 5.008078059729431 0.713275696114249 0.4963977451431451 0.7904635554501612
P 0.2087176079822066 2.4128981275417747 11.488480581311626 -1.0467858284598164 1.6202248800586805 0.44248788249856696
P 0.6621279422419948 5.534485537855202 6.183517841578851 -0.6707383369726707 -0.21883198937368117 1.5035464188273138
P 5.0991450463078065 8.676750761491173 3.7910102322014954 -0.14273402066783805 -0.2149848477134491 -0.12307896544107191
P 1.093041856935585 8.692686810067988 8.580517110855542 0.7486371063326784 0.7753716941140452 -0.511869358416183
Ni 5.706825442417544 8.850448112431703 1.5988654272759346 -2.5881508607968007 1.1905282357875109 -1.2240281673171693
Ni 5.985734185245615 5.954252586365161 7.576237370928791 -0.5984492004899564 -0.013416787626538185 1.194735331890323
Ni 0.5712971141431124 5.770281411808889 4.051098817777997 1.7265502801904973 1.321315111395802 1.6621654861565243
Ni 4.244418706945697 3.035045554914945 6.821621772200289 -0.8493112217159888 0.9431073790325434 0.0529752666454507
Ni 6.8669307289824 3.1956519161260957 11.131652556859947 -0.024685418561822003 -0.9706742329072185 -0.9486974715258112
Ni 3.810454256932356 5.001650644104488 8.819921374804947 0.7938355572461877 -0.28663686483279666 -0.03165336523922291
Ni 0.23135906976415604 6.804720635034049 1.8319426894420716 1.304899646152256 0.9016483405568085 0.2767795124227427
Ni 8.613778266152332 4.779577995179611 2.7098320847081605 -1.5034895974474494 -1.1712956128101442 -2.2700172109073034
Ni 5.932328897599624 0.8301054232382675 12.859017949229496 0.16229163108479147 -1.034700100939876 0.44671991830204355
Ni 2.8036009474338073 5.176370728617626 2.839011702748661 -0.9277866895150731 0.19810761234213622 -0.6649479555431387
Ni 7.375433861282982 1.7968313161366538 8.674384527907275 0.3194991627784562 0.09308807550593645 -1.181401076675262
Ni 0.766706169072312 7.647155576369 5.922667784369653 0.08929595545335589 -0.10716357976239609 1.5482884989296948
Ni 2.4097276534666907 3.406790613402003 10.16565187504032 -1.7609398134139607 0.24497316654542325 1.2366520267287668
Ni 2.9726959972976026 4.710069302554014 12.610047407345034 -0.48025018884900517 -0.6751686048298824 -1.5563411940308423
Ni 4.896699584399066 0.688590708554324 7.731095039704093 0.4899249929346079 0.38992450657955424 0.6811536187687237
Ni 3.9537764207664354 4.105317643493108 1.0700759096837809 0.29957774126418085 -1.1804765079784638 0.02905937925980157
Ni 2.316277697664139 6.3540205447416716 7.65821132628889 -0.5011591710875305 0.4204643270396243 -2.085534131327137
Ni 1.8256724028841929 7.272054092248202 12.508953912723928 0.35089027549522794 -1.1376316448987955 -1.8134615374617606
Ni 0.6434649140574895 5.398461972698369 11.415650793848432 1.5009069243219377 -0.21159330553339686 -1.1064760452315976
Ni 6.624719526255082 -0.42198545060472453 5.353678329069462 1.1213537336743784 -0.034164818807166965 0.624607346942563
Ni 1.992842854115899 2.3838431965017812 6.141428636034868 -0.2633095029607659 -1.4867735702443492 -1.2658247916379812
Ni 7.088650069945831 8.142288791602219 9.607739554089262 -0.3061440816277889 0.5537184332414851 -0.4574301056306961
Ni 0.4731119018993868 1.3430909178602515 3.839168896620009 0.9808540016536978 1.1596019785222995 -0.5131513104524001
Ni 9.422816307552674 7.386451491133347 9.910638837257334 -0.42910426210280933 -0.8769611222227734 -0.5880177207439874
P 6.179607280300316 8.23394431486374 7.421610282086222 0.37948891306852706 -0.6182258688962513 0.266982838047295
P 1.467446022711423 5.488899513250694 0.23850332864771792 -0.876018041583214 0.5082991245664213 1.1596176622515835
P 1.4738148635953896 3.5584712997976675 3.4152272356182234 -2.34449846994533 0.30873215406993926 -0.2868371537690608
P 7.623521133263828 0.15781429855793147 0.7528881087485878 -0.18184024264068038 -1.3710433318588646 0.7630026310257312
P 4.179447232351305 1.8852233895437633 0.39738591891012787 -0.8737693547583534 -0.10793105405603994 0.6382563051845653
P 7.551139489056997 4.201091993778859 0.8219793401250022 0.017217906540183254 -0.7221344320564596 0.6784182221154317
P 8.28376073742767 7.875624958911643 11.559799512360737 -1.0339989611077935 0.525823763713746 1.0541119298075845
P 5.971666949833292 1.1858967677504375 10.041955968464583 -0.20996091213629647 -1.1822613677930285 1.5062874719075605
