# total energy = -340891.4292470656 ev
CRYSTAL
PRIMVEC
9.09274788440835 0.00000000000000 0.00000000000000

0.00000000000000 9.09274788440835 0.00000000000000

0.00000000000000 0.00000000000000 13.30815563787502

PRIMCOORD
 96 1
Ni 6.564972948918956 1.8112571609717412 11.357964860656658 0.14439855285445455 0.7249809003663192 0.7665268421289056
Ni 4.397080036746733 0.26468897694841964 6.020490122504289 0.8536286181444201 0.33533741536229345 0.03514569466319754
Ni 2.6060451467114523 1.3551103786882426 4.8599654543679165 -0.2825616663221585 0.511129652036681 0.04584225514509524
Ni 3.29609377142729 4.179936128368304 4.730955731121201 -0.003965155295335107 0.8832790940210012 -0.286723511009332
Ni 5.237149906148122 4.4733590973969 2.8267188597560375 -0.7751369523954198 1.3186241948272002 0.09913916679602282
Ni 7.249347699055498 6.201272132737524 2.474145748238294 1.0044724124035862 -0.8665052169967722 0.4451037228548592
Ni 5.267983413677592 4.610805071981227 11.35170995949785 -0.5861824673074615 -0.11871271805257619 0.5261461800501713
Ni 5.633039049269784 7.987351475263645 12.101571588011856 0.09024263563734136 0.11743102312667517 1.2791762732442227
Ni 2.076137994897121 6.371697503314003 0.4722436735779307 0.05397336889266189 1.4403682435069323 -1.1559147594786996
Ni 2.916580666955164 1.4232241518829498 0.4411082868240505 -0.27526744665359043 0.9510860263626459 0.2641194004565709
Ni 0.5383188527330902 -0.06409296015149554 4.597687874115696 -0.9413181483426046 -0.15064016288879217 0.10670335229652593
Ni 8.64633018100921 2.5756844620635913 1.3872550604394012 0.344873894097819 -0.5458328598458213 0.8484900113662741
Ni 6.70277354066449 0.947046046365178 4.817219538046245 -0.21821029662928224 -0.5798464977871046 0.00795833561512823
Ni 0.733822930805006 7.5918987840327 2.471284260529794 0.05393634500713937 -0.8813700499237466 0.2962129385570059
Ni 7.586815938055414 4.149184455568344 3.8286632797749824 0.29822148434660256 -0.5676268157924611 0.5645682314717955
Ni 7.905525838502308 3.8954695158470893 12.610741819368593 -0.8189410940645638 -0.13118205416418052 -0.5051340965748784
Ni 7.956063330348015 9.244687537684008 6.843865707085832 -0.2051084691400016 -1.5087757855470532 0.1842982172628697
Ni 6.860769125103313 0.6849485025178786 0.4943190465003857 -0.8343188620722147 -0.08335670715078547 -0.5876222850777815
Ni 1.8644224569094603 6.460088103931511 9.295334142502393 -0.18423162569099238 -0.03669966941387873 -0.4472536793183265
Ni 0.16761298370568373 4.987263013218348 1.2081352044899716 -0.6538572449466158 -0.11289251182637333 0.44135454022507214
Ni 6.2656851576088775 2.0675089773077766 7.315918432961574 0.4521991962490599 -0.8299017068411255 -0.49650727413781587
Ni 3.6403815712196272 4.273655079151624 0.2732443432812056 -1.4609308981496323 0.4780675793753895 1.2052861108229758
Ni 5.739305991911159 5.4526298416932 5.20278386612818 0.011194583164238785 0.7237483135107987 -1.033486026027117
Ni 5.025152492981042 2.7819716296604837 9.731895146190057 0.7232207231421028 -0.22492807496909006 -1.163155500201513
P 0.21917068184593597 5.643668471358238 12.33913507995234 0.282506644714507 0.49382252821680117 1.7796841839009994
P 4.258024645815393 6.052523872733224 12.610794557305388 -1.0833461440823535 2.1001927617805762 -0.6196271201191522
P 2.342810100123977 8.525314801560757 1.2654567954119782 0.7678360478586325 -0.6433522316502339 -0.014087331331001544
P 6.391410580377963 8.009346832006136 5.896644170689595 -0.23924809113618795 -0.5876994181726201 -0.29494435625722754
P 4.828994646347827 0.9978290423994112 12.536841421522823 0.18478158465719144 0.24601883420111825 0.4965998338516222
P 4.285239239751018 5.980281992072171 8.064875333077122 0.6325003765373945 1.1390071850900836 0.9439378453536388
P 4.662651919499078 1.1193899867112578 3.9057570506211503 -0.3063484843291111 -0.9909851765504287 -0.28796021162991053
P 9.219591553967895 5.634875784309877 3.5250909857377195 1.4913095104414897 0.2096850327670905 -0.4860801652672209
Ni 1.5902397420632175 1.038464531974521 2.617368345451189 -0.6782076487665224 0.9439512150900775 -0.3655383644257059
Ni 1.8790163170052427 6.373261455922399 4.86044464217293 0.1536763786119547 -0.10459170527016179 -0.6035656957809153
Ni 6.362450178879479 5.789416124613874 9.07818477847533 0.20530078765646578 -0.41057740694321554 1.0179120828482597
Ni 8.982479971589257 2.4454217581806144 10.508372156564729 -1.028311166694397 1.0314602538463398 -0.5931028485763785
Ni 2.6351601249212306 5.122390337133251 6.978104669548175 -2.022923141364135 0.011530626347418851 -0.4107540417303958
Ni 0.44438258527918517 0.1893055519489908 9.735274920518782 0.3157420097288691 0.17068602579607378 -1.2197570507456412
Ni 1.4045658335548843 1.0742444942654266 11.750329654760796 1.1045238066012333 -0.1439712355090488 0.16678514807977082
Ni 4.240384715232329 6.809267801998945 1.8230313599985504 -0.9169101518118854 -0.1991350251653861 -0.7406965113293631
Ni 5.5322095697668985 7.913818424425894 7.901238607950806 0.6341271135075401 0.5838437918719558 0.5655843314411356
Ni 5.301672043992155 3.0035437061801247 4.997252305867087 0.4355669870090176 -0.6042794340184884 0.23690375927372745
Ni 0.37435387941396586 7.396086461812966 6.519878375860374 0.14986651794756126 -0.15980331744529896 0.6813374526447555
Ni 5.351918567910718 4.25514224478713 7.240555012007136 -0.1632822771328349 0.5544547971868774 0.6036734250033732
Ni 8.61909740157814 7.312278606047966 8.867969543862003 -0.9535702262370803 0.17623575196970936 0.16025608871200142
Ni 4.651158686376916 9.446182827230759 10.20796777583424 0.3405035329442652 -0.5525596370466935 0.5607776540811116
Ni 7.912163544340266 6.975901496774838 4.678308721803705 -0.15155933226895188 0.5635490461786616 0.13384905947338238
Ni 7.359288111777059 5.999340391300058 7.008007988985558 0.24822895447855958 0.4471978863797266 -1.0431302339851
Ni 2.3028929376190024 5.279904005942745 2.430587849544939 0.43605112573428767 -0.15590089706709925 2.0560402356330783
Ni 2.324942850847832 5.594940436309455 11.458880721262911 0.7559660358939237 -1.6399650388000855 -0.1974794918398341
Ni 1.0481755865429294 3.3304279868302022 3.6261532395823184 -0.6354234637214604 -0.06677206331922693 0.02572645823182666
Ni 3.7092864134662555 2.702319159604999 2.820823122132296 -1.1352634017769352 -0.12952317840451888 -0.8964254015949722
Ni 1.1023683629733734 3.3805926760192557 8.414454202769607 -0.05318738265625679 0.007858833922786466 -0.8835809415321363
Ni 3.4469515489033795 2.8362371480727138 7.079606103107808 -0.020400160922906804 -1.1169838867414568 -0.2316437964263688
Ni 3.9697754502413156 6.986521826115569 6.206830529420734 0.3039424459907798 0.12360552736850325 -1.2150701867929332
Ni 1.0221976062976645 7.57148556539405 11.681792159522185 -1.126743280121066 0.3676291855164637 0.3466155593792741
P 9.472279013196427 5.547021655808039 7.793535011169161 0.2627695712968958 0.08875036736253102 0.8634072947977388
P 8.505810857694431 1.734132474783314 8.245440026639773 2.0029886072237377 0.9578752813703373 -0.5523963719959518
P 1.871560263872195 3.441823239187479 10.462712014597763 0.590436357487809 -0.08036008641630676 1.0745619701318205
P 4.010474589050488 6.214365689458974 3.9932583805113264 -0.6285714737966336 -0.5351352709226591 -0.6169151205046278
P 6.954133458725428 3.9303129251225024 10.282160050881924 0.5729561984251745 -0.4555408590277832 0.31771353163294314
P 6.6796234049611485 7.775572288041922 10.111975638120112 -0.3412504384126187 -0.05849182558830571 -0.35342126944719776
P 2.2365340647348777 8.36751016482412 5.86769922686224 0.26207845876714214 0.5289988190076179 0.1803752280593797
P 7.057554371329433 4.053456007538191 1.780484574852018 -0.36810972469730796 0.22889785825011544 -2.710176445272694
Ni 5.5289998298206 3.1108108510710553 0.32407734942791655 1.1686136951026067 -1.2051323588539309 -0.2892681318080567
Ni 1.3360065157217387 0.7855643024492676 7.232104212273168 0.10808891979014289 0.32042861657126104 0.1217587039677516
Ni 7.123485885070565 0.6406740953039328 9.219038714906324 -1.9917734552342081 -1.1973797114917055 0.9399006991697878
Ni 2.7967746229539006 1.5811015306013725 9.227662276847033 -1.6639917407319857 0.5333594099691589 1.0430484729045713
Ni 6.099578842200933 2.150634876993535 2.5030643230972514 1.3191628409394895 -0.5103089559075986 0.6325638827854783
Ni 4.505556517084853 6.920317529942739 10.089764783256582 -1.3190430275321734 -0.09542289428670017 0.6062836089327107
Ni 8.348233539650876 7.385529781706297 0.5285186892369941 -0.655301176481994 -1.483192023540678 -1.2067356987853088
Ni 7.7596690722739945 3.871346456137363 8.174481132682468 0.6647152707070424 0.024067068251532743 0.4132271858612367
Ni 3.266542341326796 8.438406318822135 12.399301791636947 0.08966568008794881 -0.6765117491213382 0.5815238854895275
Ni -0.21036162785167184 5.245906222205592 10.307885252740483 0.3183444803487227 -1.4043103214421104 -1.3328426524194272
Ni 8.827139469485616 2.0826302167715065 5.944540219321703 0.0498133239777013 1.6798073676080036 -1.0466914689737974
Ni 3.63436217222685 2.7254965735515095 11.793753890062618 -0.34142964430296036 -0.12209011916524135 -1.2094644105703816
Ni 1.2246203561121851 3.388076007395473 12.698482288523891 0.35780062946181607 0.13435762367868473 -0.06479077122314003
Ni 2.9685275346979703 8.2958684055128 8.271404367763454 0.728193750876662 0.3340618910839795 -0.6241422343806865
Ni 5.688695758083668 7.674788272277654 3.5094669173248954 -0.4148927464891177 0.7937226858174071 1.8974733616980417
Ni 2.8991498695697344 8.295804756278738 3.5232278817292295 1.185414311599713 -0.22362863943137617 0.40271111682126126
Ni 3.3599339531920798 4.403981432268663 9.130366239109396 0.09727177456998087 -0.7918658351143265 1.1324467582637465
Ni 7.210330718575124 6.281188292476983 11.659368534361931 0.5016019150519039 -0.49249841008873896 -0.19497883690516743
Ni 0.32071848841895584 0.28044125310414125 0.6246463088921972 1.0831355707334442 -0.23694155449019838 0.6884187849715693
Ni 4.617197273630657 0.24771008912483436 1.7380987313401866 0.08517473419613072 -0.2343804786312415 0.12376185044070943
Ni 6.037166221828691 5.70421707844722 0.49290057785556207 0.019886711621598007 -1.0289986796797246 -1.0349584968075853
Ni 8.014920686360474 8.85874586057156 11.607945408887982 -0.07081075216497483 -0.5043221421965444 0.060563877625986015
Ni 9.157851796927172 4.738258116817725 5.655792741172392 0.6190463079150177 -0.049359781380050476 0.40488704142665755
Ni 7.688009127467228 8.73551185067864 2.567222751032354 0.3778053547185171 0.11940305925138146 0.5525583514951129
P 8.312262629657782 1.4668420627112786 3.4523217257087184 1.3780609008272782 1.0381075839595284 -0.06618970845319568
P 1.9207520290548632 3.3396571257692793 1.5470328234319786 -0.047210339137215465 -0.9242370244906019 -0.48869086341719065
P 4.487361928890672 1.0713166294985468 8.10438695903364 0.8720282036975305 0.023144813547579492 0.006112026435008829
P 8.545273382813244 1.6093890687683374 12.612884070732184 -0.8102890748165206 1.8998205217739799 -0.8994526184570704
P 6.2315600754036 7.689918604489106 1.252850609968494 -0.0830008664732635 1.3743343439053106 -0.23243081110403843
P 1.7105640726847051 3.165503728626277 5.790259022327817 0.06730299612203247 -0.26359695229419766 0.7025074018541514
P 7.219250704091611 3.7691621572237173 5.97908811429611 -1.7951627391525729 0.03219175424119617 0.29718353000039144
P 2.3878464795971293 8.596383717765514 10.407123501391805 1.030443382546051 -0.04803489192103986 -1.23195513547373
