# total energy = -340868.6933252188 ev
CRYSTAL
PRIMVEC
9.23644447148079 0.00000000000000 0.00000000000000

0.00000000000000 9.23644447148079 0.00000000000000

0.00000000000000 0.00000000000000 13.51847011812582

PRIMCOORD
 96 1
Ni 6.2287716431779225 1.6742255862255824 8.933842592461428 -0.16802904778920094 1.0625652027812604 -0.9370375186893798
Ni 6.030160383402851 6.919168138290569 -0.4003453613364022 -0.40540537582397274 0.5372471750593392 3.2378190073627335
Ni 8.292027022942369 8.492300842674634 9.932343775196589 -1.0400091718576154 -0.8103919189429721 -0.2532639457993058
Ni 1.5954387171430657 3.1212715907450006 12.890279933880462 1.2054910277449304 0.8150263323911899 0.8131183167351995
Ni 2.826749094328329 5.677669963145397 1.9614355897638684 2.3475526833906213 1.6724786951570745 -2.6292244909086593
Ni 2.2583660271852075 3.3698243043452965 7.28544118059315 -0.26961153391939374 -1.321307398086318 0.595737200875432
Ni -0.222482849827095 7.101818822476591 7.44084989623615 0.736889478878447 1.6801593516307838 -0.5954119563255295
Ni 3.226742547140459 7.795752875720375 5.643122890879355 2.473152101260702 -0.20019766210194553 -1.890248047594196
Ni 5.622214352128817 1.6666886477529759 1.508390772362143 -0.0957234562462545 -0.3192695632661534 -0.49503377491608297
Ni 4.520943872928636 2.3860506318976 12.719162797575255 0.2605396535251126 -0.29241207675367703 -0.10452742769112966
Ni 1.5607466327029798 7.1508458683253595 13.08371601396656 -0.7252902040766218 -0.20634645531216078 0.6251321090977814
Ni 9.064858782599151 3.1182328006010205 7.634718241911119 -1.2756397208458738 -0.29698966882203043 0.05553505695282694
Ni 7.288995364323859 8.94121974044926 7.959890954783058 0.5855093524998368 2.24220584512199 -1.9354043324158605
Ni 7.799308906739926 2.844141318769405 0.2655653201844796 -0.15221290669255078 -1.7722912338710382 0.3620221237423314
Ni 4.723674586819862 2.110278117220379 3.733071487525787 1.2601326263492103 -0.5719727514659827 0.5548625741482573
Ni 4.189023013919337 1.3389518979692785 10.573187670785108 -1.279476835203777 1.0906362499858637 -0.9244691951060661
Ni 7.632434069258821 5.25840005127404 6.953644089936219 0.11922565313325273 -0.3632765649747227 -0.12491473309823004
Ni 3.000468136966544 3.7392635997219084 11.103408521399716 0.4999139858265197 -1.190002188080712 -0.5999301559108572
Ni 6.245157095200477 4.864752035631862 9.085317506516827 0.8966298042962945 0.1043685335157622 0.705631806415746
Ni 6.658774303217379 1.5873198826854418 6.4499724745491385 1.7581936181273912 0.3793989244578821 -0.3168864077459575
Ni 4.394293749967385 3.009713817617376 6.410944803198462 1.2582876027206715 -0.7590886406833056 0.13166439311723777
Ni 1.4844720764446653 4.903268007973491 3.3452396608005213 -1.1250869754645656 -0.875712337417337 2.7806167014721273
Ni 9.34090839060257 1.4431666979526354 1.814611225366506 0.007059477949942682 0.008570001057198144 0.14080929284129942
Ni 5.422042133282826 6.041539682665414 6.1727627691533655 -0.9918287554976466 0.9074770314234435 0.11741199696328165
P 4.45187374315149 5.974704772386271 8.38577693163962 0.6120364522560879 0.6007919896905202 -0.8682008595316403
P 5.161269603997165 3.499633291225213 10.786698238709887 0.8333958360373132 -0.05503986248396328 1.0032794205367495
P 2.325653523230475 2.48513920534628 2.662800362371883 -1.185448250161442 -0.8454388832447763 0.5849246836409604
P 3.102050550351013 5.1049365307809556 13.314516281801723 -0.9534288155632097 -1.3452397405321992 -0.35866734833748554
P 1.0138937170055025 1.177110922580784 13.123635925827598 -0.6763538833872351 -2.9489938766293666 1.2843092235954139
P 3.7270530204807493 8.315339808119894 1.6636369265871067 -0.08468185372011222 -0.12118354819057195 -0.4424817118509799
P 0.37784353596022074 5.181996184796833 8.186690918632328 0.4911077003887995 -0.9286747485469812 0.20226560037456778
P 5.459902318085785 5.709600350767703 1.827196804242454 -0.3332856750395873 -0.34850891974724496 -0.9518920672037091
Ni 1.0225390287829041 0.48267348312773906 3.9774179244343855 -1.048364485800846 2.1531034937366784 0.8497375106201301
Ni 4.617797226879312 8.343353943398588 7.399077153667265 0.8276944147771618 -1.61359760455015 0.09052031477876023
Ni 0.8701478594622085 4.732707829253942 5.950492357543023 -1.5138028064479994 -0.753733032798347 -1.4027825719436744
Ni 8.77597051714852 1.319767803352117 11.591290435415571 -0.7410418104839238 1.3416311972453348 0.13454479998882635
Ni 1.6356911409955401 7.580580671482824 3.656353581945554 1.1057036858419473 -1.5626622511528636 -0.8637644210268415
Ni 8.207254938013959 -0.019635756738865435 5.551197179912914 1.0688438367011206 0.3622689496458148 -0.8905699712554598
Ni 3.905732033657922 5.978464005178368 10.709047452264787 -0.15424356396933436 0.16533915966186366 0.1348088522834904
Ni 0.8450930809073157 8.611247771167559 1.325411270762365 1.4530334976794266 -0.833847578862751 -0.549653262033176
Ni 0.3643472436854994 0.7456027221356477 7.563786968626338 -0.0016678746207261597 -1.0359841098586222 -0.6302825429504694
Ni 8.484283609103283 5.4709213960242895 10.569334226262104 -2.52083912292402 1.0856483098529688 0.30858662963101047
Ni 5.317411693310171 7.928027993203461 11.125794891223315 -0.7335611858361624 -1.9252232781178005 0.12143885873448765
Ni 7.346076589520806 2.987472459967822 10.483248718967513 0.29102676637037617 0.9232474068838228 0.6902460679882951
Ni 7.933532913950609 5.101796139750703 13.25794213739172 -0.5492575692566541 2.2254281114430188 0.23651732246858623
Ni 2.6306409109332534 5.861216582419462 6.775822218781422 1.1592574506986875 -0.06606243884671203 0.8414734708391249
Ni 2.4416632624656933 0.7267021863556297 6.231041037519491 0.3705419882878844 0.33307381613909737 -0.638361720414178
Ni 8.527916571535382 8.375164257246208 3.1172241808936576 -0.10556615336828917 0.29821531369901544 -0.15868385912887512
Ni 6.044227487929542 5.470339500039271 11.56496934035995 0.736955299119376 -2.224186011505802 -1.915534590075127
Ni 8.152704498529628 7.557027738755928 0.3443401818895276 0.8037160495846933 -0.25399285354553036 0.4340052989488525
Ni 4.34832396715101 7.010655118157195 3.443843320928353 -0.7165847058828239 -0.5479913009497208 -0.5662523040424376
Ni 8.412987496272338 2.3448376178476362 4.4219458166331815 -1.5416319128451257 0.21380548269336727 -1.454861809137417
Ni 2.823146881087745 2.8570815771028877 4.793189913207768 -2.2144734122037284 0.5717552361385378 -0.4494599429410259
Ni 1.3843582576890503 5.341084699811753 11.463026705651423 0.48137761758522907 0.7398117947315646 1.0453269845261028
Ni 2.1515834957124085 7.96413325360716 7.995566720531149 0.6687161643363193 1.0937048616088583 -0.8691897058074708
Ni 4.666824272728081 -0.19539143532464132 12.981462111088272 2.7784793434141504 2.51190196833539 2.4953749172146447
P 8.094939776461391 4.651057662467371 4.163702225771294 -0.16808561205874922 -0.8966683708437138 0.0435935683202346
P 2.333384427031421 2.176808224840703 9.324066658236209 0.5073239051373457 0.41512851664900763 0.2241634288889236
P 3.293161817430304 5.305459734506798 4.862660904663482 -0.23614245562767072 0.365534507770964 -0.31217203298942364
P 2.824052052619994 7.7981912969909235 10.415683205951625 -0.8554733846626429 0.4649732080852766 0.03529147621244245
P 7.113253540404393 0.6619593306892874 3.0472655051838333 -0.7654752609359398 1.8316050411400069 0.14404091240471967
P 7.52510658757783 7.359072266519528 11.644147834676827 0.15450710204336615 -0.766417570244551 0.012321240569514263
P 8.932038714907874 3.7032137579834488 12.177302179971457 0.36464979117316554 0.2303423040061259 -2.1079122419120213
P 7.167480704341493 7.567612703816721 6.337756142949581 -1.5528290671125258 -2.101830554494316 -0.5683696074957566
Ni 0.8896884808257456 5.133320123827916 0.5953340876936346 -0.06349776344332936 0.5436970444497411 0.7377330578256649
Ni 0.4488736391980132 3.660162691536367 10.028595836629414 1.888034070662013 -1.7544603763372042 -0.8724182400470974
Ni 5.835844070183861 4.163493482132224 13.746526021167279 -1.047226772651977 0.5295953149410362 0.7092380357097657
Ni 6.332653931169841 0.7299866659155058 11.05539101890273 2.0938873883878393 0.6957238032734147 1.2875729819483501
Ni 2.6259026150552547 5.06101723857845 8.967611956125271 -2.812850878915485 0.5206471046088129 0.8849212576101146
Ni 6.755535292725989 3.3872072923421657 2.5661031043282985 -0.03940112750544182 1.005737909379571 0.8875502105925296
Ni 1.2046170534281153 0.1285278920684577 9.71579164619457 1.810823071397649 0.6162443196898484 0.9805819789392337
Ni 4.508280707921353 4.449924853423892 3.353161758996544 0.531406400007846 0.10115208346099352 0.46771914626152994
Ni 3.2059236018987245 0.2596327520705639 3.527617869882447 1.3193448750433086 -0.103558378909641 -0.5296611351819652
Ni 6.266456335540955 3.872360760739384 5.359654570889173 1.0963937212949313 0.013237067515564301 -1.356123734434555
Ni 6.35083125336848 7.3492539263278855 9.047371422782746 -0.11686178088676648 -4.536386540649374 0.0856259628009364
Ni 6.086003925076111 8.246786919218318 4.273675025073062 0.5811623883850507 1.6560148931740961 1.5689745665241366
Ni 3.7368713606723927 3.272897058840967 1.3656489163041092 0.13890539095036722 0.8982891942765885 -0.7542871055296042
Ni 9.122872888660966 3.63683143347043 2.241699787258772 -0.2110088937848366 0.9256524167808896 0.24700793758726491
Ni 0.8765117695205735 6.825187318488153 9.539740401394178 0.4864874280079686 0.12660960430214968 1.355976153113097
Ni 3.909565158003672 1.1984471086980895 8.056615922159262 -0.4216601471199383 0.29896967536653674 0.3889965954486462
Ni 6.043525518169839 8.45177132549596 1.6674358760892918 -0.2545656953298648 -0.2051226102073887 -0.18328700238953594
Ni 2.8676203599426477 0.9615415512423484 0.6826877587777965 0.19487727833029664 0.45145691876639665 1.9725382611536801
Ni 7.033395243793908 6.540584763149397 2.9340617976985883 0.9935459952990696 -1.5432846179572004 0.2004113207746484
Ni 3.717077660737594 7.124715967664816 12.961765393817641 -0.09581755862195757 -1.7026927568466097 0.2742040383860826
Ni 8.863762919332498 6.622659806369473 4.871123334845592 -0.3832769193560496 0.01031140922833708 0.12803476678445044
Ni 2.7677466887364046 0.1640734239532358 12.018527704059562 -2.755102102140791 -0.8259558348195001 -1.4103117904411842
Ni 0.20658046383654763 8.391725201708688 11.836231699331076 1.3002225523915607 -0.3907984245440754 1.3299697017470062
Ni 4.2949188467483 3.623724919141228 8.789627523552436 0.38823991978827976 -1.7646290893400902 -0.3809858093290277
P 5.299068115115813 9.021041091282918 9.374613099156967 -1.8028395389715401 2.1118393448805692 -1.291509855108911
P 4.971525330660454 0.6776160272639384 5.903637723371652 -3.1118156691860146 -0.3325500824251434 -1.4158936554043358
P 0.17535389326278766 6.523146356487288 2.3967298086893005 0.016956168238364343 -0.5834735530167307 -1.6277738960505321
P 0.6817003828921082 1.9786033686107234 5.759584292236277 1.1286525813286368 0.586219491192984 1.1382155424267237
P 8.626099973451812 1.3378158153318636 9.382344926602334 -1.0854009697288531 1.5322651269182448 -0.29786872899287414
P 1.2346909157648882 7.8966148464567265 5.756948211059707 -1.8203017003120459 0.8322375540631537 1.4250161865308941
P 6.633346372316539 3.3531802318849575 7.550633348431681 -0.3003889243115666 1.6951298568976871 -0.4676841792585365
P 6.494134685234277 1.0396079776767484 13.174100162394916 0.41668609094411463 0.318972857961341 0.28583056688141745
