# total energy = -381171.4140444134 ev
CRYSTAL
PRIMVEC
9.23649733856569 0.00000000000000 0.00000000000000

0.00000000000000 9.23649733856569 0.00000000000000

0.00000000000000 0.00000000000000 13.51854749444711

PRIMCOORD
 96 1
Ni 5.074882507006675 8.124930877916993 8.263738804001097 0.4264197732921108 -0.21571169857714464 -0.6523775750772959
Ni 4.3105438969727565 1.2765947405501743 1.1139187822470469 0.46489710343170254 -0.09128547507955892 -1.1412273326698539
Ni 5.7901568443160665 3.590872987032177 3.454029663886422 0.44275553433765685 -0.008342972648056599 -0.6723799863411517
Ni 4.083806365564299 7.33323376340076 0.18965207180449362 -0.14995470678599337 -1.4674689563784662 0.08112781782026673
Ni 2.663214634845563 4.715444221412732 5.979510577263444 0.25587310128737867 0.6373944714049022 0.7237159176109665
Ni 1.1078531745854885 1.3636302529528908 8.426975417679671 -0.644694090390109 1.2410159601244175 -0.5084724169194921
Ni 8.686158916186534 1.6918029957809209 10.556633635990524 0.4592669017291187 -2.0645202480796314 0.06755933510721268
Ni 0.2880586358169933 6.7313836107783445 11.966577532824315 -1.2950345804327181 0.3986698568723521 -0.1044207269099363
Ni 7.59157858796873 5.571224152977682 10.853000500970868 0.4621722483013718 -0.17478282157326674 0.8733644060104507
Ni 6.449753576959895 6.012747188515692 4.788607438784393 -0.9495477353412485 0.08309214063548916 -0.7244363407167588
Ni 1.9668104611612127 0.9449306018091412 1.0470640924113148 0.8744080167836167 0.1598989624828988 -0.6888748986723813
Ni 2.585184707139085 6.747344277809215 11.639130778670257 0.11372812035379122 -0.8486638179399771 -0.039456149113093336
Ni 5.389135848668316 3.4779106272014193 0.33785166816463275 -0.08596843374201969 -0.15525914971804228 -0.5775828985639085
Ni 3.7026992577166395 6.472262920451928 9.379059686511619 -0.037744565738625314 -0.7457698120872124 -0.1886428673848106
Ni 3.6830532283331543 6.411653026321967 4.453306891125505 0.1588687214461716 1.197502610222815 0.5897557864810166
Ni 4.258597837145432 4.107525690179621 7.925018905106776 -2.656029784026961 -0.7971535658758271 1.7449161842921947
Ni 1.4169248413603701 5.6982814074201915 4.240606064396918 -1.1883823930891018 0.2281553236571361 0.25644131508602286
Ni 3.3601360523688775 4.296522894337999 3.685967343175886 -0.33704694185423245 -2.105332654110303 -0.49314735652664743
Ni 0.27418172253737516 1.9484944873636338 1.6750692339407425 -3.2221913281278054 1.2565899033032744 -0.6974413001851537
Ni 4.8228646829688815 3.7289124365555346 5.645291623417816 0.4122990176200125 -0.0926443031002985 -0.6028846105534907
Ni 1.2110433204586875 5.465503206892412 0.15615406768362627 0.4811786142005455 0.5472058289339479 0.46437439815901316
Ni 0.9683358855222352 3.599370564386575 3.0977890535969275 1.0243393265308423 -0.16857335032844517 0.3561540949973286
Ni 7.75114831228894 6.804804526419774 2.777628972024268 -1.1168491609358056 0.6948012914591454 0.397621875223812
Ni 0.18898981496067796 3.68587035995608 10.004441662857733 1.5214107007022444 1.8369742758717205 0.6035263579025477
P 5.125286071814235 7.725323066329268 3.5291657970438433 0.0456656203579149 0.6416157085751014 -0.17918686417823332
Ni 8.23387536149866 4.0991020048022175 -0.1366188762656335 -0.12754651429412225 -1.0018380601045327 -1.1518714426472614
P 3.2563085881940985 0.11849409795852843 13.055118115572506 0.1679801968291365 -0.8585823626052698 -1.0871768306823535
Ni 3.9382945898673447 0.7873975251048501 9.063199194350343 0.8286560073594826 0.3614359122215582 0.9434727327917621
P 0.024663294621429944 9.393702305402845 4.400233054999298 -1.1403762975234681 -3.110944579434971 0.22556776543561796
P 1.4430918377136435 4.667885497719473 11.71993165551404 -1.2161832173514537 2.217926403749335 -1.661994250685983
P 6.392200963378093 4.06041031834833 11.85131805615873 -0.7018756818074234 -0.18411412627652163 -0.1687204174292707
Ni 8.365864905405571 1.9665795487331041 3.8464052982257844 -0.6660776982722078 0.4748490724380919 -0.5442333765691854
Ni 7.904289434610606 8.847049459595524 12.298647153789107 0.37394072955678825 -2.5079854068898033 0.0670055194862717
Ni 2.1324855100806155 3.4550410603215376 1.0273118433108999 1.1375817654974667 -0.08898588041210483 0.4600325762505496
Ni 7.159135029103953 6.947582298967921 6.7666679534430605 -0.43120562471652835 0.20590114024462602 0.9445741933860572
Ni 0.9437852761657223 5.954945189511531 9.22574584169373 0.7499913063677277 1.075035310223813 1.2054874282005044
Ni 7.312054475494634 3.241299280367036 9.242089823355261 -0.8353419040200903 -0.14256509919014157 0.6393361685123055
Ni 8.080900496125233 9.148131556357846 1.8899600341375127 1.141959325739872 -0.7462295253324503 0.2626327886087154
Ni 1.681402700018907 1.0700574283526627 3.5798603115108185 0.5971939879266166 0.8405586723343393 -0.28718759512994413
Ni 8.267542393516903 4.635271426373405 4.148814679624874 0.06178926539265488 0.6329994276610003 -0.5785887141206035
Ni 5.580765454507131 2.100989054886594 7.6422509348426075 -1.3894943394752004 0.42415771673081143 -1.7588883302015708
Ni 5.974794421831752 1.2168623136470256 2.637833664397572 1.0460700333397146 0.020122481781487924 0.1563726944971952
Ni 4.9579392169153245 5.991761867049176 11.473542552823824 0.058758963206763326 -0.5230431156448153 0.3189294063179152
Ni 1.309883076186319 4.027676172539645 7.92608664417435 1.231261708951131 -1.9743912552020189 0.24745145288258671
Ni 6.705373634876184 6.135648019252245 13.151504657663912 -0.05858747062590555 1.072108366385005 -0.6508431407106403
Ni 1.572079520055142 9.078719280468382 11.39475615600286 -0.42807119285260464 -0.06005582764131592 0.037249114159445526
Ni 8.732544604745001 7.137189111936506 5.065751305949546 0.09618085549864726 0.15809790471841806 -0.8495583047297884
Ni 3.363507373819264 3.9114902752124916 12.342663680835178 1.1782411908900416 0.24333897337610993 2.14770006333292
Ni 5.045658230105244 2.730705719333163 10.193389913581353 0.6257869690729609 1.34738815433377 -0.6500682102178289
Ni 7.099550386154794 1.4130916950537662 0.3734906923189235 -0.813564917354315 1.3323050347484022 1.942145764904752
Ni 2.9563718170751963 2.4106795669688066 5.483514376284887 -0.6635215075092573 0.025251061257304898 -0.3033649762207549
Ni 1.0893524708454225 2.730502516396428 12.316193727376227 0.3663716589602787 -0.6516556093096068 0.8109843011113322
Ni 6.760986584061874 4.989177050189864 1.5618787326310137 -0.6584893444019885 0.6172406221648467 0.5775430464649086
Ni 0.7134806095678425 5.939631077279365 6.782552881197511 -0.19655183781924215 1.0380682460811606 -0.6580818245509247
Ni 1.731870920306336 7.977470201326802 5.190541000348029 0.7016879912766496 0.5056778848934903 0.490557227201968
Ni 5.50861917546886 9.026699328664064 13.113572211273645 -0.08425787880881619 0.4263974046946076 -2.7965048334572935
P -0.2973967344097076 1.3246337620939004 12.92612396768302 0.6416239361052175 -0.09253246011278257 0.2467675394416847
Ni 5.795846526544663 1.5689575840271128 4.948829259801581 -0.6271779358832167 -0.8101078120436499 0.5391387356550973
P 7.526396627762217 3.1410555770765036 1.9458463836380837 0.14199020052327804 -1.8846510131223928 0.3500076157799585
Ni 3.2731467224517825 0.43932936747097767 6.625980400194153 0.15151510929457776 -0.94983852710879 0.7781795958764857
P 8.415797408859788 7.029177514564398 0.632221602466692 0.9525767519755595 0.5349221264705885 0.08627542345947722
P 6.172113709899166 8.419353460252662 10.738728405847878 2.534081846866539 0.5046250181489439 0.20799119000443536
P 8.59271327477952 4.130700061464606 7.041986688776443 -0.5540310793858974 -0.6678695000653079 -0.4637565620693561
Ni 0.688656599896449 3.4279596507529537 5.343530644116854 -0.2193222987465384 0.007883259402818681 1.4589778881883195
Ni 7.904723549975449 5.547116895483137 8.61243689073885 1.7086528310847866 0.5271501958346534 -1.0231095678887994
Ni 4.742719597420928 5.8939935449879695 6.603147779302768 -0.6147929319553025 2.3313146242652043 0.7170914703159134
Ni 2.280962201354485 2.06952954568107 10.412688370205858 0.4962691899850808 -0.09369588429326443 -0.43533327373165664
Ni 7.1111237170516 3.133047534069695 5.4518812209334255 1.6396847885555053 1.5946894547917374 1.6293502393987165
Ni 2.91370843685784 8.547094215482373 2.405692782171372 1.3670848614317488 -0.941151026637121 0.41117415998694995
Ni 6.483605338920626 0.802816933404234 9.1205181245549 0.5073719847664616 0.042510876779017104 1.6071536486970193
Ni 1.7679763875654064 8.007932168842895 0.3314683250019969 -1.4800239102253414 -1.576115291333976 -0.31197045850157884
Ni 7.0603506923590675 8.664416201955822 4.238591584374097 0.04984392010532061 0.11324243896662432 -1.529251794013218
Ni 2.2895429071830025 8.41321118966497 8.810929213941055 -0.9188953005627142 0.6423168484071842 1.4684562599924
Ni 4.205709654611424 8.329094410353548 10.902154367717502 -2.329926742778742 0.6025228563386977 0.39234262910274365
Ni 6.36439910703381 4.381960492738203 7.309248427668257 1.854223806980787 0.24718868613950334 -1.2620810083248328
Ni 4.19360984337853 1.688764188227011 11.965469153169392 -0.23373718862028778 -0.6516332407121035 0.9094148718761047
Ni 7.946232368052262 1.8672779681492553 7.449814059155123 1.5590634780580117 0.5173069844919865 -0.023207805575031
Ni 0.7600380969728232 7.5631117038314954 2.8040712159918475 -0.25626159497504897 0.6051528377623772 -0.0063876486938986765
Ni 9.340222987052881 8.436293195978713 7.24462989378633 -0.4223414894576791 -0.4825983773662076 0.6636963425242247
Ni 6.946612466769865 0.16013130334536985 6.311201501846137 1.136734072785191 0.17868986993715677 2.7509932221787397
Ni 6.663892526290744 1.4075220872877854 11.687744310335118 -1.2810292672925616 1.7615671625853146 -1.970680124899019
Ni 7.48438903884069 7.9977720220061155 8.99614684347615 1.1720003521866527 -0.9130511830771114 0.29826030800433795
Ni 2.9789458160470987 4.321110449683009 10.241394760085717 -0.06570094174223524 0.9250500073102004 -2.6144254782226137
Ni 5.836246964966555 5.246459677588535 9.34707462061972 -1.8777355169494823 0.16826841749351668 0.7115710547183164
Ni 5.992824064218476 8.131442608389658 1.4894331910859147 0.1145840405961833 -0.9723467355136352 2.1795174649538334
Ni 2.5636082498566113 6.017624058997346 2.183069186582099 -1.6480290467551424 0.6737820088950008 0.030132557719322297
Ni 8.974956471773474 5.099830285739536 1.9302995116783837 1.8806580899129157 0.27866438815028133 -0.10658199622731321
Ni 4.87877320006255 5.706760511780342 2.4627955783432194 0.7209468395062615 1.1004732906809436 0.7578910208307786
P 9.476368954665748 9.054565840488218 9.463726961051654 -0.9580223484711629 -1.5234498426194603 0.9156734511913068
Ni 3.986804672764413 0.6211470424146005 4.195683436982946 -0.7680867304168578 -0.9075323101414112 -0.8426003853547166
P 3.5044655564339156 2.3355221898679996 2.6907320070784166 -0.5664739331349405 0.2946095986256281 1.1771572137972437
Ni 5.150575600940695 8.224407951946205 5.741259752189488 -1.1894396307090225 -0.6908541338859392 -0.5282454857813612
P 3.7934478419633435 5.200055516035818 0.7403717472956648 0.07671863300897755 -1.5268236441876994 -2.128548172994818
P 2.9729790389047714 2.299250465660691 8.012510700467434 0.4612818752766185 1.241231161459017 -0.9853670590327029
P 2.780924554198235 6.97424806616591 7.503199165234421 0.15057022888280522 -1.7221583217703889 -2.5866930453043513
Ni 0.8490141974213653 1.1232781247831471 6.104975459601716 0.28140595545116054 0.3573704839029329 -0.6869601981481718
