# total energy = -340870.3478019841 ev
CRYSTAL
PRIMVEC
9.28114843443267 0.00000000000000 0.00000000000000

0.00000000000000 9.28114843443267 0.00000000000000

0.00000000000000 0.00000000000000 13.58389888664877

PRIMCOORD
 96 1
Ni 3.9290814347814096 1.2889937565709513 0.39961377331852826 -0.7392440951535527 -0.22694459117848656 0.31224685209141706
Ni 7.198282487525867 3.397420120211517 11.748972560109182 1.3475493625019823 -1.0553817976589437 1.5240774489011302
Ni 8.580050605182647 6.526095302487733 2.244807273158334 0.004522570460701889 -1.4343945424220008 0.46100008237014156
Ni 3.7217312946234955 7.895732958966125 9.577531838266113 1.3789942112748252 -2.201762906615595 -0.06938121880729987
Ni 3.946084498958004 6.069425668347362 2.5256139917726217 -0.059347745830697796 0.7476186923704932 0.9214198667567809
Ni 1.5253010802610572 2.460998635442135 3.73532817727563 2.5106544690815342 -0.04511771827424488 0.9267703324354168
Ni 2.0812047548905923 0.12261882242112268 5.621655727568857 0.2900340634398037 1.6018502342062348 -1.3436811377958278
Ni 5.170546429535581 -0.036712511275620884 7.019806000563032 0.7009714248255993 1.0085982616465017 0.7536795538525923
Ni 0.14166002682325227 8.731871633458157 12.64181533989233 -0.3661536294122017 1.286600847843068 -0.3329033519995041
Ni 7.608351474706259 2.298207289559237 0.5240544852035514 0.5690445220755941 0.11269402266232204 0.07921954505396034
Ni 6.821857663904512 5.635309225227257 12.410141165567374 -0.1704613113797774 0.7121791206159606 0.4021200202044817
Ni 1.7519374471432967 3.151627462684905 11.782864530334985 0.0036555944747162852 1.181384878725346 1.4006189886334524
Ni 7.26608127781518 8.796199274183035 3.8006256980258657 -2.167221935415932 -1.2968466939407923 -1.4385471311377935
Ni 1.110183148259668 2.9531501005580085 7.6137076255448575 0.9368174322587737 2.1403791041914753 0.10074327805834907
Ni 9.0451103976285 8.781470091405604 5.146029347478326 0.9655829344272402 0.017631339928518022 1.6256005425482971
Ni 8.19048367518899 3.1362207560620083 6.776762419242265 -1.3888405079412853 -0.18690505875809746 -0.4784995247064856
Ni 9.2058413285293 0.9907718907836497 3.235521620820862 -0.969161395807118 0.09574556773344156 -0.03469163784491444
Ni 4.006439808095774 2.1152851324323256 11.597674988612908 -1.6766418253958286 0.7904501857137226 -1.0509271043216997
Ni 4.266460466377146 8.984727245045026 11.809637859609124 0.8522109118612871 -0.03832794904592109 1.185049729171443
Ni 9.273333840915868 4.454719283930664 12.738124890467715 -0.48664477952143925 0.2333445811675594 0.28933009539424365
Ni 3.8088719985285424 7.040614335652511 7.269736194121263 0.9214460920090258 0.3327100050417754 1.324242569455242
Ni 3.4039818922491003 1.9059952322236968 6.6839035997044665 -1.254419378014517 -0.6301362471805922 0.655409162814768
Ni 7.904466519768622 3.388036879009259 2.873700684471271 -0.8647416973384461 0.6081954812434428 -0.350984377870931
Ni 3.0560316324344003 3.763496463179541 2.228398202490092 -0.293897660160268 -0.8216613212092042 -0.854685855764341
P 2.5756672259999 7.916142204667179 -0.0015453112365736872 -0.034921494467533405 -0.2542008557912783 1.2047055557291575
P 2.169013701492536 3.4609031764167066 9.773887529830361 0.38893463186245925 0.3191554062857923 -1.2449970562593526
P 0.5187744397832104 1.8560904963735065 5.705807901635005 -0.31085279995736786 -1.1792048403548916 0.2534601209705119
P 3.31750943104095 6.466176207332659 5.323299285127319 0.8970180408736488 0.52277649224699 -1.960749496048868
P 0.3400241589376193 1.6767972683366867 13.152243242768328 -0.46700823623743437 0.581850672701327 0.5480350097034626
P 3.1999915278728057 0.8237279226268898 2.4366662482413823 0.7629730633393763 1.1767049567511734 1.2443748492943214
P 3.236271537625157 3.733286324590668 -0.12086746968633917 -0.48219985637620827 -1.0180763763402658 0.08400642491964243
P 6.109993568738135 1.9547212622057502 8.200328189475078 -0.3530626005561984 -0.6010724970454163 0.41669920357023715
Ni 2.5443990364742737 5.374648167694692 8.446794658387729 -0.6695682279239694 0.46438545390260666 -0.3133395709349636
Ni 7.616259013286204 0.6098781941267979 9.345709165564068 0.6367354976646646 1.7097285806474685 0.4878701672881082
Ni 0.03688606875384267 3.9302508595009793 4.871892990339867 -0.6727332559155124 0.6435921155751819 0.9241843168757955
Ni 6.865534749065567 5.847290658520608 9.565714151794465 -0.6546429740727048 -0.19002920620937597 1.2103846083918057
Ni 1.0919642536206642 0.7055501297955599 7.746245211440612 -0.4158803072133676 -0.5695996232481159 -0.8296093724116873
Ni 1.43242462654098 9.293306872634226 1.5931063673543688 0.049417116980547154 -0.17233873090814836 -1.3272623301181723
Ni 7.361268737528693 5.56108788012888 7.260240651021332 0.13759978476506624 0.3540887278278676 -0.9566542644790427
Ni 2.970496567231619 8.178381057456305 3.6996969198081824 0.12738144947116772 -0.4485405164505501 0.058801900629556786
Ni 6.630517505026416 8.261697928151332 10.866929324799772 0.6079468555677465 -0.3513978112592657 1.3210569726384087
Ni 0.7927845733011439 2.6363380941889822 1.5012786834224767 -0.13312632237474492 0.18853925192741078 -0.7667590127443698
Ni 5.2888439491834385 5.611373143070359 6.020193815768353 0.28277326811233233 0.014757875035464907 -0.6664001146086329
Ni 4.039536383889298 3.620650305569297 8.58593392525991 -0.5501268592354848 -2.43950895928496 -0.3152092771538507
Ni 7.050146075231857 8.050115584246404 8.5066042359897 -2.2447175558002503 -2.1605306394386856 -0.7776877438417317
Ni 8.012099999711836 0.5396709457840851 6.98736745820298 -0.9606502730123131 1.0270454126080957 -0.14580520339399408
Ni 6.063290829143908 9.059421928720372 13.738755217260305 0.7197672173758637 0.7586790639497127 -1.1261218444869832
Ni 6.736795937278699 7.839247888781215 5.814384346272728 0.1136350464193527 -0.6798253868756033 0.6916118379875702
Ni 8.137395505379972 8.77160423047781 1.5702171987559421 0.19445947406658767 0.43044252129825866 -0.7227556105802262
Ni 4.739084394905926 6.919216912382939 13.141838147108732 -0.15755617328233512 0.0495191897760502 -0.8699890617803147
Ni 6.168344149785215 6.876300881404459 1.5594454977279097 1.3716048607892897 -0.6435741178530529 -0.19703854764767356
Ni 0.599410914771796 1.8422615850071715 9.670214315981118 -0.08793044256439696 0.857257473146259 1.4233606532053422
Ni 4.776069771949447 4.854829598697581 0.9230761212434406 1.4077651127599302 0.16101430703426464 -0.5864753159575319
Ni 2.3022167457406173 7.963698809929663 11.530271575252591 -1.5687344254888724 -2.747738462686868 -1.2134827877011551
Ni 7.130001077511016 1.7177456958187474 4.644009237090088 -0.14272322203456064 1.0818721306399883 1.285086982301703
Ni 1.7231658865824653 5.595864343813214 10.489989397432891 -0.2658996322854453 -0.21046639101780526 1.883009877974544
P 5.229528128685286 7.50699205119502 3.4346208199018156 1.045231082378187 1.060725064248728 1.1244367434750764
P 7.0478814749812635 1.3202897895422814 2.5338185271067424 0.06560066871894508 -0.42873428035790034 -1.1086131461792585
P 8.66521442444271 7.718193868008658 7.340181967982174 1.2331697246071214 -0.4894740214401183 -1.466674999722261
P 7.07084303653852 4.643572094992534 1.0660782021496271 -0.4459601573178836 -0.21608553697679558 -0.6259589758744509
P 0.7587895823262364 9.04347691548053 10.245465472915527 -1.7323823134912424 -0.30890184687858413 1.249636354803577
P 5.980502983917257 1.3731459306370992 11.652404065488751 0.9314625957047634 -0.2181064240615663 1.3708646401891553
P 3.090204821461814 9.108667703022233 7.56642202982056 0.30612248436123407 -0.3982600230284431 0.3917008817536867
P 5.149533909177607 6.69579182290523 10.901405079270502 -0.749700000379554 -0.1826102880374855 0.2981952590943574
Ni 1.6067617212424823 7.296477039375414 6.2212086439137435 -0.8099455754341729 -0.6019389588107698 1.213509784284349
Ni 7.884298583930336 2.902827713022257 9.035819039797065 0.3957881644491829 1.5389646504256076 1.0375563394417484
Ni 8.151270822489147 1.2258541028627785 11.48100259807931 0.33782418633988914 -0.018506286334303613 0.8292902985093717
Ni 0.44299293361055087 6.788287749534019 0.1241195841445699 -0.20965597930136795 -0.967691753240127 -0.4529527865856328
Ni 1.3329307138919113 7.830068832847453 8.584073054972023 0.044770619347471285 -1.778967103229317 0.4833941337946256
Ni 2.554524769561973 5.759212558610192 12.966633265016123 -0.8149957362635705 -0.2041877570979451 0.06592951281327356
Ni 8.868675763350627 6.668050469835448 11.315007399710735 0.028135581893951548 0.26319688864230156 -0.5116790967822478
Ni 2.2144077991386735 5.187150404323751 3.944384192540345 0.20721240285688186 -0.14469474393863468 0.6554744688350647
Ni 5.3256065786613265 3.045803806712453 6.438496109843427 1.7325247526063776 0.3984474564489009 -0.030428234582870174
Ni 4.5727105256757765 0.4288558881117578 4.691417343975483 0.273617055534361 0.6115266024992049 -0.45889769131515806
Ni 1.8875257465733568 0.8715555374275596 11.862030871390399 0.22017693343734981 0.8572965539143107 1.0771621267588287
Ni 5.4077911492310555 2.7039791049526403 1.950295082453666 0.5642977514192281 -1.1102972187499005 0.7281199602159331
Ni 9.259356431172446 5.450233841632566 8.732938965543479 0.2921588230922904 0.04626340184291387 -0.30486650046694597
Ni 5.102060834252234 0.6360584580074409 9.885805187952569 1.0358329289927388 0.6154251662226627 -2.6299554555374125
Ni 5.388959698786564 2.9792950960740927 13.25016956942426 1.007125276645401 -0.28442365923156177 -0.5749968830042871
Ni 1.7643927485215662 6.791517589235687 1.9671385108748909 0.26721063778738496 -0.7485980255646268 0.17640184523392846
Ni 6.885220065178317 5.8567852735056825 4.07701737426635 0.013247094817893315 1.1489879504518794 -0.6413064048647987
Ni 4.303687153283435 8.296344455755714 1.4472967390063594 -1.9047562685127004 0.8752942760433119 0.6038400324882245
Ni 2.716768527679358 0.5518144005704696 9.731519086617396 0.2178961078229731 1.7734137775112557 -1.229014307677851
Ni 4.452185530371597 4.736708420872516 11.819377496916394 0.1635373305664345 0.4067863153318994 -0.4830418926615294
Ni 3.034517930053753 4.578362745153695 6.2892506002955395 0.2638543197206424 -1.8326057144903791 -0.47278113416546963
Ni 5.707757870949144 3.46573865482064 10.230564588889587 -0.9131301159441629 -0.3720982770314108 -1.866925827928488
Ni 5.018641870922959 4.2309043862130995 3.687662054460044 0.11668591743053452 0.08476901411727981 0.8305483392861891
Ni 9.376930021231999 6.415946631282589 4.726436045637442 -0.8704994257578298 -0.7954262987720753 -0.4181953284997894
P 0.5127092091940157 4.505134482952094 2.8809000714154767 0.4699583200046939 0.5165518514935169 -1.827582036023543
P 8.470820767685737 4.583031162883404 10.594381900296156 0.5120935586118471 0.6282986797512211 0.14313614120226317
P 0.9041295845567047 5.058857087668147 6.72360928139327 -0.47525993472326544 0.09828093256078557 -0.44084314780629236
P 3.8252996314939205 2.8507975941499923 4.777850824359648 -1.2570709567047513 -0.5912570536168914 -0.607117931908548
P 6.843724049930744 4.109906052331952 5.236756287190051 1.0651635596360558 -0.4903201714904975 -0.07139773501669638
P 5.177999191835693 5.263209416838595 8.191349606350386 0.6296143132388511 1.7643992327174711 -0.5018752233179485
P 7.69137134864711 7.5773802819348095 13.32782865195223 -0.6127555898102995 -0.3142060327003169 -0.4203761382011922
P 0.5648423488153855 8.070719734067387 3.2708131882507208 -0.2145837556202885 0.20155417612983997 -0.15725509710214855
