# total energy = -340853.526290067 ev
CRYSTAL
PRIMVEC
9.46278499304811 0.00000000000000 0.00000000000000

0.00000000000000 9.46278499304811 0.00000000000000

0.00000000000000 0.00000000000000 13.84974235028775

PRIMCOORD
 96 1
Ni 7.000842719772567 1.0132750114327047 3.5926503933092286 -0.8330423093526363 -2.2615721654637437 0.3111086247219158
Ni 4.240065750585949 0.8160658418794429 0.4802893273279211 -1.9433415849850662 -3.388970562670305 0.6909860314781132
Ni 1.364845860328477 2.4189906399193615 1.296460206120204 0.32303648650775335 0.5163795875817107 -0.3532454059909659
Ni 4.310459407758605 7.271203948308651 8.757399616436082 0.21164009961093225 -0.21996378898527924 0.971522954060759
Ni 7.574429428943221 0.9994593454195209 6.201540201415287 -0.14811122581935138 1.8624757625769341 -0.3423285019681459
Ni 4.473484266714177 2.7515507538695942 8.571453053519047 2.4219490960243255 -0.547853746930592 -0.4578401965849212
Ni 0.9596872603144436 4.1158004587468175 3.5334152521384543 -0.44435630316587343 -0.7182212130449824 -0.9894790243185476
Ni 2.6126654592973324 5.623950734214788 2.5836970357588664 0.7490417979702648 0.013347624951499593 -1.011764318079309
Ni 1.8995121350387 8.401041544638892 8.063112246513398 0.6874476793075516 0.023130672480192422 -0.2243827439885813
Ni 3.8506437619280294 1.1479966806311304 6.642585467037812 -1.3005773646278183 -0.12282082668367879 -0.570445773298495
Ni 4.60146843303494 3.9904469466395236 2.9467405651165457 -0.9802019698919956 0.32326068670341745 -0.7474068334700031
Ni 7.773753530930692 5.055218433718631 3.8712934512252697 -0.6796142993060618 0.5135842842247607 -0.7200353834355857
Ni 4.09027932776219 3.527726225832204 5.411329526828872 -0.005454852466984154 1.0372809742931748 0.960757488014139
Ni 1.5657597101859593 8.574021253351908 10.498893652031247 0.9913890968570669 0.3791942646462438 -0.4768807581561399
Ni 1.3502637087351095 8.104373773968115 5.788596568230674 -0.5225160394967516 -0.22198570451131447 1.3310467368612688
Ni 8.595511237951868 7.720657844629338 2.2963567322039777 -0.6181847312456707 0.017701531044821125 -1.0195493613413666
Ni 7.931905055641887 5.479255289689036 11.393961446543752 -1.9332122098605478 -0.1912057430159804 1.4344567631185037
Ni 2.362242318630961 0.4211128554237788 4.563102517772027 0.07550121566210868 -0.8984192920965495 -0.2722392013502279
Ni 0.28890828701953597 5.749039288343747 1.7555103126490899 -2.8446037458470497 -3.0364622919556803 1.8202222532243622
Ni 3.7136037104191724 5.588957355504681 6.803754673866544 -1.381805455471375 -0.6962295392652397 -0.8958746712978248
Ni 3.680559665406817 7.871012034549532 3.7144865882541245 -1.1676330763568923 0.8374419810822287 0.3183272539575421
Ni 9.215702162954665 8.845130041898294 8.947515482397916 -0.9146630076489215 0.45475538701201035 0.10498431272289016
Ni 2.579100961113248 3.4547397655858414 7.786837723667972 -0.009806701677776659 -0.11201010922141999 0.40437307790471644
Ni 5.773055836522829 0.12626856341104392 7.71491582672742 0.20852880767546023 0.77959190284298 -1.496276881749094
P 8.323068196728865 7.1201684378727395 4.235071292694335 0.5678738988062607 0.9406576319404704 1.7216338167254865
P 7.870198235044645 5.191075637109921 0.5541643430801997 1.361166696175101 -1.2346632784335125 -0.19848762138937429
P 5.044771519144278 9.227625271979742 9.540311644997859 -1.8017879577785743 1.112312706518033 3.100548066691996
P 1.9575095439392516 0.9581921402938388 11.56824607330007 -0.027992628558184046 0.2043829038278867 -0.7069086162456406
P 0.02700489566330457 6.520511756190909 10.827133058377632 3.767645207367653 2.0987190054485274 -0.7066610190112088
P 4.993047936659303 2.183480848319276 13.132381023311737 0.16916187584206352 1.6179407120101943 -1.9380124594626686
P 6.40863324983894 7.628329451964519 7.723364201122332 -0.7266757715702388 -2.308010145211309 0.14328706495783064
P 5.689556222207531 2.2097306137443256 6.837839625222359 1.3201288043971846 1.363155958690988 -0.10918138152337327
Ni 7.763306616356339 3.39286261485967 7.114473733895525 -1.50883774913324 -0.6820033683635287 -0.5035047885015715
Ni 1.4956215482066988 0.18206303597743836 13.571071948041059 -0.5471212396399416 1.4985132272787804 0.40606203557136517
Ni 1.469229841007541 4.64058758597912 -0.06527712935530657 0.8656369554592058 0.8527179334046927 0.26166219716533
Ni 3.100746443745292 2.9228934007878986 10.463659918583652 -2.0202921314991915 2.0845100609379967 0.6788041446999405
Ni 7.775106709177189 6.656681231485236 9.08304905854424 0.24293788128294938 0.7681060136905674 0.8310643596906591
Ni 0.8173262848335224 4.309181931791633 11.197059817501057 -0.05488996716966031 -0.580017219037014 1.4718087214044009
Ni 9.431330643394682 8.693498376011128 12.125504747055825 -1.4801303538962185 0.5080836661215057 -0.4399733436068294
Ni 7.972576105316316 8.327411615016574 6.610191515350872 1.7855349862548215 -1.3566173862415216 -1.0786873051541035
Ni 5.4931371951968035 4.42139163561652 13.352979358402525 0.005203398577810393 -2.3827590560884255 -0.4008483525809096
Ni 6.2030069330810695 5.719581638823855 1.638480266175492 -1.3511278238818603 0.38920408347376195 1.7521813504950403
Ni 2.5229582580610415 2.692881487238265 12.798588854762247 0.56449752613486 -0.24081003630666914 0.45950524299216994
Ni 1.37318257386109 2.1002935059070147 5.988989018637932 0.06888679566938459 -1.0815461147591372 -0.2893812603471532
Ni 6.538528898717691 6.407999243247923 13.22909352423951 -1.1871019837147814 -1.1718589415127816 -1.3349681834028622
Ni 5.759419963423516 2.2474587373022463 1.4722134570992924 0.6203115477806865 0.47799790247971874 0.1666277965663001
Ni 3.9350612663825606 5.979514878355466 0.17918067168455076 -1.546097404815647 -0.565734998086387 0.026495475187367275
Ni 5.925378285710654 8.028945915207094 3.1454145737786026 1.0811864174268735 -0.23315869040899848 -0.36889416827181626
Ni 0.39021402375744324 0.41347449541977727 2.1798802586494013 1.1090934282497869 -1.2059736238083036 -2.5104552085865346
Ni 5.7785631773582224 5.329620271424324 9.95084605313661 0.8877988362682259 0.6054230607046283 3.0989683809097017
Ni 0.33810435964689395 5.47475100405734 5.0945306274755975 0.08528606296301441 2.051799458078854 1.2838464250263826
Ni 7.07892962110188 8.389534798151198 13.429471780469356 0.5905276316500346 3.341465832221123 -1.7193717601641874
Ni 4.890064448151438 9.379474581920539 11.77125593002188 0.9066689336998515 1.1870719018077944 0.0261126379266518
Ni 2.2396330141564227 6.398621623371851 11.250173483093798 0.1673091389040409 -0.8039579903921703 0.636574032386136
Ni 2.558983080329666 2.5012790177622715 3.56456390132722 -0.02991992748788395 0.27981572814590516 -0.7385884638474247
Ni 5.162062738482235 2.1367441534979634 10.725406227709872 2.1560000985581835 -0.4674029005726918 0.9452048849915206
P 6.3932183731708045 5.0644635746055355 5.652855757094152 -0.26384146420483595 -0.8865749911634537 -0.03381412033596757
P 4.0461448987995245 4.905564489884038 11.599463800818901 -0.33534898532651924 0.365190494167984 0.5661211777812121
P -0.05521535012803355 2.1916850828627217 3.11966822851239 -0.1854053342841194 0.7100623313832739 1.149525311012588
P 7.181562986566944 3.5689271914633016 11.169208002585576 -0.175741071721478 -1.0631735257892205 -1.638039282532282
P 8.593807936662571 0.9612580826145729 13.383546046317448 2.1287906280229274 -2.2296694032178763 1.6206833077523377
P 9.636427044195882 0.4840668710761835 7.10159393731296 0.43493038186628324 -0.3817692244622716 -0.8320015267929477
P 1.4636657234625052 6.957957378422054 0.8450049307845933 0.9454504253434233 0.1690955413805023 -2.5997097692789937
P 5.211884301194162 9.245377456528189 4.9251903058507125 -0.05440839954755145 -1.1882643794539987 0.22960182629567555
Ni 9.415414239124699 1.8715779938942347 10.477164258972293 -0.3920371820471829 -0.7507286987543845 1.0412566711114712
Ni 1.231950508623575 7.662821303072776 3.5614884962215454 -0.18262879998024675 -0.6032774751165352 -1.1334957683535511
Ni 8.399858696521324 2.596692278317706 1.2343843369102812 -1.268535505700925 0.09825984951486304 0.258081164682291
Ni 7.087957117935152 2.0140686095288416 12.585814350260295 -1.747067683417559 0.4060630640126297 -0.6908500201208813
Ni -0.09384243825530571 3.0539718977842174 12.956419591063957 -0.5800354738694592 -0.5209358394938254 -0.06914262043393253
Ni 3.231313950354822 8.202039177339397 13.032634753532031 -0.050132912100649143 -0.5584734314279672 -0.3115187156761409
Ni 4.947068264633233 6.11296853437186 4.471070310275846 -0.2276400745836144 -1.309548714888493 0.2421830053947958
Ni 4.155629320561538 7.759010511993335 6.552783637952116 0.629499899148174 2.339849401209093 -1.9114529638065854
Ni 8.087283984365506 5.757451704155884 6.859555770382398 0.25689305791146083 0.6572511011195131 0.3162099505042232
Ni 1.2783560059719685 5.273950707619145 9.228886661212316 1.5291407223566504 0.8456846807069952 -0.21647531621604651
Ni 6.502523002018948 3.006932393844808 3.686801318353595 0.09091343645212084 3.128001277806942 0.26553504985717497
Ni 8.254869905662416 4.28393522157028 9.160677014803936 -0.07345744575920252 -0.8316346303718323 1.1200267873328387
Ni 7.200725126071531 -0.08292522326940813 1.5086801914246397 -0.16228905998163018 1.7795594853976768 0.44071767797202166
Ni 3.011474530616266 1.0336673129795622 9.15229771873909 0.05553659961472371 -1.9061233240635562 0.41259495159387655
Ni 4.5502085270120505 7.14325763312765 11.36213431567475 0.8096871795664635 -1.1595757532700546 -0.5476976809687019
Ni 9.000083145299588 6.830446351348318 13.397950297553933 0.8618456067375738 -1.0883927053673255 0.604774628487352
Ni 0.6346822338607352 3.996588294065932 6.935175723677712 -1.8441638516416239 1.5610625107659115 0.5439644391785148
Ni 2.5876931698392553 8.490587878531192 1.4239059399778509 1.763193385334828 1.08113550958428 2.018495444610085
Ni 5.606529747139258 4.698982431847174 7.876099227733564 3.243636642485775 -0.8652422911239486 -3.643365536750261
Ni 7.481959094504292 0.23658381769083647 10.814723562206611 -0.8126128378536908 -1.0448706137149748 0.27958792840581526
Ni 8.931875391448198 0.06401195500875677 4.095286087274228 0.511663413052964 -1.0655229998580036 2.835019444592724
Ni 8.508482004853748 3.0572270958037624 4.976697190560548 1.393512459495658 -0.4096245561116429 -0.6606493281677848
Ni 7.359245699395408 1.6111621523306559 8.867921159427578 -0.1893172677440159 0.4411740487831499 -0.23369476541812656
Ni 4.62577832754718 1.688558270359308 4.231857730928528 0.43661471154724163 -1.0617226522753072 -0.9541494957793181
P 3.2359034010509826 3.494038711443892 1.140144461687473 0.22573745824426286 1.618760122587696 0.3679811695392437
P 0.9226697919055569 3.2133725101075634 9.271848651120846 0.2545487260490003 -0.43026048719443966 -1.4313835235098187
P 4.921755314917298 7.708157505722889 0.845687197578806 1.2439832702828577 0.9238698709591702 0.1312339904480385
P 3.520771078900909 0.692563250506518 2.5536290366103103 -0.5379529428771123 0.42806373665343694 1.1533873650711555
P 0.7563575614616425 6.511474796572696 7.733737305974149 -1.2777382552461156 1.5612820829758853 -2.7303680897292204
P 3.934682754984939 5.062533166477666 8.946324117773903 -3.0775554624515644 -0.632037577968363 0.13056293252294288
P 2.52592957253237 5.627063990460224 4.705048076994058 0.7336863985601171 0.3433561719017119 0.6051446102322611
P 6.761547814196268 7.504944199124856 11.068132211521723 -0.09364471934035484 0.11990802391225801 0.5686184902817691
