# total energy = -381165.82887780643 ev
CRYSTAL
PRIMVEC
9.31650268230940 0.00000000000000 0.00000000000000
0.00000000000000 9.31650268230940 0.00000000000000
0.00000000000000 0.00000000000000 13.63564340208079
PRIMCOORD
 96 1
Ni 8.981006311465553 3.884851277133635 12.047704663765234 -1.8820655117834038 0.31821643941129063 1.3732611654457898
Ni 6.9963769147739665 4.94707235496932 2.009907864002832 0.9347996304977966 -0.501862110691826 0.9245342440160466
Ni 5.273606465016797 3.857311694569215 4.338357210217546 0.6353350177727122 -0.20874040946563405 -0.23837391606135075
Ni 6.892712187035706 5.238250336521541 13.468852400572022 0.11977946875419371 0.8264525719502606 -1.4375114907844275
Ni 6.641436787392621 1.9053552735384598 3.988275639097144 -0.261134349686318 -1.2026342750224257 -0.8068278557407976
Ni 8.863217765334987 8.252688697469107 6.965059490284691 -1.6555695781065616 0.6628949296688519 -0.07914086929722498
Ni 2.174527675247258 9.158206196572204 10.05047842350621 0.29589232199279364 0.14923994010715588 -0.09946672533877063
Ni 5.169690191700309 5.838233123107677 5.834186965899379 -0.025926747168090836 0.9019928683804207 0.0703708364140788
Ni 7.632041907456761 3.4351902647954393 5.375852289363797 -0.9922470739819877 0.9478904022434836 -0.5866277823749961
Ni 7.998031407274303 6.547936364315317 11.603032638728543 -0.033313526550465204 -2.6380731995485407 -0.07729481722742172
Ni 3.365707786187374 6.126532305264632 12.809474113064725 0.08078894642360925 -0.6612324543647644 2.1934554151911643
Ni 2.6409956588121832 1.5906438056676577 8.374521537507393 0.5685778668518209 0.8040883453224474 -0.6038559733278245
Ni 1.4383096667939017 7.695328911638121 6.223035437225738 2.571485227215662 -0.5237475979110076 -0.6695301755971824
Ni 5.423760542212584 2.799422790580774 9.336693622379261 -0.9480061018857415 1.4918093328960438 2.340231981359492
Ni 4.073547726815554 1.406298162838778 3.189759107419831 2.796505604788242 0.29085270268635716 0.1860080008651248
Ni 3.1633533432580125 7.157990290533434 1.6066057700816023 -0.4241551456276501 0.19964333226037229 -0.825215871329682
Ni 6.780112933018936 8.759636886122802 7.530611277113274 -1.1995420092503473 -1.1469009860158634 0.18453835829813378
Ni 0.8642127835079154 5.713541048330211 7.309946179389558 0.05935571625049777 0.35995881345539943 0.21718571201950984
Ni 5.725959946692313 5.2440452013236625 9.209418081348375 -0.9737189332708133 -0.023938770203784578 -1.0640024494484193
Ni 6.698472418129894 0.9603637516595025 9.18731467822453 -0.14081752037141554 -0.19723318015698288 0.147258648011069
Ni 9.216452972686124 6.5135491521213815 2.87773451898461 -1.0732550783949388 0.04123201006659351 -0.8022749462627925
Ni 3.169017777019571 0.5350225384844194 1.3040560650929363 0.303119178758536 -1.5476562646623346 -0.11972830380128413
Ni 2.1990021283584658 1.295636741424646 4.193847070476943 -1.2436773090066646 -2.6630625225040268 -0.07318259483126106
Ni 2.4777984775601753 3.6907046732567954 13.504959439200798 -1.3544391476432802 0.14256998428614803 -1.831059453049182
P 5.425670425306531 0.383973145360201 12.741758975056278 -1.103042079849384 -1.540650779878779 1.0587985366499766
Ni 6.482003473311123 4.23285060985649 11.23622049170517 0.6162754300380998 -0.5354857122835424 0.2136483882902127
P 3.512545188351723 2.4208932778634655 10.291951930451043 -1.204036554686591 -0.18675644899537513 -0.3721705250302429
Ni 4.017574177408574 5.507096660628934 3.47166251033779 0.2869551674041639 1.4373677661177118 0.5328860698771661
P 0.8297473126896431 -0.2138659139092652 8.406715644919302 2.4143843963031903 1.7247217116221911 -1.6359350917050859
P 7.844588604555769 2.552106904669042 10.098108112918366 0.8314770217480455 2.167557721488796 -1.1667694428050164
P 5.832764335906961 3.129758033810348 2.160308828525398 0.5498718058018852 -1.1110744632355576 1.1043278885403434
Ni 1.7720454335809908 6.342395677395079 4.076375285444884 0.6367298412377099 0.24558791731128676 -0.17024868114833905
Ni 1.8986846574639928 0.7049257385219042 12.249362232277878 0.49714362217023406 0.6049309515595582 -0.38546004305029746
Ni 8.889210808418454 6.400008931311984 5.33212341971474 0.5523593481104293 0.305258593699042 -0.4845071643531462
Ni 3.8446692001375786 2.6171826774066838 1.2185557230535429 1.3391020030655776 -0.25093015545980657 0.19631709610061673
Ni 7.424731084986036 6.157574892918436 7.164413087630832 -0.4168601546281337 -0.3251293644810401 -1.1957524603009277
Ni 1.2686188830224754 6.865722278142227 13.809634238500339 -0.1014960970639736 -0.8376854645516024 -0.42782205295627607
Ni 4.131636122380221 2.232522905782952 5.416568201975869 -0.2057435316208392 -0.6877204733529639 0.9127315949541636
Ni 1.1026453839070718 -0.20395035987566856 0.7608508421138181 -1.9599095166460763 1.259240196441928 -1.5785946061124039
Ni 2.4734569872100334 4.900732069558149 1.7551937431403541 -2.5869133888452738 -0.16296243189957096 1.1776992023436428
Ni 1.0988442507249732 1.9569314335779135 6.02319086017691 0.058375868835731724 -1.563084683402263 2.7571587275595033
Ni 5.305291891370515 9.124964914234637 5.742542390199216 0.025461891716530342 0.027104055305643644 -0.5939410282069577
Ni 1.1757426656392893 5.6042118868303925 11.246965214496626 0.15356273585222588 0.7021759866566617 0.304682666590914
Ni 8.674362935103813 4.822343014180265 9.864174451768315 -0.16748654502216961 -0.8473147601112504 -0.38220014135210306
Ni 3.089976566438876 0.27547035766737327 6.346751142499567 -0.7000347719439428 -0.2538920663016079 -0.13892750243755428
Ni 5.916277467878362 8.9484078678279 3.2817316240219787 -0.30609343089551155 -0.6037888675353149 0.0643336290810634
Ni 0.33691828417680664 4.28475284749735 5.510817671886117 2.437358231490544 -0.6864179524914565 -1.8071713335776747
Ni 5.557321927748281 6.597108866607267 11.368540919054947 -0.9537941693224283 -0.47925440059463914 -0.08122320574755044
Ni 6.942425046495701 8.48678446576957 11.090509454741106 -0.7210545687287194 0.8919642804998252 1.3220491613483487
Ni 6.107545272359935 1.0728698406473 1.4260426274290263 -1.4289728571857971 0.8243334687247288 0.8799050353424459
Ni 9.258656730810895 4.856385515767 0.8561530768514611 -0.010020360350479518 -0.4593931428943378 0.4226235394744722
Ni 6.873715837628112 5.8106655910345655 4.103742512705704 0.10562091786562454 0.7165520528726756 0.4247904652188039
Ni 8.535779954506474 9.011219730361498 9.63281866696995 -1.1728809550193928 1.8439111122008698 -0.3819494587938777
Ni 2.009998234080936 4.478191397153995 8.924624699231673 -0.19096405931881952 -0.5068351384263852 1.00457577075067
Ni 2.8309871023968274 5.238371451059207 5.784472243138805 -0.28268225106042283 -0.21969048071923453 0.7117787998537484
Ni 8.376588869500305 0.07597794442806285 2.4976817580435933 0.4726404948225473 0.9733196409498657 0.5741610173665531
P 5.193968998250675 7.082032842411744 2.327331365867038 0.8548987431060954 -0.35884038358024006 1.7085821257478508
Ni 7.507275300656116 8.112698924934275 4.822095195203197 -1.1197115700852651 0.7027681117147058 0.19249515125136524
P 0.6415334578578042 2.048242478474353 13.288207272693947 -0.583660472216556 1.3415370948696315 0.6662939280480719
Ni 4.442462608542848 2.3651246915202258 12.276633499558855 -0.3971125396875613 0.05937859906863322 -0.011654296409476702
P 3.5618201721755436 7.420417544144586 5.970680254896855 0.9169898560098853 0.4492671102039295 -0.2917415330492137
P 8.650978512831589 7.64588623076215 -0.3732973646901846 -1.0737063069997443 0.2981700622833768 2.0649205688418433
P 6.279267053762973 4.248306688163112 6.792528104779878 0.09313949756916218 -0.31077823796569054 0.9413538866765465
Ni 3.375182669633928 6.44702000493176 8.078300532936863 0.32618325966685113 0.48760097278712156 0.06500340145457838
Ni 7.5889810310654395 1.4816220887634506 6.56076239385403 0.7788593955523296 -0.9791077083865526 -0.4878094892535018
Ni 1.5466605954895034 3.205529151874091 11.269027625007721 1.984032377836209 -1.3215441966874724 -0.9079287742488815
Ni 0.17990632919831615 7.183284595899604 9.055008225629098 3.7410810837258794 -2.9494864999950683 0.32645656793289585
Ni 5.504022214672826 2.12637998827401 7.33147661758522 0.26843345445089256 -0.9283914129786075 -1.9943149907091395
Ni 9.150687778734083 1.8214974309598602 4.359478653936015 -2.1775276882173142 1.1785330110988477 -2.908096367084056
Ni 7.423557205620977 6.784771184467586 9.274842291294375 -2.377581368542228 1.212566960755105 1.021091509017506
Ni 0.3186877513073696 8.972146317210221 4.546178577047042 1.0065305804841955 -1.2503521499236787 -0.3244678196376412
Ni 3.4647608449914697 8.156039296412516 3.7264036490586703 0.6311448909507646 0.9277339819002668 1.273842262625819
Ni 3.4813814861602532 4.728535146507349 11.009432588277349 0.9016339423791052 -1.3596240342783295 -0.9095218297676142
Ni 1.6240155190457872 2.3512896847177354 2.0685403433367013 -0.5516080717667017 0.38064873770458313 -0.45272241574238165
Ni 4.657934687551608 9.228070651799058 10.595835758654603 -0.18751749553111577 0.12479106303617216 1.8986067039715364
Ni 6.7990999659236335 1.5841222536395476 11.644935473809731 -2.8900685630480676 1.579774742463434 -1.0204806149063843
Ni 3.4368206528024663 8.45324505533929 13.076418938930782 -0.17871378119655673 0.5506325952273097 -1.193071571034655
Ni 8.647140113637903 4.049175755236217 7.53842502809324 -1.0051825510967334 -1.2364010870602253 1.0784569343108523
Ni 7.500763065130903 0.5304341608074989 13.481561042174228 2.5544565538681487 -3.184942728188992 0.18169009021606128
Ni 4.654059022346331 4.720392522975108 1.3133008309179273 1.1309740303729618 2.172894303210361 -1.0516770951138468
Ni 2.5708423919955123 3.458118178425695 4.168579782969175 -0.5850601807775602 1.9770235506185434 -0.9320940586411753
Ni 8.492262569473183 2.501192216335296 1.9368068556694555 0.21187818376366735 0.34991634161773283 1.169411508413554
Ni 7.462788999321508 2.783705850193028 -0.01856126872229125 -0.4918196388541594 1.5171426694545096 -0.3885021723107309
Ni 4.506196804863279 0.10715655302416781 8.362058851581674 0.014714166281723047 -0.5638244113272354 -1.4898290692412213
Ni 0.5902805804688865 2.034183875602327 9.32917986279259 -1.0995399802333967 0.13422829718967208 -0.42289556218893626
Ni 8.886387908040573 1.0885401985205592 11.410960820046933 2.5076156822552105 0.4649534105909347 1.1512438363655915
Ni 7.40998306089961 7.519628983497936 1.7443120677563075 -0.8782315042947648 -0.8538245362053102 -1.1798568721165938
Ni 4.144893506003079 4.153203826587471 7.4323939086190665 -0.1102815565660875 -0.651744055258355 0.7850902069533898
P 5.108601882202712 7.4739315367866785 9.184369731658693 0.12362866729695483 -0.4003863253428266 0.6455852347458108
Ni 0.3561298448013295 8.126785477314993 11.476412047851337 1.817104790641303 0.09791686435314749 0.011245233896516117
P 0.4369644821897549 4.346614426735424 3.1443253177405666 0.5995915416245158 -0.5862338893706872 -0.635696257766873
Ni 5.3360270344287075 7.516135294911448 0.29541233211904444 0.987922221354389 0.018390843802361875 -1.0148982357226004
P 2.0285753408581524 3.372816277898014 7.073735564931408 0.8375337694650866 2.190965301779459 0.5024704336997863
P 1.5749641312915017 8.450580535510662 2.5992260497224273 -0.32649821980410865 -0.5551564512395923 2.4744978166553193
P 4.900992931639274 4.5379660797430725 12.781533920875724 0.1561477229705827 0.21901762302192604 -0.46557433200438525
Ni 3.093721800603591 7.111873601191797 10.808920017970784 -0.03377761067107731 0.7670654882411951 -1.2580490043473043
