# total energy = -340868.9453076675 ev
CRYSTAL
PRIMVEC
9.31152627297525 0.00000000000000 0.00000000000000

0.00000000000000 9.31152627297525 0.00000000000000

0.00000000000000 0.00000000000000 13.62835992399960

PRIMCOORD
 96 1
Ni 7.008385213785638 6.870267348840407 4.612095660565503 1.1146272135838222 0.5983653825268984 0.21207795847929928
Ni 6.473912933734988 0.7215492174758591 7.110800825796667 0.7887062064394224 0.45217425654839544 -2.0767216752418296
Ni 1.0721570365663504 1.6024484414494407 12.135358910270174 1.0669540758775753 1.2869893415307383 1.3786334855012965
Ni 3.1037271530647326 6.000189049214756 1.8056892568331497 0.27458327610237226 -0.8730928975166189 0.3951777845586936
Ni 2.8568041069771155 8.561901586180458 11.883411364760697 -0.9361810842263553 -1.0149859103404004 0.5171043815628772
Ni 0.23501081089416767 8.447304635874993 5.719508927971342 0.15428393028896656 1.5044326780870092 -0.7150183898369686
Ni 2.7531016420748684 3.082217528037868 2.0729821971669873 1.1450914436109505 0.2817556254810954 0.875836521700027
Ni 9.27224996904817 5.391578399266316 8.463252486430626 -0.26214813566281303 -0.687712502933164 1.7339581426187944
Ni 4.209601225225143 4.039163053583701 9.744004465822437 -0.9583257386441947 -0.5326166182658634 0.14539665510166574
Ni 8.987531438984778 8.659924020231454 1.506887974869051 0.24013563594746384 0.42998589337681425 -1.7243650996137205
Ni 1.1613055863530177 7.033470464790994 0.5390684492771692 1.1551372578827268 0.5207885152826838 0.5450509873744742
Ni 7.956913119840438 8.873297638192755 3.499463282844704 -0.7776720601124478 0.43055410717545844 0.7430004768721913
Ni 2.0695518309938716 5.080815531021043 7.370516977435976 1.7280860001087337 -0.36121094069494564 1.192655823653475
Ni 4.111178395556761 7.7974904834400265 8.960892094292417 -0.8732664469800058 0.14657550590111532 -0.7106009774955633
Ni 2.4671633021073545 6.119795600500503 9.604299916849252 -0.5185305724864424 0.25099134771504517 -2.0668375833588986
Ni -0.11992873008485072 6.812554510781313 3.1351768320812847 1.0208143440967195 -0.1664478193450101 0.22436808870056196
Ni 4.884323709671737 2.3483389190044024 0.866981286082822 0.36144362553104203 -0.2731025777917877 -0.18538810789293877
Ni 5.669210858054625 1.9436693111937926 11.118233923431646 0.8118168243149568 -0.814764594089371 0.7249837285797966
Ni 0.06536411896150708 3.5895839559442737 3.82009729978737 1.3414170243519996 -0.7310013955287863 -1.010431972421131
Ni 2.283996274443522 -0.07941148706346723 0.6829194207717679 -0.5119287508992086 0.5475357014695408 0.04064091344981388
Ni 2.73985134059728 6.082111854836555 11.796816966551896 0.29160346480945265 0.06890633605341036 2.5088914636438404
Ni 7.811504330048439 7.646941731303946 7.972917770704583 -1.3719185353749663 0.03851383980448206 -0.15186657909672555
Ni 8.224312211570512 6.133707020323072 0.4334245312069129 -0.282032790401882 -0.12623088080649228 0.06174067154290657
Ni 4.898747263423518 3.8761927257827553 3.20417710194019 -1.8544127830631418 -0.4987017106859733 -1.8282356104471418
P 2.9538022731696905 2.9557856282046355 11.218197810650652 -1.5081188686893445 0.6726877473895576 0.3982173427159658
P 2.9053171573623815 4.931374850477256 4.097420615912956 -0.022244670330813305 1.8059243485444512 -0.40968189171213965
P 5.410294566497483 0.05584960170936412 8.653394778210313 -0.6424842272229838 0.9749615474286628 2.0890359738328086
P 0.268744607235001 6.71302360952064 6.83733434373434 0.8273493727329171 -0.81254316095802 0.4132133019041658
P 9.247099537360915 9.302652101391336 12.850480381358135 -0.14222031425621312 -0.8775082529754953 1.3302221840774444
P 1.0466807014695967 2.270401446504464 1.2214580442203533 -1.575987764617176 -0.013750002596240837 -1.3061844264019504
P 2.172676981285008 8.788264782891746 9.855593793234535 0.46931400155247566 -0.92544518586609 -0.10638299284262968
P 8.008126512761544 3.688360623600109 5.370609773899218 0.04872214779605157 -1.3544998256778864 1.2266218961862745
Ni 7.518740641533439 3.259993182156006 7.562717116458494 -0.34253573288294553 -0.4568976301659938 -0.14059974793365462
Ni 3.174969638380984 0.010887036182428606 4.096698041496468 -1.3926233720224854 0.4927434362200095 0.2658260987350325
Ni -0.3474353821871785 3.3789944842526856 13.239515005886231 1.660275211112347 1.9573859788932737 0.025631841635491343
Ni 4.723318113853765 6.059307927697684 10.37000997746468 0.5432234472474322 1.3977069571929799 1.792188487015597
Ni 3.4985824124864613 1.339155732679041 12.585190350263812 0.634212731242811 0.781473436136409 0.35270341744456674
Ni 3.999626314248607 8.121159126701418 2.2146086451036124 1.8996665126946186 0.48389164225633435 -0.9607271489968358
Ni 2.8207871244645997 2.9658606993211145 4.703351408682724 0.07507004166196103 -1.1059142591908566 -0.3271595075371914
Ni 0.8837066490582569 4.98625698463671 5.5526975957013125 -0.7585481947988033 1.0318896280742744 -2.0842573214972426
Ni 8.774753758686561 0.8681806106297746 7.3392395616501584 0.48782722986531474 1.2671962180642111 -0.48324038182558066
Ni 1.9200087236642416 7.0151174470732665 4.954194607210302 1.4047314681399292 -0.23319108630883065 -2.0691921996340046
Ni 6.296388690818463 0.5185477083099813 1.6718453823153352 -1.0304210139485481 1.1168255067867217 1.2590249951073287
Ni 8.292221170583899 5.612792322107537 11.111132953714987 -1.0505026151897714 -1.168568443686968 0.0401140944120664
Ni 2.2526909240797472 3.8469359111358252 13.229975347513927 0.5375942739861128 -0.2592412464286632 -0.6319005381698666
Ni 7.39592161378264 1.2299129098153287 9.268361475796562 -1.5644828493013703 -1.297567888377533 -1.015920763449844
Ni 6.829799456906747 4.69930368833676 3.9250354041879136 1.9172312610512596 -0.31057717769847804 -0.6991603397587894
Ni 0.5961779004523925 3.0940431660396506 6.692301739592161 -0.2767648571347233 -1.0369850403193108 0.8884058737246054
Ni 4.156544150158876 0.8690279594944692 6.18632086675242 -0.7321277958237455 -2.016746837350094 -0.18429076106370199
Ni 0.8051536846906671 0.9617875190583739 2.962123983943071 2.1347568729086914 -1.041054068182362 0.3635557867780384
Ni 8.204711449370706 1.9401123082672722 2.4735612516120984 -1.1469297823712699 0.7544313444169524 -1.1283705313118437
Ni 3.777574354068676 1.3082880240365924 10.034452377824804 -0.3727130277972742 -1.720611031887927 -1.0618722904792939
Ni 6.901898602613679 4.042459333782623 0.9878681721915968 -0.4708270957628924 -0.030692286877534235 -0.04669431873274539
Ni 4.93811639529087 6.345832893802294 4.064072316747929 -1.6771251927901503 -0.35900776239603976 -1.5904767022619704
Ni 7.588279117594316 9.283963868738127 11.501435808082327 -0.5410305533611716 -0.7529118224486324 -1.219736481920351
Ni 7.5787813610889465 1.7221481079950443 -0.12416268095052836 -1.4609216421782518 -1.651047264756176 0.016244486883320412
P 9.161368317610984 2.604387260557962 8.839517284221992 0.4332722774375699 -0.04867612504946456 0.8902236436596346
P 5.4310034002895815 2.4522462374783336 6.209734698843351 0.3209469509685763 1.3344323655040502 0.0954329215890292
P 4.154467679864075 5.51811272588539 8.079014228937742 -1.6836678790046746 -0.6290674395964456 1.3679837190969344
P 6.521979030872942 7.784491593164052 2.177825324002477 0.555777629763359 -0.0925460869595374 1.197238557928151
P 7.387317763771894 8.613282586569305 5.737144027035574 -0.04192569369950844 0.8915117663434389 0.10879057384285779
P 5.496761396800282 0.6370229091884712 13.026012888866328 0.6588562408231041 0.2687707831856533 -0.09512027544461682
P 4.157102841718015 1.5642711849082525 2.8093088063820817 1.334819830750456 -0.6904597266609981 1.007646953476826
P 6.974034994424553 3.737041281453117 12.208965592034184 0.13765197815924035 0.24431110748139218 0.1671489591770928
Ni 4.970157356207512 4.390207583242919 5.45047193882039 -0.37983755465719743 0.09968166956305412 1.2914077823134082
Ni 0.358817791552044 0.6338486099799612 10.264267357218976 0.1885384805964624 -0.2864640867003582 -1.1079852827872725
Ni 6.709503852698061 3.7490717730265843 9.978058051845279 0.7601705608935747 0.17470286026495074 1.1296658530844996
Ni 1.0778091328396435 4.5167325983360085 10.708047236474536 0.18515593727747465 -0.8462755202134586 0.5654318650236713
Ni 7.76990043194453 5.41201719880483 6.6139107957767225 -0.6035273863438122 0.9565809880389462 -0.7604364129604516
Ni 6.359018014597983 5.576700847387135 8.813119108052659 1.0156883357240636 1.0418431397425607 -0.7863346208834522
Ni 8.676284371388252 1.3821377366288277 4.892458258772806 -0.10740629190082149 0.8451936000031895 0.6246328008638596
Ni 2.3799981073556316 0.5179731871566663 7.912489691668071 1.1241446661559542 1.5550088483726638 -0.10727542274991203
Ni 8.178182911837574 2.200527755508104 11.012914046465692 1.2843380199508203 2.334606664752915 2.1013821541029873
Ni 6.228209697551492 2.033972490202681 4.038341776991766 0.21670774394182676 0.27609148521678256 0.11107268500881516
Ni 5.654880419562701 6.289209504283521 0.8823778943001037 0.14882393561565982 -0.5172115965647028 1.040914457280704
Ni 5.375469459311131 6.515861358300366 6.850867715601892 1.7645689255261159 1.025468297928963 -1.5622837847675222
Ni 0.5606311500021521 8.59346765927183 8.372650407437598 -0.36424304265305013 -2.0414857348576714 0.6592637606741678
Ni 6.292654768898214 6.511661860080836 12.167944595456976 -0.5633400154916492 -0.5089670971677235 0.6702282301054715
Ni 5.362358830723328 2.6659550703751167 8.462706831007866 -0.10861625304852261 -2.0940568240861674 -1.348340233834394
Ni 7.003990173520408 8.459065093194877 -0.03593690338903948 0.16401632708538205 -1.2537002404603055 0.08024207278120375
Ni 3.096929739095204 2.729934565422557 7.187678646639437 1.1019640162938569 1.2981759542751772 -0.9566941165780427
Ni 4.625938175095778 3.825184186433334 12.253435577836479 0.8459695589372656 1.008312869195599 1.2542905657461365
Ni 1.0902772661344364 4.64044553258143 1.5042435014891247 -0.23023611744556477 0.4731827404792625 -0.2860632517175138
Ni 5.051288682120529 8.621811944372165 11.114867806787833 1.4670439530259056 0.3437099556967048 -0.030476314211986225
Ni 5.566001904029617 9.108879245629844 4.345252466936772 0.08566401512772344 -1.250386345595724 0.04833134011553612
Ni 0.5528280912261726 7.3114288269888 10.768216455088647 0.2697575725789548 0.6668449154555355 -0.11574643633540066
Ni 2.1229627440475927 2.8058700598355792 9.153637888737693 -2.0765661235005717 0.26839205968999585 0.722333178330827
Ni 2.281472850901409 7.621353657895365 7.197314213729394 1.298215806374177 -0.9348826771299061 -0.23118125496765346
P 8.56151050208906 4.916904739095546 2.3619169861966856 -2.531305826783299 0.1558034522572865 -0.33524048477311297
P 4.1110480341929625 7.6007658739410795 5.520207819232163 -1.665594309332415 1.8508916572837608 0.3320942258346474
P 4.437938465445391 4.41897088701261 1.042930949955173 -0.14651997007283152 0.23601801423466448 -1.0261313854342586
P 7.090550119083063 7.33556430234362 10.388775495783573 0.13532795801175404 0.07960983851384354 -1.0626132824103764
P 1.9290595269222988 8.046117538783019 2.6621364135684 -1.7364505700233448 0.08562673413188479 0.06531913292278428
P 0.6152274203138469 5.848262191232799 12.555290109171274 0.0036391394144840556 -1.2448114226111078 -0.6705033381437291
P 1.8238020371804473 1.432401353899397 5.879710007944152 -0.664776720072597 -1.480248624641638 0.10708618955724139
P 4.0325425586079 7.206823144065945 13.490304197563091 -1.6766950472312672 0.614410094694587 -0.9809447615952912
