# total energy = -340895.6736855238 ev
CRYSTAL
PRIMVEC
9.04398876588470 0.00000000000000 0.00000000000000
0.00000000000000 9.04398876588470 0.00000000000000
0.00000000000000 0.00000000000000 13.23679173927265
PRIMCOORD
 96 1
Ni 6.349721232822877 2.0258173166053406 11.457872829561357 0.7067499791805892 0.3989200252099452 -0.49643605458024814
Ni 4.677505790557416 0.2260318902358032 6.1255505954833644 -1.1947466447442328 0.9719950086011713 -1.4047620642675485
Ni 2.70675732179226 1.4441622205315003 4.894449376441996 0.21373632001832868 0.2059972995028581 0.1361082878212043
Ni 3.434264825341655 4.427638467823205 4.84289230945521 -0.4550888590920291 -0.1624788073949331 0.14285691939894754
Ni 5.133539882114889 4.275410048239369 2.85300495157864 -0.5158743658105179 0.7666407419989506 -0.7460521192143217
Ni 7.515400950037749 6.182425527888121 2.599150134179831 -0.4999471530573003 -0.6004981125991852 0.20035115696067432
Ni 4.9671937960047705 4.6255752068329405 11.45007600681164 -0.12828313534983068 0.0266440849500896 -0.09464847801452088
Ni 5.672444043102418 7.944737186639691 12.411490906049167 -0.171516235006853 -0.4787188398061432 0.1791156446206657
Ni 1.6889196895902796 6.3652497616029065 0.4694761721199405 1.0799024085081272 0.416154901030993 -0.22977203332495266
Ni 2.6919161361614927 1.5933156839212719 0.5809867453010711 0.004648554515604898 0.1415734247008336 -0.7634248061648142
Ni 0.4536582356981172 0.07287013100717964 4.729889478121078 -0.18069095952758557 -0.19418385180769782 0.5787725479966355
Ni 8.605608580665933 2.233557739480859 1.3994867246272562 0.1076214932354211 0.8163599636009489 0.08928721370260752
Ni 6.690200279405143 0.8688053582622103 4.9044692116402455 0.2565243617181324 -0.5448944071919519 -0.9340267568875139
Ni 0.7327620610457235 7.395504790435626 2.7333448400843565 0.7999524687772029 -0.5225931725915902 -0.5046491865186599
Ni 7.375282431465245 3.6991270815163366 3.507578111800332 1.8365803828674112 0.5168842951322711 1.9088013851163512
Ni 7.669528607270862 3.7902724007039494 12.551681776532119 0.3540311351170548 0.3040164937618248 0.12686851439049118
Ni 8.02612404190555 8.994617671181592 6.962102376466474 0.15151665195647454 -0.9944816197394615 -0.3003945807385214
Ni 6.9846815989197175 0.643395694456265 0.4388487040281711 -0.9228041486988172 0.21599092038046028 -0.26345759850285594
Ni 1.9686050434181166 6.660309896401069 9.317152539573726 -1.1005123714489948 -0.8456057478399437 -0.41504958378195617
Ni 0.0206926463882972 4.743445512942501 1.2953587595085239 -0.2461396760496987 -0.3571473121485333 0.6751920018686501
Ni 6.606932274467621 1.9687407032502076 7.135160006669579 -0.7603759920361615 0.08287771063183791 -0.3343133449731533
Ni 3.4945339667453315 4.53488208708563 0.5817835207148863 -1.1431260923544635 0.21455084549982406 -0.08611884327695492
Ni 6.046123572591781 5.668790271624763 4.8536664133198855 0.6933740720943156 0.1291105163471325 -1.1428424996757738
Ni 5.363682265263053 2.9895266758029684 9.14758950664529 -0.3826788807607345 -0.19271652323355196 0.26140508684920144
P 0.26673797945306144 5.5891217742320585 12.294663371848944 0.1219332818724029 -0.39296612161935546 -0.07044925506049803
P 4.022512989255123 6.2936213702588 12.556275218446725 -0.4974210442013368 -0.4406019783297638 0.032853556194911156
P 2.287351384899387 8.39311101967842 1.3785055749960455 -0.06987949859995708 0.4722710272982705 0.38515356755347213
P 6.498928960145485 7.800675488947739 5.724356538849282 -0.3528931648578697 -0.23785686721561614 -0.5236113294434595
P 4.793802442614721 1.0068039658585703 12.503076667491635 -0.3913177873826551 0.29253523259510267 1.7569461188735354
P 4.038122913934406 6.143020868660058 8.03499709932319 -0.5915792128430006 0.982292019651805 0.8637302253547963
P 4.688069169482911 0.9531912002161639 3.7618697538584747 0.08405064789401653 -0.10442895444005242 0.3814144122260141
P 0.31126786713752774 5.363338593688422 3.687333720113216 -0.6298503405090572 0.6629815758453873 -0.8501771692607101
Ni 1.280854914660223 0.9674354825857303 2.628456275507033 0.2140386817500959 0.5000440836464807 -0.1724336046147998
Ni 1.8992738252307537 6.536723789366069 4.824042827985591 -0.2521712269557593 -0.631473477934777 -0.5573364896100466
Ni 6.135369654130119 5.652248816098455 9.045758714683297 -1.2051722109529308 1.228658467000329 0.584292192263284
Ni 8.620187490621324 2.5038735209056036 10.218882539084449 -0.018809419397019217 0.19477906218953553 0.4228544245383556
Ni 2.2199013163836874 5.341642064542651 6.842084123015469 0.6035788084070379 -0.4874523630243992 0.9010582723812934
Ni 0.35148286776261617 0.13804382754039035 9.503049920684816 0.9972283292466634 0.23086938015418948 -0.1100882096083588
Ni 1.5555479866671074 1.3052646404478168 11.505922637689146 -0.8153238090269507 0.13946486299826302 0.08353642726175935
Ni 3.859648838835343 6.830146962190332 1.460217109460043 0.7669197066919502 0.46172024836561776 0.3499227693756361
Ni 5.588135979452196 7.9040211490347465 7.7172745373747675 0.6511719848049689 -0.584180092165452 2.1541540464883804
Ni 5.224893213045042 2.98680443517234 4.955457411731129 0.16297065942968708 -1.461416065316167 -0.666580091829923
Ni 0.7554986489041935 7.290097100900835 7.023057956620531 -0.4172280794905137 0.5192723357484734 0.30828349656829485
Ni 5.133503706159665 4.702195879997998 6.901795250309811 -0.13996134301870733 -0.7754408567890838 0.5032327657871074
Ni 8.456617909074671 7.091726250428408 9.242735886480707 -0.9208138577416657 0.18507726152073933 -0.13170630209876674
Ni 4.7460863576738745 0.3525961827846439 10.471348199802645 -0.5239584283702331 -0.5268851150987248 -1.2031906617465278
Ni 8.415820475570472 6.959729233803759 4.903331477848441 -0.5192260558915702 0.41607982481868344 -0.2755677515028287
Ni 7.366102782827079 6.144684962600374 6.963492437545966 0.02857549764484756 -0.23247503407841255 0.2589211440850831
Ni 2.289919877720312 5.299388548840673 2.680079363612103 -0.5259613177328749 -1.0084547940901019 -0.4227027294518398
Ni 2.3950924235461457 5.178768870134065 11.144636990459627 0.32221373349614185 0.15645908356341443 1.0053519867950622
Ni 1.0769039230944495 3.207333058219647 3.8139170050385496 -0.5004711438815703 0.36640611174263993 -0.05493624702656346
Ni 3.479222493696648 2.536006813133584 2.79149407051189 0.33403438028015375 0.26828433046753797 0.028878887817879294
Ni 1.1466149888116675 3.3753251502924706 7.996517640149987 -1.136148889705682 -0.5591653152886693 0.5048836711269692
Ni 3.711444994270209 2.700598365415324 6.899082053667988 -0.25869900077194796 -0.32644474085835395 0.42926984114639616
Ni 4.204930243473634 6.864459855720576 5.83681673085505 -0.7003407332201358 0.3126260898077068 -0.12964967668005412
Ni 1.0825202401430214 7.722146534144599 11.683097091596776 -1.2350818540281696 -1.093826217678071 -0.9756565166131586
P 0.19837537246682904 5.415052121681553 8.043270540282986 0.5901527648091192 0.7807566125750425 -0.5638840609205772
P 8.602669284303959 1.6546791479704839 8.162295763763085 -0.26120531213356946 0.3201897610875776 -0.09745046623969023
P 1.8003235437034986 3.2857444411683083 10.240644184949623 -0.03666084575614331 -0.26419524799982885 0.6833632248255328
P 4.06884534390864 6.084560525017595 3.624604613754287 0.09940733285574492 0.4622969468046941 0.4281187582610885
P 6.773522548275502 4.069541731046707 10.437885441220171 1.0861044235537811 -0.5346706725814147 0.01010186432069228
P 6.433459525178316 7.629970200233094 10.084171421419097 -0.4513211645194808 0.5476012646001537 0.4212981357948293
P 2.2491495761825306 8.37235506536848 5.79545133485383 1.048818028398497 1.094561810292515 1.0847558799456865
P 6.817259278141677 3.8201808716856362 1.4897475417096355 -0.05290816085294114 0.54976124836595 -1.6733469566946408
Ni 4.976726160206373 2.9139912812946385 0.37045444308111747 1.2819162978832053 -1.0793475644459218 0.0512431144456924
Ni 1.4775888031587496 0.986120363459079 7.091108545992953 -0.07307280872627415 0.08977675174451635 0.10796293573523986
Ni 6.846833121537538 0.6000876496594992 9.325174557644713 0.2901459064273197 0.229294836578218 -0.6618402631520923
Ni 2.7671982989832524 1.5263087708570702 9.343785277809852 0.5042426951088607 0.05911197567080788 -1.7113110946432397
Ni 6.2271842284893815 1.8765734133275083 2.379591026732535 -0.10290403315509375 -0.44074750276869257 0.9146591509941797
Ni 4.048414973195718 6.9478635204901895 10.481037025010592 1.0209223304294934 0.1862630542987244 -0.7242057127631915
Ni 8.379047617084975 7.018451853121598 0.36638103052286175 -0.5405939800443852 0.4659743956562814 -0.062310942224079784
Ni 7.520546979668405 3.9182991062427326 8.253695219036148 1.367835109334212 -0.4010656107980383 -0.19099336989485816
Ni 3.1585588265884903 8.541088764523401 12.430459768171026 0.7301549883680909 -0.44249019649141214 0.7198736610467409
Ni 0.11352557388712387 4.989505316389355 10.190569427728153 -0.11969539368081966 -1.1730876717135605 0.0676997173398189
Ni 8.695704797152041 2.295708030556199 5.90227259983901 0.2447096284713915 0.18781060129150237 -0.26208977162105185
Ni 3.7451971604944774 2.612699838209091 11.310295733420482 -0.32441356936093807 0.319884571142333 0.4934798001654017
Ni 1.3571952241722933 3.5523612311713686 12.695764275398325 -0.5026920627922891 -0.20722371571079148 0.0012354150689978724
Ni 3.027746572497437 8.249239245751395 8.036241552182906 1.0624834417007314 0.7622094457004744 -0.7599517600145492
Ni 5.453615689950652 7.692726438558441 3.2637295636165633 0.9083923441488614 0.7315390131998111 0.8960132537582182
Ni 2.918522319686482 8.461031375612034 3.6553794988635953 1.1512654336321464 -0.6347151248005263 -0.7151083784476135
Ni 3.2804989276607857 4.21399232025732 8.83576995619059 0.4735421807012103 0.5196328044116857 0.7308299029479285
Ni 7.255205392087001 6.041755325998447 11.418930318161282 -0.18106325526533978 0.31926519239077916 0.13356803789785385
Ni 0.5387097152281979 0.07496562321354697 0.32933233037877985 -0.16278502578144222 0.4289042302768613 0.15877076241572655
Ni 4.429510573506063 0.21780276482115649 1.5797849722685047 0.552984383288938 0.10497222853803213 -0.3954737185325576
Ni 5.880021674179427 5.543250663007652 0.3826475487894664 0.8215397080296754 0.4644695289759807 0.5418065122952475
Ni 7.855554413022996 8.860432009265873 11.563449641686821 0.3738368569890723 -0.7055346187162495 -0.8396407885057603
Ni 9.097529219805907 4.7075680093488055 5.766925689760591 -0.588643013032812 -0.2252083252136702 0.21682524335629755
Ni 7.970548730692227 8.780510280186597 2.627503039086873 -0.6792959967346945 1.006868937660221 0.29648110461672805
P 8.405456064398711 1.7147041016763964 3.7308823350122235 -0.3163503327368294 -0.9390517209059313 -0.941866821757223
P 1.7617871074008176 3.256595665246332 1.6897689201391701 -0.18106119838281076 -0.03197912400975783 -1.261259540864802
P 4.802005340461831 1.1747598819761698 8.08615713520139 -0.4643592286503615 -1.15616775602977 1.055906302703846
P 8.524538265008285 1.72075453018766 12.39355486744896 0.29809704295359624 -0.032421867974131255 0.029021069822698406
P 6.5470882005378295 7.731660810368589 1.2752431196060543 -1.2021107984187878 -0.5050842171735495 0.3420269115673271
P 1.8299245190657785 3.215490736122726 5.9124118156895 0.02515978709507925 -0.13436019478184602 0.1564004624113371
P 6.885505217672311 3.855841319547986 5.941969379905511 1.2930682007349665 0.5545684399466062 0.16409577417306578
P 2.4785684402262085 8.627811573184845 10.262617460152862 -0.07090382609941338 -0.11951233113573612 -0.23826592972857677
