# total energy = -340893.13674507634 ev
CRYSTAL
PRIMVEC
9.05628046389540 0.00000000000000 0.00000000000000
0.00000000000000 9.05628046389540 0.00000000000000
0.00000000000000 0.00000000000000 13.25478188177035
PRIMCOORD
 96 1
Ni 6.336181394399046 1.8805819343437513 11.370203680922032 0.05067155821293854 0.5940878381974671 0.5766012513769295
Ni 4.666837203517132 0.3445887574447975 6.038361986517376 -0.2996996115540258 0.1436231081410107 -0.2323336234045418
Ni 2.8911813354434286 1.6661020424506445 4.770064311558951 0.31418417832344603 -0.679886579130842 -0.2202954612930851
Ni 3.6051422676431057 4.232072343908452 5.185138100401969 -0.2062515816055093 0.5604560090756348 -0.6405186188561808
Ni 5.299191991822506 4.367726370031277 2.6562315326587127 0.3507342095333379 -0.03283247314898862 -0.27612722355072444
Ni 7.308463672558228 5.9509996707154915 2.5619638029494474 0.01561559505006988 -0.1592865257098805 0.4684382838157416
Ni 5.246547833076797 4.474373129602835 11.401763912955909 -0.7489955181133616 0.2278845864942527 0.2992609813547104
Ni 5.7578020380779185 7.8933544945834955 12.420353670370973 -0.6828999120358691 0.3999628646521628 0.3588894916506207
Ni 1.8713354719182622 6.325141788427771 0.3022280052457515 0.16529699357001854 1.477912006088661 0.14357939938726885
Ni 2.5907392287190354 1.5973014792317985 0.17985410889838033 0.4082248475506389 -0.6408736882027544 1.0307601424555215
Ni 0.28977109137086376 0.15841608161765736 4.8711324023213995 1.1002907423564923 0.42972801172973735 0.5094512358929936
Ni 8.588849670773797 2.4229444629800883 1.2709747114843555 0.43618970819468106 0.05515479079527275 0.20918418187127197
Ni 6.769886669185216 0.467709796936246 4.521656875900311 0.16887391228799947 0.5625015787507538 0.5623485981126572
Ni 0.9396072179915382 7.563923233868905 2.8557432040847788 0.5021845270282512 -0.19948932318101129 -0.8444888606266812
Ni 7.7719369414605435 3.923968623852067 3.9225938804669647 -0.10219363735163046 -0.4814251829937128 -0.1132861477203662
Ni 7.818712630420046 4.100729107319941 12.582605086794892 -0.9498084452018031 -1.0973319168384845 -0.06224769308631215
Ni 7.801261177830508 8.846428401729494 7.018353876295383 -0.009076251269655337 0.89417748610106 -0.5248007217658703
Ni 6.846321676894451 0.5937596375524773 0.49934700735466336 -0.3827485576564053 0.5113484529157064 -0.7644139095509609
Ni 1.9763702135547208 6.355915029683219 9.52881008370617 0.17969414283195503 0.8610213110640657 -1.0832605263470827
Ni 0.4314348652562292 4.85658439327115 1.483196872640269 -1.543554069568503 -0.31869260771676083 0.1920333811235983
Ni 6.310733246097748 1.9038384627557554 7.260253468762098 -0.09242498800064082 0.37937012810247567 -0.9298381727274632
Ni 3.396068975228958 4.403272271128285 0.6284424751145695 0.6489559509902566 -0.46022360921543315 -0.2795527042925056
Ni 6.0205519052186816 5.5597230702323746 4.798814379743043 0.2336168609923396 0.2999973453001027 0.2414034469162939
Ni 5.217649241891943 2.870089258079115 9.35563588732987 0.9472936491997491 -0.37643392829228717 -0.027652728720262053
P 0.23339212253282182 5.673379390937457 12.41269205703898 0.5928709350712307 -0.7015499230368886 -0.7581643290968233
P 3.9431679385847183 6.114972686068977 12.609154478809158 0.39273935032053003 0.851830902814049 -0.3653514452258805
P 2.165320450621721 8.333679910440217 1.1688597146921453 0.26299634259572124 1.3240247970174812 1.2331859225570374
P 6.298742730670376 7.692413742089122 5.691073551845313 0.037271225646632586 0.16317531924132542 0.40579978304891406
P 4.756584943611744 1.2725794843950282 12.517948677548528 -0.8923355477963147 -2.570289664245664 2.2487652435070626
P 3.925453853859687 6.237966032004892 8.449526039778487 0.1566460027632399 1.021993194896169 -0.4810752558534618
P 4.819354023994767 0.9442078085029473 3.675060375879881 -0.6555482594957935 -0.05314470234377943 -0.941306835488695
P 0.18723588316186346 5.672763563861127 3.6365956355666778 0.8823612101924223 -0.9951112829036605 0.526041536151507
Ni 1.2801867600438148 1.1498306580335382 2.6717005654392985 1.0081182366862895 -0.4211811506009908 -1.1208438839174957
Ni 1.9808530724191842 6.496142477475849 4.836166103178585 0.1922580955398947 -0.137305393453099 -0.2566961114093063
Ni 6.006107137766522 5.8587342846323525 9.205922891305644 0.11122309454375037 -0.272003431190338 0.4541858876617855
Ni 8.181317046731666 2.3804886198354325 10.192966906735686 1.7931223116837764 1.1444972616703775 -1.2154052015348487
Ni 2.562682871623868 5.287482221091696 7.064308160610428 -0.8492436017028471 0.3230711964004307 0.10063632016683959
Ni 0.5547823117610343 0.22045613141767115 9.123730806060776 -0.5028275599288888 0.06684611109027198 -0.06610923292424743
Ni 1.2519583336184963 1.0536529587595953 11.465598917557815 0.2681200369755318 -0.04898799986292853 -0.9516370137701093
Ni 3.892172022896246 6.717939844040646 1.5481059521135394 -0.07414213053105295 0.3754581946425792 1.1785121851632412
Ni 5.662457516613129 7.83384567519281 7.8681843740946 -1.2134164532395941 0.3143155616949877 0.1897327580148797
Ni 5.320428969675369 2.702394111426045 4.906508950972417 0.8438507128220499 -0.01832785177491037 -0.33505716511771333
Ni 0.750819088346101 7.596272267937316 7.084283598584865 0.4605244282853036 -0.6507248699652212 -0.5507891754098321
Ni 5.201990932848191 4.819942682229494 7.3048167083870785 -0.5675365700714999 -0.6599715853744698 -1.030031234709297
Ni 8.22881723813391 7.28619427872446 9.030416702691767 0.03022666009502536 0.22006174801572426 1.3536896710717654
Ni 4.5660498574512465 0.36789962354000744 10.318701588789326 -0.1402829880241842 -0.06932105499332578 0.8431498301002833
Ni 8.097084581482424 7.325127228741285 4.5276611898945305 -0.16872427408401267 -0.7493544441146772 0.4025136560984745
Ni 7.5073305368102545 6.346632342135592 7.013754191412028 -0.7875070439249986 -0.9545477596590012 -1.1836960433570258
Ni 2.39310401861967 4.683210958723092 2.9625502598217937 -0.036835423660794626 1.3438608579068017 -0.3475794659544401
Ni 2.4792201902200395 4.973808888506735 11.587462945311106 -0.01278301069728121 0.1869762783156651 -1.4335481352613053
Ni 1.1358839860107632 3.102355684941527 4.015629050395516 -1.4619667956133144 0.28117224217379966 0.3205072923279964
Ni 3.8243676505361703 2.657284778084848 2.440152301623254 -1.000976997655818 -1.396131899396376 0.21447114130182418
Ni 1.0756597204578704 3.374297676824574 8.180387872348849 -0.57007219200916 0.2307847908601832 -0.2831519916079897
Ni 3.9341931645752575 2.639443905432337 6.9351275638134995 -0.8363834579107272 0.331373545618539 0.8766333065697095
Ni 4.211722881547948 7.061254382814272 5.7991394305765915 -0.75179956322106 -0.8990427846131612 0.27232559041644716
Ni 0.5657702969332636 7.553970381561743 11.34802847240582 1.368422863516882 -1.2822618541480821 0.1081521689279105
P 0.2563543218274624 5.6221389556745605 8.006219296369885 1.0957126360675065 0.11596935097948413 0.7153832293755551
P 8.341423030297019 1.7773222236920094 8.0075315514193 0.7293355777905891 -1.0157711252458572 0.8423869837923298
P 1.7488039962895945 3.1783559911851174 10.28441179380242 0.3756893368167788 0.06689701893286544 0.367457950045922
P 4.095893053514641 5.728133663047651 3.698216379577955 -0.3222576993601998 2.456734064913995 0.5334745953907845
P 7.006808024242243 4.297730377781907 10.264251607705084 0.40549510732430166 -1.2413897985240685 0.1359794755528239
P 6.370667710673544 7.657827806728746 10.26067256563794 -0.2224364188954879 1.7329351006709188 0.2304934848720095
P 2.309650393496376 8.502615767526482 5.749261965534102 0.7005847309101418 -0.2926601882087411 -0.2656186107099167
P 7.1349091123994866 4.104043705995483 1.4437640159379521 -0.4079777645368393 -0.5007071711517764 0.13002274374875672
Ni 5.3522799083143955 3.094920478622892 0.32638201105870196 0.42056999937955303 -0.40622350084989395 -0.19965824465870777
Ni 1.6311719684299668 1.0631348844789754 6.954916442408932 -0.9802420791013119 1.3959408664314927 -0.10687664464959658
Ni 6.791712305272806 0.5088035754885477 9.259632068642185 0.11988668375601931 0.2906935514006736 -0.5120971581562729
Ni 2.684761533225822 1.526571928259153 9.228668645495517 -0.1744166964830996 0.5218807199055979 0.0997667730776927
Ni 6.343553206753942 2.1329442477117078 2.435088935176544 0.7155472657572451 -0.6335879531746185 0.7122889067209475
Ni 4.123442258899889 7.0834784952453695 10.603057024400696 0.10992700144014617 -0.9555777435854124 -0.4211760083946682
Ni 8.206430112653196 6.867178290964874 0.5228534891094135 -0.04784077363236277 1.269297066457298 -0.003164513770910679
Ni 7.618650337137496 4.012484709794018 8.01601456939575 0.4129083690692373 -0.18916711531939678 0.9968184954027541
Ni 3.2767977605926277 8.43793581195073 12.527876172270194 -0.2593263499433017 -0.08840789642144774 -0.5712857527012871
Ni 0.24598216373156342 4.976444266142208 10.268386705397031 -1.13096220329842 -1.044831532946923 0.056827036291373104
Ni 8.399030030775506 2.4485465680504683 5.971849039761487 0.5810425749777348 0.1697779121595076 -0.8317431309252385
Ni 3.64786979920379 2.643030192523908 11.422626866422705 -0.6947303290118939 0.9400243692318455 -0.7911212436388181
Ni 1.0498674334962705 3.290409350235635 12.367162512280993 -0.5093571335172905 0.21496402177784268 0.9454321705109783
Ni 2.8806035997794024 8.462188531221503 8.065349563234236 1.4246552036470497 -1.3950229826029137 0.20420755459228704
Ni 5.4885407052330155 7.585812263920235 3.4999381735606567 -0.46698998140498926 0.3210384822411181 0.20419392774553222
Ni 3.1618645043322124 8.492970828757485 3.7040087766076737 -0.19229537653573334 -0.12482191627410762 -0.7150566992740718
Ni 3.418836464492112 4.221530833366563 9.071917108240058 -0.7550460951828157 -0.21588987602622173 0.8609426353073302
Ni 7.171777230454498 6.164981467179214 11.57862220425355 0.9172127706539688 -0.33853483925366856 -0.7936830908287235
Ni 0.21311782730075252 9.091962279574611 0.2670679016995033 0.8767382075786901 0.15618628951800195 0.022373482599193726
Ni 4.543635563128929 0.015204589388985211 1.4428629160247926 -0.0772639639894863 0.8420370566520788 0.13028833870531756
Ni 5.712303284673748 5.614893931247145 0.4356052824422603 1.5553320360400373 0.041815136263573145 0.046546994521603706
Ni 7.967317137706876 8.953527975327765 11.271110764944108 -1.2903659713124551 0.7814189287493897 0.4763053452686442
Ni 0.4110048019989704 5.00697298782323 5.889616201254213 -0.6252326392313877 -1.0864659206582579 -0.5472433670401027
Ni 8.14878688705257 8.916324774892987 2.4147295109074522 -0.9046159078255647 -0.31747133371515 0.11894925954341451
P 8.387039515348134 1.6720701313227282 3.6102581605169153 -0.10574201682452111 0.9281397019791178 -0.013700894525860275
P 1.8227666394129742 3.218276075780178 1.4140603214136016 -0.5219126015847978 -1.6827026868779278 0.6848837752351172
P 4.578746762760293 0.9931207796685372 8.22864788568792 0.7092822586841399 -0.38586396335693546 -0.4114058163817818
P 8.341812450359992 1.8203848376324612 12.396269397918134 0.13798339335673013 -0.9326288480987228 0.2920888890863034
P 6.362480833070564 7.604667439992585 1.5156047725321526 -0.45486517311699726 1.1346183119937685 -1.070328391666447
P 1.879332167630022 3.1223610086417284 6.048077564274541 -0.1803860266926571 0.5955394830423292 0.6654611477341313
P 6.752933312025063 4.004080481458216 6.04223173518967 0.5359472253009931 -0.7117924267005031 -0.6066613039871036
P 2.3125574595478766 8.478942650209902 10.302570541901686 0.11786785355377766 0.3326778662522593 0.38725390172592666
