# total energy = -381171.8614292246 ev
CRYSTAL
PRIMVEC
9.19299721218068 0.00000000000000 0.00000000000000

0.00000000000000 9.19299721218068 0.00000000000000

0.00000000000000 0.00000000000000 13.45488066242368

PRIMCOORD
 96 1
Ni 2.778951114606415 6.239719250341594 0.7700164745799426 0.027362451173352877 -0.2417644298001385 1.1905032960868465
Ni 4.837851532852838 1.3292522328406495 10.559255813237828 -0.3096402677065054 -0.7353766417783464 -0.4606799800265614
Ni 7.551532367550206 5.469723000355425 5.032354209082643 -0.8251361671316821 -0.056384035216683545 -0.5953926730518199
Ni 0.4357407114739237 1.2110027102392327 9.287877174783011 -0.857635168200652 -0.026013907565258426 -0.5568685488346926
Ni 4.135414619071118 5.042349754905898 6.442559975004852 1.0290382746684084 2.711040593045202 -1.796950427180615
Ni 5.54161223822708 6.448703655013755 1.2960213866694918 -0.2912165137836791 0.9192542265640298 -1.2185635446581724
Ni 1.0536461776754098 0.057242954779950464 5.873351653413816 0.8976088803801122 0.5111242527200422 0.8169479748939349
Ni 0.7435902849142322 7.931966169448243 10.343250716626718 1.2394367885627557 1.2242554528366272 -1.1427861925165415
Ni 4.732233188363397 3.694702334727502 4.100617286182143 0.04456801641836196 -0.7199762480628761 0.09059590521170204
Ni 2.137675210998622 8.782566618623498 8.349856838316619 -1.0363301803441314 -0.004718231411275745 -0.9234294409876419
Ni 1.4997731373523253 2.5149650078644195 7.1325799075086636 -1.0495353661804958 -1.0476774870361505 0.1489226659770532
Ni 7.769957980316254 4.481494190543787 11.781308506075748 -0.7066299086629573 -0.4370777672265892 0.20647886712496696
Ni 6.635652445468736 8.754629100222992 2.025282546894396 -1.2693384612181948 0.22241430740830084 0.859612603641997
Ni 6.314108983443566 3.472185838220677 9.87694512816102 0.8320627190481864 0.5313351804502785 1.2148475292591658
Ni 0.6198975886882877 7.778994696534648 -0.1575661328993054 0.06913824955855835 0.7111352527324786 0.7475029927282352
Ni 6.209915553515519 8.438849647423593 4.3992481220600865 0.28008415131594344 -0.8823077312466676 -0.4734565629659394
Ni 2.4917159180207604 0.6928817125229225 10.219304293678874 -0.07891666910156087 0.5456971055989053 2.030374455435858
Ni 5.925833554959274 6.624032497045491 8.207329529488186 -0.6942335918811334 -0.07239635148453984 -0.5490292552959318
Ni 4.830644223071332 4.1664685635123515 12.29023926452092 1.4291458924285516 -0.01583773836320498 0.3056928530229832
Ni 7.033304731066721 4.408492600014529 7.306201609965877 0.9581971834861304 1.768648752022444 0.8445204851955649
Ni 7.091689456095221 6.177013816643059 9.93715558242754 0.29424527330767386 -1.0933179105830848 1.2308423620255253
Ni 3.830492095929829 7.461284714329487 7.5784080947775445 0.4490771056803105 -1.751448071873442 1.505296311638885
Ni 0.8111229614268862 5.20991051432874 -0.11834788767113899 -0.7944760190436639 -0.35727792418912657 0.1925458019836426
Ni 0.39126866836293756 5.340873952016667 10.005856688880538 -0.8544968796819865 0.729349204637344 1.0386678273383727
P 6.323430682574238 1.5882741211106894 2.9931994294582833 0.532693751360702 0.3101475463602271 0.6384262551035264
Ni 1.1454382544207373 4.342468494337519 2.434163159236171 -1.2991007800822916 1.9931147997534513 1.564262762870764
P 8.354991127236223 5.363130198165935 2.9011416750947348 0.4526038878866463 -1.674385425261484 1.9147036095333991
Ni 2.738667401006212 4.8263419003956365 11.768970584573504 -1.0924789596215574 -1.0926939038458408 -0.05758911126837824
P 4.3579035365864325 8.330372280814192 0.7895791725583159 0.05529594435882735 -0.00706333460468461 -0.10644778464229411
P 3.642982532647461 0.46797044025323703 6.904627591775046 -0.2113670484552037 1.1950793454933029 0.9805354419720145
P 1.6012822121066472 6.557410846552412 11.886189572192132 0.6242592195745249 1.1380551055894592 -1.1839572674382124
Ni 7.528384400675422 3.144427910108392 4.682984463922729 -0.554666141866735 -0.9801256081281056 -0.5067037550548434
Ni 9.018982926851798 8.91182935183492 1.870955106898183 -1.4372117001558216 -0.07052715948628498 0.9139904070619291
Ni 6.512512248372725 2.119353567638238 12.126507388419503 0.7065000679533122 0.020748288290944914 -0.8515375399433465
Ni 2.0228179043530417 3.346140654018855 0.741223088142883 1.0388961412990945 -0.4869381423921421 -2.1393941145703863
Ni 4.061502921822 1.7825129583217083 0.25549913175438543 0.1522062218243314 -0.3153604580197343 1.2642942139260678
Ni 2.0557380272198436 4.7846792372198905 7.336879560822846 -0.8526078901893895 0.5811040243432896 0.17310774786368896
Ni 0.512851571738301 3.042845291376708 11.934451888036426 0.5196721422900534 1.0028413045580664 0.5889818844294695
Ni 5.085602806592105 9.238134786394298 8.649483275788103 0.355101228252782 -0.05820411914455782 -1.6794908648088493
Ni 6.190270118562613 2.266257662419443 7.946640950831173 -0.754702595800468 -1.1384451419390265 -0.7491137888587808
Ni 4.691066947034847 5.554381311296609 9.914081159530117 -0.3657376249207056 0.5908317931540147 1.517965165355805
Ni 2.3581508621336438 6.408043028529571 9.277100224200282 0.3580608251017382 0.014763788572735862 -0.3489087262888249
Ni 3.9049094080233115 6.7595556613298795 12.280068132451714 -0.19216399316419164 1.0376895225855032 -0.007023996726316935
Ni 5.47210398662253 5.961235787062054 3.5450385021957764 0.027456553549055938 0.010168198782253455 1.6166279067360416
Ni 0.3645602536840993 0.725143616792332 11.773585469152989 0.02861740662637652 -0.5558735319112749 0.07657336568036491
Ni 6.962831214759293 0.8940575853986411 9.864728554221424 2.1115999751762535 1.73949989837263 -0.021712194866110996
Ni 3.5992330591140593 2.8251735043786237 6.416108044947064 1.5903766863489965 -0.28147768922936034 -0.5258445896493525
Ni 8.39666298340914 0.5555447698968363 4.521162892633297 -0.8581673865550382 0.465589758623353 -0.437701259743201
Ni 3.3384828873760055 2.0410568107388936 8.480328450655932 0.1220150429529318 -1.5022019889842773 1.4867370605794588
Ni 0.731971255790705 6.832860620765758 2.1682538774861517 0.35174876684078127 -0.6943801447613267 0.5508357123770513
Ni 3.8817522481513556 8.171361008759717 5.527708749306736 0.3529065345943083 1.026642263632406 -2.7594583222269575
Ni 1.7576275149817384 8.783642199292421 3.5658128372011935 -0.46651509865109975 0.36064169845503696 2.3750622016647998
Ni 0.8908336012910211 2.2351301740008473 4.835267381348269 -1.1885538856699596 0.7088716535092824 -0.8379315191241375
Ni 2.8280784914844355 2.3473123184698736 11.95242787470321 -1.209111140996021 -0.3700089986025499 -0.002995335182898067
Ni 3.033762610172463 1.4072180418418636 4.804414763545066 -0.6011007791801906 -1.6161705074836488 -0.14519456639318867
Ni 8.292101833594282 2.2306347983845765 6.750407709845725 0.2435886274930708 -0.7642758413111999 0.003900363495670702
P 0.08978616476277064 4.526824859590477 6.128913297548959 0.1861707516952342 -0.7999064460306159 0.5221704832318749
Ni 6.614168411081772 0.2602960376778418 6.598959516563248 0.6670048380721675 -0.8521697742107066 0.720859421998778
P 8.275692333645319 7.7484095949490985 3.6394781621261467 -0.08804022866938385 0.5615623547659361 0.22527543100617978
Ni 6.55796242638263 4.070181111150752 2.4974146569666225 0.8499645390292717 -0.1916132628670442 0.07130054731719977
P 8.506666387548808 1.70759003138386 -0.018041256946690558 -0.6021428472914597 -1.634148175007992 -0.7103546658127121
P 8.56479370865654 2.915126981689894 10.116320662178438 -1.5695942023860063 -0.3684408827844816 1.5043077224733705
P 6.413558826831743 4.639347144954805 0.2994839460153463 -0.6656496095958536 -0.4684364840435287 -0.743301553052378
Ni 4.971931396581491 9.127883171331034 12.287656032316068 1.0975556028135163 -0.9716803055742299 1.3905245805119277
Ni 6.401534386533006 2.096417039698369 0.9058577165664229 -0.10108369211690334 -0.4225842015961045 0.9942908438848941
Ni 2.5916897622476447 2.673875156950021 2.9085549080128548 0.36580653048542805 -0.5709787629838297 -0.23023817432809382
Ni 9.208441405534266 3.8409996916954685 8.41831524964432 -0.49090843989379973 0.03734733030020665 -2.0466389969238366
Ni 8.577231833827941 6.3629421844121365 7.976981518691993 1.6656498451606991 -2.9019591438380665 -0.8069764655035199
Ni 4.3233010952374675 4.255180986205632 1.3141518156887344 -0.2741464456752698 -0.48540576490801557 0.40732136189976303
Ni 2.305493374342233 8.563442338072507 1.5465176893638066 1.8100190874391149 -1.2839562111313694 -1.4632063244473705
Ni 8.619777024732034 6.672047521265906 11.538824819715057 -1.7426453859801472 0.736613342398925 2.5498864179989633
Ni 2.36024686548847 4.1156129031663164 4.905824553929949 -0.7019283894222299 0.15559416445995786 -0.0888768656380663
Ni 2.6859915272204606 6.546581495885813 4.464006352026748 1.3603701684157348 1.9772557212340076 0.9474458585068973
Ni 4.545652117795227 3.963698624927305 8.322825749437103 0.11378185640986212 0.2845090198565165 0.6505387220963442
Ni 7.734381081267239 8.124182547281798 8.716273158129399 -1.625414137569104 1.580680027886523 1.5623174662189352
Ni 5.766013299153815 6.835370308993246 6.06781479975579 0.525101797946057 -0.14325749727147585 -1.2378247068806296
Ni 8.307877016738496 3.579385378223407 0.7684417141646722 0.7945022442959091 1.9119910956982429 -0.45046293028424356
Ni 5.380137242930967 1.4058758642550018 4.920786156824593 0.40784612405498144 0.642418664092371 0.4269949290692905
Ni 7.972130374085231 6.034209798599801 1.030042238140978 -0.5183382539699783 0.71270979630845 -1.8979487586725636
Ni 4.088750965434735 0.8629392899772156 2.693761448428788 0.7519052355609889 0.7480573225698085 -0.6066852152465035
Ni 4.214970816582792 7.83201990421287 3.0151311628074398 -0.38472933553186 -0.3952207219814871 -0.3415394304079473
Ni 8.844702086497476 2.2612107069729546 2.566558865883228 -0.013527602172789607 -0.7504039684251141 0.7990397271549464
Ni 6.172049598171103 6.489492983458324 12.172496276063587 0.294553291466396 -0.5112882891017323 -0.11525252741811763
Ni 3.910848084195318 8.037382267999938 10.23510062071658 0.3367754333604006 -0.6540161391219833 0.10545996680772807
Ni 1.6448662116909836 7.112732226618011 6.578010514611595 -0.2271605638440346 -0.5986086088859562 0.5866005286814865
Ni 2.0803844526333863 3.9810733895791497 9.653957950199077 1.8269829689869634 -1.795457387574856 -0.45810990530654006
Ni 1.1960548968403442 1.100006462405173 0.8899234945711625 0.6290558696322198 2.7112352255545114 -1.7144213581374472
Ni 7.374861347931608 8.087291049637432 -0.004602014383446265 0.2399672286903996 0.9743943620712833 -1.4700809400800166
P 3.3592222889921755 5.204201663085992 3.2204254984154472 0.7974255885902912 -2.148933164409073 -2.7808846104215332
Ni 0.6563248399755546 6.057615169395356 4.619343183112258 -2.022997189135181 -0.9629107869117159 -0.5249472746460636
P 8.802267211559425 9.317838071860697 7.477509435035329 0.7102297101990735 1.0032817345295948 -1.148815429429757
Ni 8.389069567746482 7.471268309256421 5.88017285731417 -0.35550283456657483 1.8816731614409918 0.30721314632225155
P 6.519710365157061 8.349254697001964 10.873184715706849 -0.2737813490263672 -1.7670675235782536 0.45456024028206876
P 4.075319996568944 3.1627863254574575 10.499838714627105 -0.5373435914278875 3.035362116912966 -1.6192589166009854
P 5.706047378612024 3.4610806976389688 6.113870796279217 -0.5807026751398128 -0.8226702220896929 -1.2933363667946887
Ni 2.6082463501513335 9.11407528958126 12.633755828382514 0.022474526953432262 -0.47390933423264187 -0.4881393617890948
