# total energy = -340876.62997009326 ev
CRYSTAL
PRIMVEC
9.15120617053244 0.00000000000000 0.00000000000000
0.00000000000000 9.15120617053244 0.00000000000000
0.00000000000000 0.00000000000000 13.39371524866810
PRIMCOORD
 96 1
Ni 5.3750523147133356 2.948262316698149 9.895866094411048 0.4085061262364836 -0.4226320241149044 -0.22492164721118682
Ni 2.0829151328047826 0.0875651441769911 11.94486319755897 -0.3013106647948875 -0.9229291043124558 0.6205799709507247
Ni 9.082516977729327 9.269073461806801 10.890550017066907 -0.6278690484129702 -0.7008120164295996 0.41105126125584046
Ni 1.1563372300375618 6.871027401615972 11.509768196523357 0.6238781820860223 -0.2961895415182383 -0.39828213451563016
Ni 4.787471684396129 9.39590917598878 12.209495940385203 -0.2892344503566438 -0.7380027665472838 0.6227546100045405
Ni 3.5108052475924185 7.832553759827708 10.876339109379085 -0.18836878778781754 -2.3851303845340794 -0.7150266173670846
Ni 3.401933350649922 -0.09156971189171215 2.982458543015264 0.061791065164867785 -0.8730497029835093 -0.12596065786424113
Ni 1.2332897206981865 0.8417370725954224 3.549522169638675 0.9773336472052653 -0.6260096266067283 0.1921177133072885
Ni 5.322734870414752 1.617503101645543 3.1858962566707696 -1.6551474029674786 0.7150060485417944 1.3484551621457035
Ni 6.986808459035193 8.560028875188197 6.083532271926094 -0.24242057532689862 0.02694438979932779 0.5970116967124814
Ni 5.879265459013382 9.022750451804182 1.8007175653175889 0.4698570185401392 -1.5717454444010543 -0.5971201972658877
Ni 3.728823577655294 4.2630343749920305 11.821199291352132 0.0207778559772997 0.8244226860044254 -0.03868764637818498
Ni 1.7037989735601213 4.556376281060091 13.440191294202396 -0.03869715945988174 0.1254333246058614 -1.7036278670663692
Ni 1.9688545021002963 4.989081902227527 4.72578523546699 -0.30089748851686887 -0.12922775865128713 0.8234994028592075
Ni 8.437054969908441 4.775620872717511 10.856034413662853 0.2222875520224494 0.698495452481281 2.3312207789998176
Ni 0.06191705931856175 6.483043723825689 9.047454132210694 -0.05029180627601661 0.03527784936568763 0.01743336498509901
Ni 6.008873988591979 7.535597127417521 10.599759467211973 -1.3868260486144182 -0.29682768932286946 0.3212552262376145
Ni 3.9333987862078286 3.3981356001892062 0.8099155842169958 -0.5805178128225164 -1.0102959610638986 -0.9978572210799137
Ni 3.1066605401307505 7.574425694176116 5.191189945661486 -0.5279408100567489 0.6681343236909203 -0.08773632427571987
Ni 6.477159498413061 1.2604321974848927 7.788699350772666 0.9119188692448811 -0.24675545525682666 0.20047636968462895
Ni 9.018193151251323 8.583876917840307 13.310258811933895 -1.5077244614644034 0.7032213972020406 -0.0038563976316127128
Ni 1.8459538064679752 1.03442486464562 9.773232613991865 -1.35543005080164 0.434933981410709 -1.3602241297561735
Ni 0.4680475784669168 3.213409357297618 3.6321346811666553 -0.6475295029563751 0.3815326829714332 0.14205833475705212
Ni 5.019857407768219 6.866104052825937 12.731797358325371 0.9365911751805804 -1.7729792610769983 -0.8630817931375201
P 7.427585443832392 2.170409812696117 3.35255435857528 -0.20243272208005136 4.949009517267708 -0.28017285437500783
P 5.9456117020017905 6.923582777268722 3.0632225109454985 0.16251994504551365 -0.05148376970158876 0.14546324667354302
P 7.379276227730901 2.788775099759944 10.77514964981435 0.2876563072362465 -0.013748974154976319 0.49886343307481823
P 1.5132617149033414 -0.0321646586007805 5.662567647966124 2.242693069171054 2.2803831275226596 0.33015278583756047
P 3.1796231050061414 5.610759925837811 6.513591364338738 -1.5390376697553882 -0.14040485831402916 -0.43006636890576255
P 0.5790251678937761 1.6243115988570431 13.398938572993092 -0.4639650785357365 0.02949055325994921 -1.930700756292604
P 3.026743058748989 7.19313154792025 13.09364244661941 -1.9980130083860173 0.7368503981103955 -0.44388913372146777
P 3.671106921858343 1.5211866592382326 10.489703404222208 2.5057817143702654 0.4787872311502335 2.0897509976219624
Ni 4.216463888017133 5.787451409923354 3.9836123682632345 0.41081497687531837 0.03774687973147048 -0.14482664153080865
Ni 5.938153469169301 4.187280692308162 4.7253029669145095 0.4243232957743982 0.2422079450954603 1.1032894199734997
Ni 7.672920123594633 4.58573334968172 3.1179229292681074 -0.3209567211605892 -0.844950630754448 -1.5582705498430711
Ni 6.295773445685717 2.503312381997128 1.1947164725850221 0.19927926405273422 -0.29813303839785427 0.884083849310484
Ni -0.03261306769132284 7.9963145899349595 4.9825689889675475 -0.34930056241060486 -0.0687502700915203 -0.18913677630209363
Ni 0.3829203155495273 6.326741126550927 3.34990233909693 0.14055603917991277 -0.4893148701544347 -1.0327206086160021
Ni 0.6917067118646963 5.194123822282463 7.045375261862988 0.36054142543174683 -1.3847516825838926 -0.6981627517322105
Ni 3.9070890691607008 7.103394822576204 7.948513265762552 -1.659245484296252 0.550887134440277 0.6386543119539323
Ni 7.677761111531304 6.674130054838235 1.5688461397187337 -0.6008554959386039 1.0163380534929205 0.9756284915887005
Ni 1.4559660145791447 7.314723621104661 7.059451646823646 0.5169668275437483 0.34271802409708074 0.3304433204947857
Ni 1.643611492162223 2.545078485859072 5.65554958813884 0.4150076748004272 -0.3301689837874765 1.1244791666772376
Ni 7.879874645688821 8.47858314241622 9.039498988896236 -0.6441086502002842 0.45720024900807715 -0.6893441249993161
Ni 0.5422510468663388 4.0265031553339075 9.240457640865456 0.649116902048153 0.5867805059027765 -0.7433180081126102
Ni 8.401337813165853 3.280249765406216 6.964972766566967 0.43338463464571814 -1.6053099106200612 -0.3018061163740673
Ni 0.4929873599864078 2.430725016564844 11.224750227368713 -0.7243491803195912 0.6017777506425571 1.0961091001749768
Ni 5.14180637798388 6.4252630095872325 6.11153862255254 1.4783848319600215 0.012690965204107174 -0.9793069688815521
Ni 7.399793231424696 1.3876431111099778 12.730525340701181 1.6879081423382674 -1.394845833595101 -0.2967839805691276
Ni 2.627750480225594 2.1594100631689352 12.610035072710673 0.40871618536476056 0.8028107641616046 -0.007886087616296097
Ni 1.2030266826895426 6.953946478542589 0.8843093976997501 0.8764435591564066 -0.577641776826302 1.2679657492403842
Ni 8.494359821438566 6.233041929039436 12.829664930137723 -0.95767653509597 -0.36273483353863983 -0.5150660109766098
Ni 5.405727156988804 2.420539724365382 12.2965284843771 -0.5422536271349951 1.7433259569869395 -0.42229032450476955
Ni 7.189699845696712 4.84325743574197 8.886059803956794 -0.6580535424161505 -0.6997686627667496 -0.08834516150431236
Ni 6.057842091520389 4.781560005365715 11.150213655073458 0.1455565777182977 1.25469345761151 1.3139743547600145
Ni 7.37426136688157 5.24736553837992 6.613200410639459 -1.498366674398587 1.7545094844075848 0.15245407616907936
P 4.13932837323792 0.9689022301908605 1.1137328757124811 -0.5004372053198414 1.136270502885211 -0.4360392986597458
P 9.046232446219115 8.461177548738434 2.4732030842480985 0.7121477531573929 -0.876503980080697 -0.48420377418011445
P 1.5970501563932544 4.400988804378273 11.18328336794066 0.1129004822461733 0.5511097919740444 -0.21389727107622516
P 4.92321152194745 8.946008438879934 6.9577936455153235 -0.024514954422228747 0.07904985224531548 -0.1727501074139541
P 1.7981296042807444 8.02954261866474 9.444832438008136 0.005407801279132622 -0.6976570157403855 -0.288832844042851
P 3.2108287172255174 2.9977977943941845 3.5422487911659593 -0.3997283800438535 0.3482104146702197 0.6928840198317745
P 4.520311378492185 5.603841614155157 9.828669704391794 0.23286609886924414 0.74227799688387 0.597850390563693
P 2.4771124794211534 6.810016311684425 3.0844386667723023 0.9071487015497474 2.1749154474054477 0.719842036477857
Ni 4.342457691253602 2.1790577022994335 8.002757954029875 -1.0105355878785305 -1.609246526670306 -1.8767698106021031
Ni 8.711792474321959 1.8529727814158523 8.85644650156914 -0.7768014845820364 -0.31429962085538776 1.5675622595576422
Ni 7.479545991099727 9.409635984882934 3.7377039078892182 -0.5365375505868243 -3.9528785348502824 -0.4171355197767074
Ni 4.374971925920888 4.4578452468178575 7.986056088088062 1.8759092623740208 2.0736083264238285 -0.37054918737673603
Ni 5.301613887129615 8.562188559787543 4.4271722347835745 0.2676153294249714 -0.7654174111148109 0.049174919062754015
Ni 6.585006460291462 0.7479097582009184 10.30350381717598 0.13133503480227704 1.1366849647148103 0.7126606882380695
Ni 4.314409245079882 6.7471658293610615 1.64875263965338 -0.6924685295609107 -0.05675041741716678 -0.10877848965799976
Ni 2.57722667228918 0.183208972948488 7.686331215884221 0.4936680049168078 0.6969975277795157 -1.1633627311163126
Ni 5.0202966656528325 4.040541105229662 2.6326015344887876 0.3976966943258054 0.38005712686717125 0.02941393438574289
Ni 2.3251201001391566 5.778684554642955 9.100507333466004 0.4082181626824196 -0.3371194469633807 0.8268847743916727
Ni 8.748351542010054 1.4065952585898394 1.885834761908456 -0.8255115481932298 -0.4849416807874035 -0.7880346342936945
Ni 6.608140708881074 1.812533602413676 5.394345802174365 -1.9052746029100156 -0.06207080118881568 0.046951686159190105
Ni 2.468903847702449 4.9067027464507476 2.266685074676745 -0.05217951021703272 -1.1911692118056194 0.1067087516131646
Ni 7.755363337812919 3.788709069257521 13.226628686306563 0.8638945188468026 0.8534776943888528 -0.4574997825263669
Ni 7.442712387233749 6.456349656129525 4.58034237426869 -2.1910606897067426 0.9256488172364639 0.07764294459545983
Ni 3.9609347648495 1.1506634823613118 5.418923195939049 -0.6901776766442048 -0.4170748417421011 0.05135392899194382
Ni 3.7887822789049563 3.5374993152885823 5.880751614856322 0.49456326303756765 0.43225540613728136 -1.3143186254733106
Ni 3.07748649562771 3.39030216791361 9.561277872977833 -2.256462355041004 0.2406513992416178 0.8261489246669127
Ni 1.68501154778699 2.66754907481271 1.638519761183085 0.7296639076642852 -0.3053868917467902 0.14044471041302908
Ni 8.8072487033719 1.4312120025400212 5.244938638567434 0.7650890812411146 0.04970070965923698 0.5106162027353721
Ni 0.017193285700223736 0.22396935927878744 7.329134940202336 0.04629322663958478 -0.017147201203247888 -0.9567339686770427
Ni 4.506520511156526 -0.005053295914234377 9.218947731328319 0.9816227614989224 0.3965363554691171 -0.36582015733218287
Ni 1.924718235902628 9.331484686245554 0.9613918354845727 0.8840537674034968 -0.05758756860648147 1.0550400980488088
Ni 6.09107012025017 7.202282753849686 8.215678147269461 1.5864282432242096 -0.21112793586120412 -0.18670708381467846
P 8.332923397637392 7.27143841705843 7.163106441265771 -0.11392969484163605 -0.7698566778330871 0.005992727248325164
P 8.01529419103261 7.148656687103192 10.719338275091907 1.2304903780027454 -1.1674569557903443 1.5080365933881834
P 6.566365453813201 8.126710123223488 13.308075334199133 2.0481811445999756 1.0558129716590914 -0.27538648872995797
P 1.4572837882329834 2.7017288289591517 7.9931016015331355 0.7506489945563846 -1.5629944376813019 -1.7922229397979585
P 5.737458371930847 4.527723855295028 0.21874585093426557 -0.6524814476450117 0.2731647984882909 -0.6230729125759076
P 0.12326125314594082 4.954536099843907 1.4346546862106748 -0.930613874551223 -0.17213458531714224 0.0784600411801165
P 6.097119067369527 3.3724847699689984 6.822704458705587 -0.5849092570219927 0.11829671356108014 0.9844337485851562
P 8.72779793349254 4.788917574932981 5.028657207389965 2.0980093809760127 -0.8729198622738643 -0.006736033172252915
