# total energy = -340863.7897028234 ev
CRYSTAL
PRIMVEC
9.34377876646281 0.00000000000000 0.00000000000000
0.00000000000000 9.34377876646281 0.00000000000000
0.00000000000000 0.00000000000000 13.67556470835181
PRIMCOORD
 96 1
Ni 9.478329222153125 5.782948797864322 7.255475078359952 -0.5929015311988499 0.9523368680506115 1.386462494627412
Ni 0.7335090614443548 3.211755777000333 8.628064038243927 -0.4310770695584641 -0.2518400688685856 -0.19617234299263633
Ni 2.722216517726825 5.213576292461008 5.500941406546725 -0.5787571213776678 -0.32751817642819075 -1.0645997167127859
Ni 3.7596656224832166 2.549823798731631 1.4358659643450793 1.1163315978694388 -1.4601662520694658 -0.5973374554830164
Ni 0.21008085081455027 1.458405027584115 12.702780391418974 -0.02605633076741964 2.806929114114411 1.6361446366127306
Ni 3.8301270584692744 3.3589016056581285 3.86813381314596 -1.0478124699521179 -0.6563201046648116 0.4309305166782707
Ni 0.06722288225143774 6.863351253797999 5.1023806527644044 -0.7379922250243226 0.33020266523888936 1.2594050041545666
Ni 5.859586471642023 7.585036697539562 3.1055160775831374 -1.0184250179289365 0.17984789480099994 0.4929426967150091
Ni 7.735069753848821 3.578835471225006 1.037207100885282 -1.0149098056868264 0.7313348676088051 -0.24460627012430775
Ni 3.967359137812495 6.836571983736198 10.898700398102013 -2.2303219492002104 -0.9458337768247711 1.0029035252545695
Ni 2.697875973933737 8.095104238852768 0.17607977411256584 -0.33777019317350215 -2.6114522545269025 0.6565679590095596
Ni 8.736012714804984 2.1005468823388975 3.161572209781938 -0.8475477020576629 -0.9803179266445696 -1.3356508112921837
Ni 5.225854017813836 8.051440760486125 9.710430556482905 0.5207275801377612 0.13848270159065185 0.378395165783716
Ni 7.865789219363334 7.868293352083698 7.280761212568342 -0.3081582838443403 -0.7541420953113077 0.28413029636085907
Ni 8.833748641129631 7.266881029150056 1.1908160213441055 1.3520523925786587 0.15468476527181102 0.1557026650133641
Ni 5.97494476479729 3.727018459330414 4.69279704312308 0.4208710755597397 1.2079891115764356 0.7347606054609024
Ni 6.867780204952672 8.245520390093128 0.2881350414594422 0.531618258908336 -1.1847833628839337 -0.1533778735349294
Ni 3.410367139328889 7.061504770964995 2.5701035362550546 1.1233576514782848 -1.4282984568265917 -0.38970287748705146
Ni 5.212174725639907 2.033224956032102 7.218578364605577 1.329601262663994 0.6621968751605628 -0.29560821509347157
Ni 9.536727839698923 4.263827895590193 13.213234765174805 0.5044668953045247 -0.01583619570130821 0.026571579840941335
Ni 7.52074215556634 8.450093083300759 5.00471013289141 -1.1507908079885731 0.2066552448018312 0.4881313913692948
Ni 4.677738609197191 1.8683726665344211 10.918939957376566 0.2213637546565994 -0.8281433293891222 2.1314447778163226
Ni 7.487366177666566 1.2615876707865663 0.3123812130865766 -0.8286891745902633 -0.670079106122117 0.7496645191559282
Ni 2.771364794253368 5.779454224590381 12.758467444354885 1.010932309096317 -0.6823574092688378 0.8505291532834901
P 4.248597536134248 6.206193946499841 4.4065681325403325 1.1960082850654759 0.5546301464224771 0.30772582429261197
P 1.6757226350849406 4.3559014919575985 7.093829573748946 0.9402593680607872 -0.600267741755934 -0.2695783666886131
P 0.4315508336173522 3.5821431689227996 4.255288616138176 1.6698785385300658 0.2579456675456912 -1.535094368836924
P 3.150834339176557 0.8062447731921158 4.734849654023339 0.9537903126676863 0.8127305943784778 0.09569054612579003
P 4.869145918065297 6.9689266105419945 1.0187064188467732 0.5099705987315734 0.012572951569004152 -1.014663236893659
P 3.5832831099372937 1.583555600929461 8.535139223627175 -0.43763749638480115 0.08897970976451772 0.43907140061785027
P 3.058461741887317 8.010440259079573 9.162368407405461 -0.41547021625914254 -1.311186250491916 -1.0108973420933236
P 5.321468906349219 1.9104196711673953 13.120036177838998 -0.5410992018155778 0.4583495321211719 0.9960258242981298
Ni 4.717206730879343 8.364980602144811 12.562195764239686 -1.3064327949673307 -1.1058211852564181 0.6243358384487312
Ni 2.7192358522872877 4.535264669943059 1.3925556808173543 0.3191206963931149 0.3130570066975383 0.5504125087967036
Ni 0.178089620934022 0.4074429499165662 10.687535668945813 -0.3973261983602641 -0.06892099134142969 -1.8034692021357392
Ni 7.4364332393878225 2.611688958214947 11.96524416130866 -0.2917338197397298 -0.42302206046447144 1.5705923046332175
Ni 6.622786324624542 7.103271462233749 11.781403444518729 -0.03361845938539371 -1.0491766972894963 0.368757642693952
Ni 4.945437872027127 8.45242902800259 5.208667071075638 -1.0980433410832122 -0.5582528307767288 -2.5857332524942436
Ni 8.094842613046163 1.711677495935537 5.395980870448254 -1.016621389061294 0.18532254476232599 -0.13265889582002316
Ni 8.039069597345224 4.5030660081730085 10.942078891215031 0.5454590214461703 0.9050900192485057 -1.699132807409493
Ni 3.1182993013694427 2.819186254189271 6.539792078124217 -0.5118372196266668 -0.18863104031026867 -0.5240695000268006
Ni 8.337257610423471 0.5306462797584651 8.69908142906902 0.8478354085014107 -2.6992914229290736 0.7794998573498059
Ni 3.26991145629714 7.169920636466418 7.1880270110392575 -0.8291607149100431 -0.5036739670895842 -0.51752989913607
Ni 5.589822233695668 1.5171026460517472 4.978534470940562 -1.0172559373214998 -0.9871200371680677 -0.4989251395506891
Ni 1.4299532211158026 0.4617760893032955 1.1499743641772766 -1.5714443682208679 2.114955264801732 -0.9531742763502422
Ni 2.9054199888020973 0.2905504082811364 6.839122835350599 1.3251987627209243 0.5770187985303223 -1.0372285237886847
Ni 5.055077772552309 8.684892900950095 7.3150052275193165 1.565828564695987 0.42960459877799556 1.4357957936449015
Ni 4.648922395355393 5.023421049953083 6.872491338227327 0.8976294492054026 -0.13831532277485212 0.5952309506629748
Ni 4.957930504292524 4.252110796965804 13.658538706818664 0.3572658400042686 -0.5332010300144236 -1.3145307414841167
Ni 6.694742765219773 6.296707131806423 5.794623849484077 -0.37674323200258986 -0.9849821648894583 -0.3197521593295267
Ni 2.6611829545573613 3.257259979792019 12.508369057664314 0.1353032754214057 0.09371851000108375 1.5990783278880525
Ni 6.833432474056935 6.140843557521392 1.5378719975846749 0.37513603541647006 -1.633882322941115 -0.7160995387162893
Ni 1.1568812854716533 4.677617140072695 10.84524277078953 -0.13591622641505624 -0.5199454505560981 1.0918276991908034
Ni 3.200197522615669 0.8623289367273383 13.46961030246814 1.2333977814575274 1.6142339525825686 -1.69799535137094
Ni 0.9155296101226195 6.891803060266311 12.068863865148282 -0.45128439774427437 0.3251627888221368 -0.20011821501426177
Ni 3.529332131103784 0.48817039567823456 2.6705229958531658 -0.42469764839468144 -0.5398797275861799 0.749700000379554
P 7.0980669774380685 4.134080183071641 6.602220667469615 -1.631410978582487 0.4534168707062449 0.3988045826780035
P 7.773248434055562 6.738023148655314 3.618759569312955 0.5114816360594611 -1.4354654068886763 -0.48789587831972103
P 7.3499285351895844 8.7220063903728 10.351157763126258 1.5189817795457774 0.38078320639991836 -0.5915468169431682
P 8.918524746248513 -0.10642937812698439 2.293009103834351 -0.4540095099849213 0.4389490161073731 -0.6102428506907748
P 6.435882717141568 2.729112226486633 10.097079861041644 0.537074911147533 1.2757487356199124 -1.6861942449709542
P 7.1563254383017565 0.5344482633551667 6.877837848460879 -1.5266061288602548 -0.16641670899675856 -0.18146717557197778
P 6.421241015750486 2.721665234777193 2.657832275477054 0.6081252901271398 -0.24389767409305738 0.6852483576633875
P 1.18657581452134 8.473742187462104 6.3704202028174315 -1.7606227963941743 -0.4843945500346819 0.7601692753419941
Ni 6.325803659012442 0.3412123769744666 11.879183286603771 0.734462100383877 1.0730869282481907 0.39070637905090133
Ni 6.911060588388215 0.4733520968676937 3.3120846019440133 -0.1414078456572468 0.9241182395245503 -2.057185147870799
Ni 5.134574642645052 -0.22334434483155183 1.2199424486423072 -0.9181072574437801 1.5574354555362855 0.27860191034346216
Ni 8.50631460038445 8.459567675011389 12.397145386631289 -0.3083251484395077 0.6203156615457446 0.3106208864522199
Ni 7.61927230308961 2.3907926834309148 8.18556416462015 -1.1895699856392996 3.863014879818915 -1.4939150663851368
Ni 4.367730715927675 3.5744719265219835 9.250945561743166 1.4367918390095835 0.93441885011961 -1.259851347663366
Ni 5.767681063293149 0.7394012483602556 9.108267928111035 1.3743659684741945 1.9839436747771444 0.32478689353995677
Ni 0.46682266423713314 7.81804250965789 8.696948244367308 0.5497849025150338 -0.3925447178112207 -0.09911859797073252
Ni 6.539981756834005 4.8514114258889895 8.85098978178491 -0.6668729404799933 -3.0206075843116107 -1.0872246532011534
Ni 1.610475027673372 8.2582372730499 2.6407789447758 -1.8636733824294613 -0.18003892776588348 0.11079809119118983
Ni 5.0583107200196435 4.397238369401216 2.172760276851329 1.079800078602308 0.971052956402876 1.803640694716597
Ni 7.335380271586574 6.770660968029309 9.491976745479107 1.7793751373010132 1.0483279761359559 0.48804345964117885
Ni 2.6445323407227037 2.534621470612109 10.33210766689388 -1.890477904216815 -0.7244684795062749 -1.3951949894044036
Ni 0.7027007539608342 1.4275799012987413 6.699262351028876 -0.04691414805303533 0.03274942651687908 -0.8863924428390024
Ni 2.615426469737878 -0.11449492799346958 10.773117207797888 1.54880683332701 0.6837460620862482 0.32660697746783107
Ni 0.8833664547120365 5.957630742667312 3.2078771744174115 0.1650997899575479 -1.1650223782069224 -1.0991016071443975
Ni 1.4164047418451775 0.5710525168328726 8.64113785355114 1.5218570442110435 0.5810142928429607 1.6293399549860712
Ni 2.3823926262831274 5.335998482394614 8.840336005188796 0.08500735538033101 1.2204301655532659 -0.08398071388802957
Ni 8.003684707001876 4.381400664322796 3.470584990608473 -0.8527562428417959 1.5885535170973286 -0.27171366786406104
Ni 2.2918420658613154 7.555762638536205 4.7065688387072 1.3190990775810896 0.26673498370254706 1.025090345764254
Ni 0.23549499479260064 -0.05027233311706473 4.406417697701535 0.9434084552127302 0.8236251298037944 0.20407180034537115
Ni 1.72887004894102 2.2647451073200657 2.873126954866093 0.8099435185516438 -0.12030371668877991 2.971245488938715
Ni 5.253904041793434 4.959855322726834 11.388381682813394 1.4895794151242605 -0.5284987394427478 -0.8004440637016409
Ni 9.132861688309802 3.697660306317791 6.206915286223766 -0.023908688296797535 -0.6146597488115478 0.8076799193284476
P 1.304242021042017 9.099037209027276 12.350703068447348 0.7539333217346113 -2.2624931346161166 2.594333849679061
P 0.029419821952751706 5.918078526975894 9.649601622069321 -0.5555356889558819 0.6171979418523693 -0.5657702221996966
P 9.920476835315867 2.616351503839803 10.680575488112234 -2.204365891456081 -1.1745411163306352 1.5883637696840258
P 5.6940614300702155 6.723615041734416 8.072891273494108 -0.16966169829661748 -0.4909799165616835 -1.7495179447302642
P 1.4828857280593135 6.090489933528704 0.9763454632458728 -1.429224311074971 2.1782105732169517 -0.772356047216173
P 1.5793882755813928 2.7466318117503725 0.9581634040646939 -0.8968655744561844 0.08131345146851156 -3.626901734767283
P 3.2418147134235062 4.701303619349272 10.80840025095224 0.7677874540088842 -0.007749562038431815 0.23501297000891785
P 7.051516271419962 5.0164692785204315 12.732142281943121 -0.0003216450054768654 -0.0574790680530752 2.1121244802211563
