# total energy = -381174.4003045375 ev
CRYSTAL
PRIMVEC
9.15265592808445 0.00000000000000 0.00000000000000

0.00000000000000 9.15265592808445 0.00000000000000

0.00000000000000 0.00000000000000 13.39583711539684

PRIMCOORD
 96 1
Ni 8.373115021458078 8.944194984777864 9.3791090561143 0.059425393146168626 -0.6235562799702293 0.6393168852385958
Ni 4.294307152017319 4.995922293426164 11.46001845469657 0.34113139633625117 -0.024065525589635973 -1.3213925016009567
Ni 0.21301525177208716 5.579669532476931 3.0820735767332614 0.17435756111039005 1.5253694282396764 -0.5079473976539575
Ni 5.011802151369265 5.173273306315777 4.47366076601238 0.8895181329521779 -0.7416614463457937 -1.3537742603657716
Ni 5.904369152297954 0.9617702319994625 8.985846891133754 -0.3269569046080821 0.5165148276079943 1.8028770770776952
Ni 2.300693954639496 3.2505474286897265 10.531151105302095 -0.37203528500395927 1.926140390615431 1.9718628323532106
Ni 4.326378058203272 1.3843025904682171 4.719915718125656 1.1423542471854455 0.9480138151952253 0.18555445826747397
Ni 0.9534962310884748 6.064201981842844 5.9260106071143595 -0.5863812135818288 0.23712873080034 -2.093986890080181
Ni 6.937475184187062 8.749527146972776 1.9952835570750074 -0.21439529375856622 -2.1997204222642694 1.012997419155462
Ni 3.6847219654314642 7.569182340022759 11.073736105086288 0.2465510525555044 -0.19288210227713876 -0.52745127201484
Ni 6.0045815814731816 8.290905866388949 10.320567714195994 -0.6823540668347281 -0.42693425103468413 0.7246160608277327
Ni 5.738788454863572 3.0756310222628582 11.974672294547064 1.772834765079334 1.472767485773244 -0.8580665993111157
Ni 8.693558656297233 3.500625445161984 10.985283008179243 -0.21469097062211415 -1.1255752279548938 -0.9758480637986742
Ni 0.07466187503461535 8.421761387433632 2.443949493863611 -0.30645929887536255 -0.6241661456400864 0.1706160917900868
Ni 5.362312260757751 4.459302079475701 7.5438120932028845 -0.3263020446329025 0.5983227022144212 -2.8014480363951817
Ni 5.694645195578512 5.900964364312459 9.164132390188206 -1.014119191464731 2.242645760872886 0.8676323886226801
Ni 3.5359180862159323 5.541795842466237 2.2164748763402202 0.2096150987611035 -0.4527452985605171 0.052408338398387155
Ni 6.537311916676775 0.13157400453086926 -0.10192763688620031 -0.11168974976752379 0.2915908664039623 -0.6386188307303066
Ni 6.8946499073480005 1.7603852203714148 2.3406279074876504 -0.3539838268188871 0.19865731419801916 -1.0095580544566096
Ni 9.136840085634583 6.297997423513501 10.308833094098674 -0.4520040495191183 -0.062307085569337846 -0.7587132596217578
Ni 9.043986391782843 5.177849634253271 12.37487308794644 0.14458315806143487 1.6510932875027629 0.7626030815944672
Ni 7.286859516902925 1.4177280897236682 11.315115437414958 0.8594627083276939 -0.6779150572267679 -0.17974119401980657
Ni 0.9361061849260004 2.0503962744262387 12.480553313741385 -0.5947185298029306 -1.2892899646394569 -1.2286800642668838
Ni 6.797604297105518 6.161201828805952 2.5861735287706145 0.8326998384115529 1.878216827461275 0.6753794352891078
P 8.731908284413427 0.25933135156186915 12.845670146640762 -0.42269270214951077 -0.20822078951673817 -0.693926602163676
Ni 3.070377397790616 8.764409365425504 4.958201452768582 -0.8752654796879056 -1.816923270758116 -0.5747914518617004
P 9.266057281277641 1.713267347926984 3.462917418222627 -0.4324585232870229 -0.24821429919054025 0.0445819003754329
Ni 4.530546352806597 7.512216209856843 3.300064212238991 0.5445115699312364 0.014601037742626468 -0.3550716605664272
P 1.5381404304149913 4.012808067926232 6.315065296189176 0.07910281697043797 -0.8602885466630991 0.6168698690889893
P 1.74659216796781 5.3521985760158906 11.010547084190968 1.5988171038068657 -0.036487553403072644 0.6384198273456232
P 7.371256156726175 2.513328455927184 9.382712456732284 0.6906150212919396 0.09668273483573026 -0.31466523172492256
Ni 0.14025621389388154 8.183691655469357 6.9467193666207985 1.0648876802668499 1.1221852284367384 1.4369160232922737
Ni 0.7242926768702989 8.864603489288982 4.708824529736347 0.8228887658584021 0.16276111452204228 -0.31555791874252104
Ni 1.7049018204572461 8.130844220447184 9.546141364770456 -0.8018265458714642 -0.20821821841357688 -1.0452357103638772
Ni 1.6810225412794062 9.057230284833949 0.07407610505861623 0.23771211410763576 -0.014254453036485128 2.858015905487897
Ni 4.01440063004848 4.224627982841046 0.29694693667688893 1.1090147524930514 -0.2302767408755131 1.0463140310297205
Ni 7.03357807087442 5.351310768396016 10.966327857862145 -1.2249295960855162 0.31173083168694704 2.511011852420953
Ni 8.968879697672705 3.829773255738251 4.595897231019588 0.2060543779930387 0.26426492489549974 1.4246266644019594
Ni 5.334808529853416 2.180867383924172 0.5714451542891983 0.022603853442444942 0.17047905199159027 0.967745489296198
Ni 5.238687337854307 3.5780294558967456 9.58139922573208 -0.09848276415894652 -0.9549467948696327 0.9849024606914586
Ni 1.8470151082281627 3.9545605659378174 12.926955798732104 0.3537585981819585 1.5845384824006647 0.6689568195922156
Ni 3.2081980899561637 6.220419512317115 5.30803335035673 1.333050140444543 1.6650237815409261 1.4105897266929193
Ni 7.533450371486811 0.8105463905705846 7.414032924489099 1.4780382472538802 0.519129639523022 0.6485139783568316
Ni 6.552514478085127 2.9899347053053593 4.250244436103958 -1.1420644838591685 -0.23992531970887065 1.036185684346467
Ni 3.2412574829766148 1.6830086676042784 9.194487173397597 0.15217176904197016 -2.3058115948980933 0.13626563933467498
Ni 5.48488462823557 7.64746500572152 5.3915028261398446 0.09817963109623092 -2.1346373166116916 0.3074571440122576
Ni 2.1677150174318167 0.3016175369698946 11.314847264597821 0.4729546836288564 1.584891494864709 -0.7370645710037306
Ni 0.7914997136947377 1.7501708564149299 9.805524886470813 -1.0097938246164997 -1.6266161282970049 -0.015687585938585887
Ni 3.9091450874861344 2.888038187449134 3.1144117404707643 1.0389694177391913 1.4496578963389743 -1.949947006116726
Ni 2.0888282764453074 2.259369713363932 4.257263607894486 -1.2533148320964287 -0.2187106333044685 0.7280551684162687
Ni 1.0385244041670998 7.501013359065859 11.989341256117905 -0.018821760692193393 -0.7657848217565586 -0.5108051788177267
Ni 2.1431584417192275 7.179068688663207 3.3350008149794026 -1.0166661262563006 0.19715244751771854 0.17736240937498485
Ni 2.796108911840769 1.9940342195480718 0.90565529882992 0.04045348002935614 -0.1331414918833965 0.27195355178900904
Ni 7.48662538403038 3.1175959494496714 6.917664260545654 -0.8974397017920996 1.2904009383154487 -0.23264961198306386
Ni 2.8093802628594995 3.6981672169118194 8.410723284448398 0.6546686851043176 1.6209918401316923 -2.6442716150497687
Ni 5.880865132010989 4.2853741598833315 2.0249280941885015 -2.3292094049967433 -1.7045902309796388 -0.19640477071841658
P 6.296432319358878 1.486528603935942 5.887135616550942 -0.9535211181666997 0.18052640892526328 -0.5042470659842347
Ni 7.584265916904737 4.616956576922345 8.985579633582205 0.01707572453536414 0.21371652252398676 -1.6575354435836809
P 3.2069899393806653 7.826555023227382 1.4829727971285096 -0.44301393020536606 0.109646751195566 -0.259118861918186
Ni 6.412918170679832 7.970645284667294 7.886933263503493 -0.137653263710821 -0.6892590214846775 -0.009553705126706127
P 4.611858547599978 6.7691761479578085 7.357583004114533 -0.3599822104941672 -0.56042644138928 -0.43044920616647797
P -0.08043262456379438 4.649356978719797 0.9947069794311892 0.8243206132089224 0.30643898716038837 0.32756831293983585
P 7.005561791241087 4.828877171051784 5.229279322880409 0.10326193071514474 0.031539979589810196 1.0443440517875433
Ni 4.823962194846915 2.2175237707034934 7.551795954922635 -0.26502082922491776 0.8488995880998671 -1.771737675360413
Ni 7.773579451022959 7.750972391011743 11.742107885091594 0.15030154860245082 -0.2125343292904275 -0.5977560310776738
Ni 8.277954858325844 7.4124980240988645 0.5953683662152381 0.09050720215263768 -0.5821892869876684 -0.1230581395054655
Ni 7.689979092260832 8.854865063437996 5.366386107887707 -0.06819002671267611 1.0220176203762013 0.29643199654634755
Ni 0.05280533280514745 1.881438246973987 5.891007189986062 1.1485344078542286 -1.000271229838045 0.29582778730344533
Ni 9.12194871452598 1.5728747594605652 1.1355306579893198 0.7998233993985063 -0.5566397206533381 2.1677371844894537
Ni 3.6912752670379545 2.387406216399119 12.25728434159255 -1.2882347839020651 -0.5935664184763584 -1.5898691505849587
Ni 1.9429349417980217 0.5504150968852417 2.6867493183840794 1.205992649971697 -0.03525188122375864 -0.5129394515519101
Ni 3.1741868207247133 6.056294087166856 9.010308279225242 0.5273016338108532 -0.16150307374522507 1.0646071729119535
Ni 3.9429275403207096 8.556085765054934 8.658773987644347 1.1223433512811574 -0.17615707621297405 3.324140453568798
Ni 6.958864940966905 5.3381492492477856 0.13003910414063402 -0.9678848430875395 0.3621817892486472 -0.23042020843191285
Ni 0.9936763903796657 6.085426990816939 8.121172608984086 -0.0812625436259181 -1.2808953128178586 0.8070119467271457
Ni 2.538434190992272 7.640060507118655 7.261896563269485 -0.8967051376189202 0.0668013738952656 -1.8883120069137478
Ni 1.670524444990797 3.593113032778723 2.193152993905167 -1.0230977408142574 0.13708582124312518 -0.9386585992325706
Ni 3.6924925702693274 3.4631544720097893 5.7626613271823 -0.16606935295966882 1.3205260398356033 0.16468429968668413
Ni 2.163870901964322 4.609652757534105 4.201041588651205 0.24958906805087983 0.32457040665377646 -0.3390022658083904
Ni 1.3549042597977603 6.555974182005873 0.9306539478212709 -0.9248088378336718 0.04958860956140492 1.1384716243015878
Ni 4.557262955305682 0.0245153887611515 6.670015358942617 0.7326512724273834 1.3666140924429173 -0.20832183387097672
Ni 7.680707451859471 6.742761583102598 6.151033228128842 -0.36959505099358286 -2.383755872784056 0.13340065908205412
Ni 0.43846438655034364 3.644377058334523 8.5206896989896 0.529546721091288 -0.019548354445572787 -1.0639973072420965
Ni 5.25396312050966 7.214114208008531 0.873648461235092 0.1309228869655229 -0.2956339261250844 -0.9597807259231664
Ni 4.127152197772439 0.11884632127111297 12.908442721693769 -0.04003336177280202 -0.6357607924562213 1.0493312205894896
Ni 2.998071416378222 6.240994682724085 12.88648733078085 0.6271877060752294 0.22794115076380098 0.13584783507096607
Ni 7.717665876282666 2.991994052877231 13.482508281359976 -0.5978331641725123 0.5432620137948514 -0.7419931186535995
Ni 7.9885478795587685 3.73135474711452 2.5582167414004684 1.1284522923923725 -0.1440054311810939 -1.1668918273154936
P 1.3438020882214017 0.6933759205901817 8.030241888131682 -0.09939319178835786 -0.7165402257981337 -0.22406007054183993
Ni 6.106853358220282 0.21714584536846862 3.9728567250319156 -1.1324063919441143 0.5511133915184702 -0.9155202134428941
P 8.15746929638752 7.2263421562575125 4.02440448291984 0.6043560528926946 0.16240938760957835 -0.8096794662569798
Ni 2.621100978855151 1.476360003258832 6.375319975610974 -0.99778574441203 -0.4763271996455151 1.991131193664519
P 4.31317992843154 0.649960297447183 10.856401715006795 0.47752224839488083 -0.054621029778989805 -1.1122090910606328
P 5.6299359185423565 6.817419797074863 11.916239908909976 -0.06460050958920487 -0.5200511228960271 0.9205631751834404
P 8.227358976648919 6.890824097192255 8.47577395554869 -1.2109962738338755 0.3344485849994369 -0.35515959229454314
Ni 4.505925708502883 0.518216053517039 1.9939573372387218 0.02646667883196087 -0.457475871266967 0.60986926940144
