# total energy = -381163.20942414366 ev
CRYSTAL
PRIMVEC
9.28741654715222 0.00000000000000 0.00000000000000
0.00000000000000 9.28741654715222 0.00000000000000
0.00000000000000 0.00000000000000 13.59307290320865
PRIMCOORD
 96 1
Ni 2.6551981272037404 5.822402248120545 8.49183705634086 0.5196034938356471 -0.4103619484982997 -0.38574774949404533
Ni 1.9108302557728318 9.120902578530021 7.3492033969543975 -1.285526898052599 -0.9538751590720088 -0.18028703922094758
Ni 2.4217124720685774 4.9219593395159515 2.455330134196372 -0.9927561524079225 -1.1169754021010248 -1.2628916771515863
Ni 1.7331526874199754 1.606918120013566 1.196361364834231 -0.6081332605469397 -0.03945512067182882 0.7493073929268256
Ni 4.478169421259045 6.473245833663979 9.929359197448031 1.150892880784076 -0.9291686574642644 1.025384737076221
Ni 6.2397230288621275 1.2305548467956922 1.3632497412391746 0.04589881941464353 1.7173027934503005 0.14218586147385193
Ni 6.644422210346405 6.263136606292348 11.3073434252374 -1.1833157771994718 1.3643967730766244 0.7743687067708277
Ni 4.334465223092522 4.509449440610486 3.7237404913473116 1.8941047023361248 1.1290732138058233 -1.4414465641727756
Ni 7.811358252938602 4.916117554429236 12.930750424810514 0.1829123926589366 1.439365770384347 -1.8200654159315235
Ni 4.349780173184721 4.804324919947854 12.378097123290587 -0.9601931308702367 2.9077554388048696 -0.7941957687990839
Ni 7.461445542402707 0.858644889872063 8.075372575416438 1.8670482124389653 -0.6361564852327432 0.8249430772842695
Ni 5.770949959757425 8.609611715900705 8.889543741812755 1.6791008284592825 -1.767122802296221 -0.7006873179262771
Ni 4.88890542358015 5.549528658879246 7.56969688490704 1.0813689657513248 0.6076689193160115 -0.07607637143928833
Ni 2.3900516686335824 1.4692878923505597 10.055082028195809 -0.09044729544897971 -0.15732014601212904 -0.6736372557870205
Ni 2.3272687319305714 6.7278789365613845 11.344900809517476 1.8713075019359515 0.5058761169472256 -1.702783773898519
Ni 5.023702989158184 8.762491881739207 1.3215353092566935 -0.1175544360784169 -1.1006010745080594 -0.6182263831168837
Ni -0.17437682046761208 5.266002402715115 1.4036072816458707 2.068385644572309 -1.0937405999428003 0.8397770569733085
Ni 8.311773550644956 6.430319393805796 5.35722062304292 0.1425671560726706 -0.31433098831395545 -0.5433314335802062
Ni 2.419697102650744 2.0669888796965643 7.151941453065205 3.1589447614633337 0.9812252689501876 2.602837259164382
Ni 8.71832092804697 8.108397700360557 8.322250685392687 1.0890619635202083 -0.2970719441231916 0.8197684750618657
Ni 1.0974661658853146 5.007208537148635 4.559850393406329 -0.5271869626098598 -0.3612466790288875 -0.27950153933959604
Ni 5.902125432833362 5.932272387350813 5.004208701563565 -0.5915833266080586 1.2523506684109462 0.06879269329368153
Ni 5.933321865434754 2.0308143917589563 7.088135043044933 -1.2105082784538637 0.7167901370254107 -0.48207335810067303
Ni 4.104945294876321 3.3025960811618478 7.9976201805214275 1.2416155413816294 -1.062534092433009 -1.3576471130576169
P 0.729699325539084 5.682914537123129 9.259016680601642 -1.2352659450145178 0.4097659667855137 0.7510434017813259
Ni 4.015776807408036 4.015897543824773 9.924262263178413 0.24539199925039676 1.5054567484761492 3.014335892370286
P 4.347662642183495 0.15908508891709316 10.054293526520354 -2.410415127242797 0.22644605427551323 1.419957026840432
Ni 4.140061017313316 0.71012052245275 7.826592402505755 0.13715729791100897 0.13356083880900224 -0.2346229336593508
P 4.361519467858184 7.20694246333871 -0.0721530113834355 -0.46072163189777426 -0.6026444695182267 -0.030980250431598258
P 3.318839772921251 5.9898265084674644 6.055292579847029 -0.5832642652194019 0.1482914601509575 -0.40351458655916306
P 1.5736505934943077 8.708894200124845 2.503816950416107 0.3887680243776078 0.8569047177925307 0.4386487112581349
Ni 4.272685327390091 2.1445573837414678 11.408027380637353 0.02615711801134205 0.11453776073928017 -0.383575681543391
Ni 5.615543616584128 1.800978691375906 9.723016017536914 0.6381822574135203 -0.05632592828523848 -1.5719218220779188
Ni 5.148767342063915 2.253591655471254 4.387667260756654 1.126617296066163 -0.9922848691984587 -0.2932461426191982
Ni 3.265855060807245 6.686782117787594 3.65426689967376 0.5208417371181224 0.08422599712961623 0.5846799146200059
Ni 7.3977895885325236 4.499354018687975 3.2908967223800754 0.46472483951989646 -0.023655177525094745 0.8548308659826375
Ni 8.624192960075813 1.4686191983501724 0.1516440106794522 1.0326948975843893 -2.8038427618796034 2.085069532985893
Ni 7.922965139086544 8.686260765695076 1.6923103438629987 0.6619721607442665 0.12065210116713412 1.740181497820687
Ni 6.964773073615187 7.619591673494257 6.970609286251899 -1.1976064827905308 0.48035354719608886 -1.1080529028004142
Ni 7.556316503707627 2.859632742988753 9.633845672585293 0.11004218686177178 -0.5475308163735345 -1.0002889704498579
Ni 2.0826660390389726 6.756549191827982 0.03432722076153843 1.0881008851585194 -0.8815775379488623 0.9022589775576139
Ni 1.1330369717392397 3.4881215166025803 13.570399887039134 -2.280260485901867 0.9208786495413301 -0.232975884974231
Ni 6.978360564206386 6.097569829279837 8.945044415103219 -0.5942868415821506 1.7931421091781183 -0.629416081185116
Ni 7.83771594145386 2.424879481153744 12.033172684249246 -0.8621847352445474 1.0659829702135577 -1.4115523477165044
Ni 3.324681558007966 7.934063602009635 8.687632517137537 0.2878403982225946 1.249562821253164 0.05790355718500351
Ni 7.796377649846597 3.383573067125391 0.8277512270541788 -2.2390480162192987 0.059816972157632466 1.2773181369895614
Ni 6.998337797467951 6.021886670819357 1.352740100533091 -0.8465706828563743 0.9757830148886936 0.11847077724509919
Ni 9.121069752030117 7.059058927669769 0.04509319416777077 0.28138564373618635 -0.36792511949032763 -0.34477542084674173
Ni 5.538393046289467 7.440270232390448 3.141508625210262 0.5129697905692133 -2.6927135126012405 -0.7417393507715806
Ni 0.595662399386491 1.7045660189034268 6.391191507366479 -3.632126730611648 -1.0400937611516217 -2.685043397650492
Ni 2.8821547284184574 8.935962250339626 11.75997960787443 0.35398614081173224 0.9677634870183269 0.45700895893287746
Ni 4.098146905872386 8.070347154255195 5.943747919390789 1.8836228289681949 -0.21010078014827038 0.9947870667950223
Ni 2.9346007703654844 2.8257429595524677 3.9009945534999226 -2.2173430204420392 0.6371903258138961 -0.12449847149641785
Ni 4.127495142556042 9.221847510338458 3.5298768132184186 -1.5082708208861768 0.07392332965202753 0.4002929942980719
Ni 1.9720064693915793 3.666699964372625 8.855479354943036 -1.9434043199022013 -0.3170581574371314 0.6783092073413931
Ni 4.727295086069929 5.114199577210571 1.463512047922216 0.03915378738132611 0.7634129790902723 -0.7915850706491141
P 2.586731291497439 3.3437486244356704 11.84852490968402 -1.2832355309152612 0.6841782645276604 -0.8328875289423269
Ni 0.9433600610461039 5.262640357879835 12.015243326363866 -1.5597929000248685 -1.6136819367338402 0.35182821392846503
P 6.799744966769653 4.218437526608688 8.053487706770435 -3.4521040007956807 0.7663548353274157 0.566004963918322
Ni 2.832717809473172 8.985547767951665 0.5917078173675351 -0.7677350035043939 -1.5869969712434862 0.632527373120588
P 0.5367012346440255 1.9425189214578427 8.522381512291876 -0.11056463502414507 -0.3125157894820876 1.1401469551214818
P 5.67100806894957 0.32488683757140785 5.653861640289644 -0.4786147101281112 0.42906518133475785 1.1026960093638751
P 8.812225998017997 3.443904125826983 5.206691102364114 0.21285186053084632 0.5955140291210326 -0.3814650629582914
Ni 8.504682482339962 3.449903796997123 7.463168358195371 2.5429246419691496 -0.993398671087928 -1.6204097423759771
Ni 7.0106436245584085 7.945849333766458 13.410735263321707 -3.806842703502721 -0.7946835070687799 -0.955131142966297
Ni 1.318228060179779 8.461310246481522 10.178914869650828 1.120243017108703 -0.3911146702329135 -1.996975311150122
Ni 8.951240050765138 8.699021676202463 4.169063762096773 -0.2843755796024457 0.5140139155630116 -2.0900348474109682
Ni 7.763490907410892 1.9065301818536757 2.8053923721406866 0.6480383242719936 0.44755706949135826 1.2764825284621437
Ni 9.195434097323167 0.8708810613374798 10.362896736440668 -1.5389402249455755 -1.3077653977358252 -0.6987402215022354
Ni 0.7987206200207067 1.6150353221849316 3.433230097845804 0.33429611858197267 -0.4146034973834731 0.897232727987616
Ni 5.590356142569548 3.1287820781445617 13.35244836502963 1.1063333490061462 0.5087876341670657 1.9583434577105368
Ni 3.8894122161682176 1.536473064556119 13.434033676785193 -0.3817183166196781 -2.2373737138406695 0.28814944482258115
Ni 7.705769612794144 1.5387670564741138 5.470871669600379 -0.3335211880891611 -0.5732243644848967 -0.9485180085251534
Ni 5.124202124966361 8.170214745729675 11.679399194602782 -0.18579614196463484 -0.6845747286351307 0.3955999596977768
Ni 8.142482519546954 4.89085578108128 10.42864607402873 2.414795772808996 -0.024172740591461597 0.30040512226148264
Ni 2.049073452936193 4.186563112590236 6.478430998391981 -1.1594857646594097 0.7204197633581979 0.5276731582176589
Ni 7.205270728337743 8.795638671841727 10.889614926903915 -0.032614700711227705 0.8215607910755979 -0.6093388508192666
Ni 2.114001782890446 8.180031545152024 5.021743344240382 -2.6574084095420427 -0.14643152412408328 -0.8755953522234985
Ni 0.8149104447634121 6.704734694214653 2.9361174055080292 -0.2589435126825863 1.1775310521968947 -0.11184710128099445
Ni 3.3087722132487563 3.582323783907113 0.3205106068355411 -0.45433886829988207 0.6161545881895195 2.1038249592165252
Ni 6.093232605693993 3.918658291268481 11.337805223180036 0.99318732640807 -0.22966430410249478 -1.7425898501518633
Ni 3.900417804924589 1.8343390920618847 2.05634642893207 1.1063397767640495 0.16272331930557138 1.0253469418597503
Ni 4.195246847178596 3.912175674431395 5.808890914346056 -0.10249548486276543 -0.13044389044657534 0.45345955101872226
Ni 6.4772672850829744 0.012547299923930203 3.7649004645544717 1.433105648407248 1.0913420178036364 -0.4977231488227879
Ni 2.8838357508360972 1.095395071967449 5.275662244795708 0.5709461099736812 -0.9269526236495521 -0.35564964455708425
Ni 0.32968100205751644 2.9622029727147967 10.657744353528019 2.345321737177574 2.688361149169815 0.5261495224842809
Ni 6.482059592085748 3.8985696090068522 5.817645233301123 2.25847758569882 -0.06663733751357556 0.12703409343407798
Ni 8.958762858269493 7.354835286424325 11.116809285985434 -0.0266440849500896 -2.058116658546133 -0.08193283022006534
P 0.04503096847606808 8.412449147369902 6.12830096230596 0.26134055215985313 -0.5294698451067655 2.60526875142401
Ni 6.099213702030788 1.007359649333153 12.692110253422367 0.272925171673659 -1.3584294997495958 -1.249667208041512
P 5.795654488105059 3.3640416298640847 2.3163411574742456 -0.3568560061603596 -0.7115831389031746 -0.4685863793578317
Ni 1.2251960073759234 1.4371534306652904 12.390004520205812 0.7269449660712255 -0.7187071515424654 -0.6442474897709938
P 8.61504485465385 8.865721518048964 12.613107772243298 1.5055120271941167 2.1976607115217637 -0.6646497075764296
P 7.803956181850984 6.824430920283945 3.2781330256476857 -0.5804787320544648 0.12769460983621234 -0.29189168547383276
P 0.23776343925430612 3.1843951291767554 1.9702882973072515 1.2574465948766151 -0.5817665976279529 0.9698504514543425
Ni 0.8786258381002965 6.388340270448162 6.887324377245352 0.4870281310027871 0.40964666759883 0.5537832250411495
