# total energy = -340890.3551718389 ev
CRYSTAL
PRIMVEC
9.07741916686119 0.00000000000000 0.00000000000000
0.00000000000000 9.07741916686119 0.00000000000000
0.00000000000000 0.00000000000000 13.28572051029334
PRIMCOORD
 96 1
Ni 6.438558865547272 2.3316621660974635 11.217824532520448 -0.8633129353117196 -0.8014591352297165 -0.012385518148546411
Ni 4.93081771667294 0.40837220486227294 5.827701212712324 -0.8769912041297606 0.6719398134799396 1.0994589904838161
Ni 2.790906950525032 1.6954258650908174 4.608749981142251 0.9112652948212823 -0.7921499420136486 -0.27190984303526716
Ni 3.4579792440344543 4.204851128386357 4.395208236770289 0.08708249274180485 0.4273548835118705 0.7905054644316901
Ni 3.769017007681091 2.7870399700109956 2.4469771589614666 -0.033752156749780576 -0.1136504730383204 -0.4378079605243944
Ni 5.375620327396676 5.011978920372475 2.405565973268895 -0.3680634448404049 -1.5529010580010416 -0.5120315950256601
Ni 5.056712441436261 5.000114733678001 11.087982945955476 0.20042006252539676 -0.5480242110701852 0.13485127548565162
Ni 5.783750165170393 8.043174230491557 12.436510703454347 0.3425583585907649 0.041655984977889554 0.25654081677836466
Ni 2.0077526222421325 6.668326496465808 0.2385464028789237 -0.43259787707836467 0.2429221975536655 -0.18947564769875108
Ni 2.6656294902569093 1.6511189827222421 0.17839034685422622 1.7636021907374724 -0.8844237491484059 0.0010844913134303903
Ni 8.175504845359226 8.977467585907581 7.015033070515863 0.1772243411352238 0.6397765984838336 0.308949669397384
Ni 8.747055458236703 2.465735645422163 1.4210272879437262 -0.5462511783301626 0.1761848441271159 0.0674184386539742
Ni 6.923102416858926 0.7574951878626471 4.741713292117499 2.0335739362097622 1.374644933167194 0.38801751936482853
Ni 0.6259606626454035 7.48238943660386 2.1678174755242057 0.8027557425539529 0.051814413568130116 0.29845982560965373
Ni 8.130090517866911 4.003795373913591 3.714700455329351 -1.9557864956166382 -0.5246816796895029 -0.7912546838928889
Ni 7.733534389378163 3.9466257887553673 12.364288942032331 0.7405766979220472 0.3176076021826982 0.7088158605706825
Ni 8.511696137185194 7.371109356506265 9.164516882790773 -1.312587758825133 -1.2438655137580708 -0.043081147460190324
Ni 7.097080230314388 0.938387271406236 0.2385972364255871 -1.36103659835514 0.009202749545190602 -0.23815434385137696
Ni 2.017047899346296 6.554268726139821 8.914970463510652 0.12721484198631638 0.29233031567314816 0.16823345049052316
Ni -0.03383154078829749 4.973136644270214 1.322066173234861 0.9281127053959242 0.01192991866836655 -0.9480258993800834
Ni 6.594944640889582 2.239526362770064 6.838106911353923 -0.8737819531638437 -0.4246246290649009 0.04591398892329512
Ni 3.576993285160124 4.44439513961855 0.5183623837132849 0.10960895597909509 0.0694552665783449 -0.7533782205620896
Ni 5.89532980009654 5.825624299234363 4.751385282112113 0.9622885799466847 0.19706194468644125 -0.30498708520521023
Ni 5.492827962131985 3.1797018857285657 8.94685671339717 -0.5661237488843733 -0.8012017678032718 0.0014295333576749576
P 0.5008121017277485 5.5221389482348595 12.358164407401297 -0.9270852925726744 -0.14560002936172345 0.24055395443180505
P 3.9860580970956856 6.360102732723753 12.667110733699497 1.4361495774398942 -0.972260346447416 -0.9529145949309525
P 2.3652667714095856 8.728119962104591 1.0669970522065253 0.66965718809335 -0.7895140470526983 0.49603984758309405
P 6.6100857758600355 7.884954816501746 5.9777500418179 -1.3201871684389457 0.4168879225422756 -2.018083039663015
P 4.794792592253128 1.3089184394871363 12.402857987821276 -0.32402147612884197 -1.2384517989416672 -0.6304257533965529
P 4.123662692429681 6.263854858568046 8.182396421899734 -0.16894204652177355 -0.3631536662436133 -1.0323387997965512
P 4.840352158450194 1.233267229149151 3.696007326285793 -0.5352995644146652 0.5199158828697433 -0.24837062226274645
P 0.35473282797144146 5.817145989844433 3.437069409259611 0.4879483288242112 -0.5290065323171018 1.444900327049331
Ni 0.8591994986075261 9.096935497985601 4.5583575970445445 0.3937870748587541 0.1469082066501857 0.8118381644711955
Ni 2.2754729421963207 6.388170112417184 4.912408710845553 -1.5640249358283451 0.2708122390957142 -1.1939830271053309
Ni 6.28211862569068 5.933881598789296 8.869839351492606 -0.41582014339939355 -1.0301795873617032 0.1083509152022779
Ni 8.641357990853034 2.5730488933962046 10.09746587244593 0.8581815276224253 0.9444165847622703 0.4424151202791026
Ni 2.63348634941136 4.857916964306206 6.825910491122327 -0.637317852530696 0.5336484019644874 0.1272590649606905
Ni 0.6019672286202818 0.16901972717197253 9.217898460980669 0.5021744997259222 0.7377340862669294 -0.0400619010178923
Ni 1.4009180815288307 0.7946300014421604 11.69871442266567 0.3260706453483868 0.6557647463819738 -2.7337321211054473
Ni 4.091828183831731 6.992798840302056 1.5754468943204487 0.4687959242654765 0.9920339295299172 -0.6468119080640602
Ni 5.646998847226818 8.0730389391563 7.899596693424612 0.5401193544008117 -0.07687212786770632 0.6332992182896061
Ni 5.707527077432445 3.2211584585163724 4.4729962715519465 -0.4996298789271976 -0.5520958100363976 -0.3592103653251491
Ni 1.1686541603723597 7.784104690889192 6.747498837652139 -0.6664325105084652 -1.1792318369380852 0.5430462982396196
Ni 5.10899837514718 4.640875874891612 6.929765242439448 0.08179244798745913 0.8068823631278168 0.2751589461001842
Ni 0.7524000325515466 7.462682359852749 11.397992238024083 0.6722632582576293 0.05346249069451438 -0.7770765926202939
Ni 4.860522183572705 0.34028611555808613 10.290175847846852 0.2430864910456717 1.1131262035582636 -0.14671794501625054
Ni 8.342048252615166 7.534058105819581 4.695226921435731 -0.2775397876275349 -0.7085448662974829 -0.3264817647438764
Ni 7.795950722745572 6.380154751398653 6.86734890907204 -0.5938368985289256 -0.7876983340001982 0.30987963741082114
Ni 2.1688495780698536 5.284900601440613 2.306228145669578 0.8499773945450781 0.2882913697170842 0.8236981491335749
Ni 2.515488979218959 5.4474136346396715 11.238045391189623 0.21221602671906034 -0.42527100439964816 0.9444939749674249
Ni 1.2757767825464135 3.320374648700459 3.5165440285002068 -0.09061236027193427 -0.3376089850052895 -0.0261000395211615
Ni 1.270666195622933 0.9647844059950124 2.4311670182072462 1.110401862648565 0.7291946813373507 -0.37471694560118046
Ni 1.2517397769098662 3.2656741215230296 8.227687296493007 -0.0732872387299254 1.0499624264155851 -0.7971741347011174
Ni 3.9429403566222714 2.6296193688973233 6.735050065171036 -0.304084885105915 -0.48725593074287704 0.2568611762322609
Ni 4.287482873971513 7.151172570415667 5.764435232922113 0.12114755274631393 0.1318500267654826 1.3096939822171059
Ni 0.3226831845420769 0.10327107327239714 0.25172590759331304 0.09254505851827287 -0.47883093990397535 0.6222208489882574
P 0.5259111653927988 5.509575800273764 7.62876644970491 0.912498395897435 0.9263666692390949 1.669498786593144
P 8.759155657826401 1.8171358996734557 8.038963215795638 -1.039996316341809 -0.8480490671741135 -1.4206921052342436
P 1.7181829546417329 3.213270181364499 10.31106117359027 1.5343412927209834 0.3536840361902812 1.047094360839171
P 4.037490753416183 6.267177193939261 3.598251692826374 -0.5753007873979511 0.05346351913577889 0.8797217156870463
P 6.974998021550822 4.202572696205552 10.130827202927591 0.44006436065873894 0.5924384755195022 0.7506060571335911
P 6.383894648046031 7.678897404134062 10.072077239113279 1.2455272177312098 1.5794512976857444 0.9755022504234813
P 2.7710455576501203 8.772572083177918 5.713803204961565 -0.2864427465441196 -0.5891826875863659 -0.7844155494838685
P 7.141895448149597 4.086844680774909 1.3863116065402474 -1.5269151754602412 -0.27546953536206753 0.2460221766352279
Ni 5.525960541653661 2.909340036831691 0.19206093993906015 -0.15471407584784966 1.8097403798564315 0.6637230819971021
Ni 1.873615600984104 1.169271424867558 6.99534324086094 -1.4580600043597405 1.091037084968708 -0.2989393363492336
Ni 6.965938757341881 1.0978866014816788 9.183687484076206 0.03244809322637637 -1.4585202318256107 -0.7092452347986172
Ni 2.751928513137066 1.4628260794296057 9.251511235969932 0.7778134707863185 1.7637698266635882 0.1388097459127674
Ni 6.360184429495176 1.9895705518909226 2.303691007045932 1.2360928117911874 1.111989004630027 1.1476543192421202
Ni 4.180523645340305 7.184577472508754 10.33369934895167 -0.06611308957898936 -1.7715445855130005 -0.9437655814418326
Ni 8.137325220847398 7.03879412261338 0.19127483544958698 0.35738899584569417 0.8595203010385067 0.10425951874172368
Ni 7.7649785689570905 3.968420671887297 8.056686876484973 0.7241478629420626 0.5398794704758638 -0.4509486116714105
Ni 3.503656816679132 8.497989234424171 12.201672426256136 -1.7069147653477572 0.7338596909131877 1.2952029876897824
Ni 0.46772037059178434 5.156427889667935 10.138213498806163 -1.2550426134208126 -0.9612002319785122 -0.7948573136424827
Ni 8.618746140006872 2.3957215123123863 5.641182944843384 0.8730453321081352 0.26403352561098403 0.36853832759429433
Ni 3.6940466037716333 2.9105019464697115 11.26552001541928 -0.13953325434235325 -0.2931312143078887 0.4754170291264199
Ni 0.9898017728886394 3.1586785832156337 12.592113097532899 0.27036795246944406 1.0014385106732688 -1.3119848351338115
Ni 3.226659374458875 8.538238510478724 8.02533256335461 1.025316088621815 -0.9135895720790846 -0.5526611956215642
Ni 5.710377387013214 8.319817653368979 3.740022823502958 -1.0499194889927919 -2.635149855254159 -1.8478032481664242
Ni 3.0290530392239816 8.53931872334532 3.3947541126299545 0.7461814457033343 -0.5060504377415607 -0.15089367366049497
Ni 3.445997050892369 4.339505562530067 9.22123350473855 -0.379632637735243 0.21591481572688623 -0.4907734569778322
Ni 7.402353832866158 6.117172844187016 11.269705613341868 0.6711299159841344 0.44473219844805345 -1.0127431370528106
Ni 8.024347663388008 9.043206254646204 2.2282413154107905 -0.6065633449566586 -0.03192384529179018 1.1073828733165831
Ni 4.776810225120952 0.5938892334103258 1.266889081557462 -0.7939373729313747 -1.330791169207037 -0.04165752763978632
Ni 6.212131724838044 5.736592973221049 -0.10380210228664864 -1.7888779345851256 -0.9696658462473622 2.0904251408708516
Ni 7.887886822853938 -0.19102066771627002 11.531234225764074 -0.3196169193032431 -1.3733524396080157 -1.5686714334614211
Ni 0.2290387141690598 4.918354420321362 5.561987002367532 0.34267791488776467 -0.08865240833208603 0.007229427868903678
Ni 7.395382375038035 6.233254878960493 2.7706842763720485 -0.3762104994275714 0.8519118925636295 -1.055300550799047
P 8.585350315332832 1.5236084773685488 3.6204387204611352 0.007752390251909229 1.491506456943644 -0.44861610688349196
P 1.7825872427804423 3.1423029192547838 1.331959652254224 0.5530599737218798 1.436150862991475 1.471467536014898
P 4.977039934460439 1.0590170931222773 8.067846655461397 -0.4922852656366683 1.6260944514655802 0.1279586621308764
P 8.447890958703589 1.7149967805562236 12.083628761226596 0.4742736595505961 0.6707745895272448 1.1695583184040632
P 6.381008028789073 7.9362240792793965 1.4449417484231386 -0.5759849579491693 -0.6588428710866654 -0.7051245277620244
P 1.717965096584604 3.1346415775790866 5.800558822019787 1.0331810931921883 0.40948725920283024 0.03374650032282575
P 6.941765590419628 4.303386512141916 5.834849680211864 1.8429590327002452 -0.6823095867500378 0.5380591294376733
P 2.5384276171508153 8.619889894806798 10.104627048332135 -1.1723968162941227 -0.5660342744943607 1.428517000595301
