# total energy = -381170.4083417344 ev
CRYSTAL
PRIMVEC
9.22736576590054 0.00000000000000 0.00000000000000
0.00000000000000 9.22736576590054 0.00000000000000
0.00000000000000 0.00000000000000 13.50518251481866
PRIMCOORD
 96 1
Ni 8.55636084028659 1.9372854166300935 0.9391068336301635 1.2378231642187327 -0.6459300196797393 1.179617245301962
Ni 4.901281353563103 7.321665498403097 9.034629042582674 1.4435024182605398 1.0471074734652934 -1.1594610820690614
Ni 1.186620766886386 4.638384479044371 1.9312276510858322 -1.3444051604460459 -0.021126754676286195 -0.591722166178768
Ni 7.760454416798005 3.769886370046715 8.745037399260365 -0.5797284841520016 -0.19431523517923951 -0.38508466198874974
Ni 5.460588894613909 5.662926568421313 10.341242472283339 2.220364323766866 -0.9319161383024143 1.997057329340967
Ni 5.989898269961143 9.14969890582671 0.4985610248169354 0.4188180496854529 0.11744670685595904 -0.5865529632730027
Ni 1.1481149700604876 4.263079836269444 8.703576999955757 0.5057768723651999 0.6398403618422336 0.4760176388248962
Ni 2.8127225045908624 6.155289571736223 1.2702557635963259 0.11612567405169033 0.09209562968568011 1.4340685265411495
Ni 4.541663232380324 1.7212820143062362 12.971228073164465 0.7885048890618936 -0.9497282267831707 -0.7015676636487014
Ni 1.2821516833825584 1.1974260120536824 2.3623938427235207 -1.0965482445949244 -1.7519502083208407 1.6922653908656986
Ni 3.600305844269969 1.5642137963406375 1.5097981756740455 0.4935091107414403 -0.1555399141832547 -1.540207007473141
Ni 3.282063230627886 8.619328383430595 1.4936327538050564 -0.19095274646490984 -1.3358680695093124 -0.14703110538129516
Ni 3.0693263157414523 3.4975222183788395 7.597745510215183 -0.2066920115770376 0.6992133044839118 0.7863711305483424
Ni 3.4055346102893638 7.127180312757408 10.948583987922424 2.575211269916997 -0.7652443758720563 1.667997005236637
Ni 5.160007458811454 8.154509066558367 4.683921528489806 -0.8038466616252865 1.006009674983719 3.3380393230380765
Ni 8.655010606369908 8.814311846820976 1.7752021254378292 -0.11152519916520148 -0.7674046167481687 0.19793843375412362
Ni 4.48683422573295 4.248454461726178 2.181356619765122 1.9529778225232497 0.7268567772327934 0.9859252455290182
Ni 1.066212872618198 1.0912743977030626 9.596782303197607 1.3803214147266807 0.5805067570789227 0.25831693484218093
Ni 0.9461556182444226 5.660804274323552 5.355426453860158 -0.6496118394067005 -0.3406495716038262 0.19217402046652063
Ni 7.536690799968855 1.2850490761942843 3.076237612607639 0.6514784603017942 0.04891138098872221 1.0470758488964096
Ni 7.312548861148367 0.13846123514762024 6.153704310318851 -0.10438910234105248 0.6832884057235393 -0.34079252493959367
Ni 7.532215527632273 8.0714812305077 3.975102059197997 0.6983586697931005 1.096135068316906 1.0506491680699648
Ni 8.230727106764913 5.504677247653482 10.16678251555487 0.1258920094098348 1.3405531336898073 1.063180467767756
Ni 3.421627135969778 5.096938414645382 9.679583146053469 -1.5669377385997658 1.825844741617462 -1.4090092695796765
P 3.047236002393453 0.7800252044813843 10.698333218016653 0.7836604164853987 -0.24457130312131428 0.2614945612392142
Ni 8.422886996268709 8.364763820086985 10.480737172382911 0.3812706875592982 0.4770553360607913 0.36614463055113716
P 7.168731140245311 6.911546005059248 2.349442312307793 0.06439790666009555 -0.59055848488797 -2.116195822077052
Ni 7.993888312820429 1.7596955374757104 9.9745626481744 -1.4726607849920508 -0.9362721012782649 0.9244308856689628
P 1.4726875565332838 2.4484907005868632 0.7521751694993747 0.33488515831622323 1.6527326228783987 -1.0039587059919612
P 1.670992871554943 1.7374299041805044 7.203529381556077 2.510139220008013 0.5352931366567619 -1.1578945089128896
P 4.085831369643831 7.3851774561200045 3.02074423563401 -1.7468599382821268 -0.38647357191647635 1.0997739506210737
Ni 9.165560747366063 1.44634342762412 12.2254991413029 0.3851679657311754 -0.43366231378713704 -1.160298747479008
Ni 1.1199715048510483 7.09132276987089 2.898226042843396 -0.4472919887554297 -0.16976685641591407 -0.6610298514356551
Ni 4.347796280232678 3.962812130898832 4.670159835370674 0.7152662441817166 -1.0886608714270476 0.4650930214925925
Ni 2.7849850434696903 8.116243181239172 8.954597332156107 -1.1621149747521407 1.5927032775996441 0.9113457703502305
Ni 7.316322853696125 5.610515131572258 12.580968638892838 1.9222798792187603 -0.14683390176882455 -1.4755255081343555
Ni 5.3838541219313845 0.15050663825726027 2.838114369365727 0.02832610063820283 0.3958850950383634 -1.5488158321880745
Ni 2.6280552359887284 3.0171824724960286 2.857237161923117 -1.152612434578344 1.4400851650488748 1.932176569507182
Ni 6.322849304437273 2.408683845205381 1.3632270088632854 -2.1460926096364847 -0.7282215187908039 0.1654988251681795
Ni 2.843532678470967 5.433063662902512 3.520044372438905 0.0066416736862337225 0.13854877894189688 0.9526232889427787
Ni 5.509733844025539 2.479559240704956 9.9696878309055 0.34457616035174204 -0.09795903044499257 0.07845078520873587
Ni 0.46791602078183087 1.2314011723491431 5.32088011963143 -0.3835108897437266 1.003502335180833 -1.4426225867587477
Ni 8.453300393426188 8.425913572199429 12.928713908703491 -0.10476268363038732 0.2748892373785653 -0.2857261800930692
Ni 7.57858303998553 2.6843606211388917 5.55510018720659 -0.036724094893910944 -0.9332806227501087 -0.45626873833274323
Ni 3.204387266649834 3.907438709678555 0.45332571022800616 -0.9026382152739035 -0.7595200717937693 -1.7247471655434876
Ni 3.6100407150227425 7.6810713901761005 6.900702927692818 2.1190703154113697 2.903867673714689 -0.06894695948335867
Ni -0.10944578388497042 3.833592102442115 6.763435713659328 1.2495911033879383 -1.129056758745591 -0.9719682691282938
Ni 7.422188419711829 9.105859691659484 8.477931923272115 -0.6326844675237426 -1.921558941892336 0.4740525446787255
Ni 8.728506573711936 6.461850340474977 0.7740615580666761 0.825005555091089 -0.09362954983170327 1.1158960529939168
Ni 5.848608847244115 4.5476425653166235 0.15242039389150214 -3.386852744996354 -0.7674935769175492 0.2793315894206351
Ni 2.252344589125535 2.2995979285804657 12.018855978686732 -0.46106358861822533 -0.5848709475848896 2.3645967833571016
Ni 5.34468395477923 0.0880456774870256 10.60083871811177 -2.439702049132373 -0.8015365254348712 -1.2332314310829922
Ni 6.672907874814487 7.422142282883617 11.470842733182273 -1.369352831530319 0.8716669637033698 -0.018193383079575118
Ni 0.36843302358100194 3.2431329749824354 10.624014169659322 0.36279216913913653 0.9265957545307656 0.2302356032249325
Ni 1.4362394622456494 6.662960774651938 10.184744505514443 -2.914738812101238 -1.3074496662676194 -0.13679760057874507
Ni 3.048343286270546 1.0423970418950625 4.25552354654485 0.07550712919937963 -0.31629171158475206 -0.5582237773110064
P 4.062467679837175 6.082264200041959 13.100742454585177 -3.6252554574131115e-05 -0.7865115127809487 -2.3182079116799175
Ni 7.455822167478519 5.069865323850466 5.535004830310487 0.04077615347609752 0.3459113342233978 -0.11327149243234685
P 6.876168285186136 3.843290063732318 11.028831618705025 -0.042789327251384374 1.0427502249378622 -0.7275352913570567
Ni 0.26374948310409435 3.160714145064169 3.6001443653712264 -0.5188249637984096 -0.18502609656782973 0.5746716384543844
P 6.95142667936587 6.522095810754463 8.474610071640837 0.4301581572886205 0.1223747402851957 1.2214249253663674
P 5.822476947744728 3.7271913492191495 6.390881748582413 -0.4571367427599934 0.2776626863586444 0.08150011355802093
P 5.187311233747431 0.24314385288796359 6.926038505537262 -0.0723161330659077 -0.8665111305340433 -0.2515019688028765
Ni 5.162028251887148 4.31636787285453 8.493003902312475 1.1534133332130845 -0.7685395016835602 -2.1487279903768024
Ni 7.262481175172492 2.478147453761663 12.663485278886915 -2.2155681879298035 1.4982903126346971 -0.3374135811650318
Ni 6.4771677674414265 1.8331361406238833 7.83296490148942 -0.9452084845359463 1.275393923383655 -0.6737879224322718
Ni 0.10425169976484144 4.064377744525159 12.944433648811952 0.8070826520640809 -1.5374268736248424 0.3326045898121627
Ni 2.2798144566430762 4.676576545438426 11.715488801196825 -0.2563209874580747 1.1443553367758743 0.42544583941461567
Ni 2.952470957245603 3.0281538102448886 10.05620176569588 0.2071077589582175 -1.6127252292475258 -1.2673689961966494
Ni 8.925455465984156 5.805683142275488 7.752920272750953 0.12297097910829789 1.258210726736149 0.7756835689275092
Ni 1.8285962767278032 7.180025435791657 13.034716039730704 -0.5994339330007289 -0.09532879191099711 0.4861927795856852
Ni 3.2669488057055704 8.732603524057179 12.52462542154354 4.1904165852738995 2.010446349053363 0.4046805818428063
Ni 0.4420941607680292 8.33860423849067 8.557707112933823 -0.8168258474937738 -1.1469287539300053 0.43273285999433214
Ni 6.620524120062361 3.581076014271126 3.43529932364218 0.1201903310393672 0.1883541324997982 0.49669625022017044
Ni 9.000658495970034 1.6353291033469157 7.807130123163718 -2.4613445671028127 0.0032084796349686677 -0.6905242613503464
Ni 1.2010892762137306 8.695675606756136 6.5694469602852035 1.8700636022265216 0.08417663194891954 -0.4432710405214946
Ni 5.649426932486424 1.3311305402126252 4.941154645977211 0.4720617395009418 0.500946540856092 -0.8117101235337634
Ni 2.5629838534782476 7.317393228110648 4.9373465121765765 0.05738213746389472 1.19521304285769 -1.5813096910507218
Ni 1.3349137601260253 8.934203008613189 11.467439680733342 -1.1028811287914877 -1.3993010411529772 -2.027145149865283
Ni 5.942192789589733 6.555821832177577 6.633056728077921 -0.26822468087419615 0.3575707728391971 -0.44047213762011883
Ni 8.342359776307143 5.326266132956921 3.279301480091104 0.4701313552474484 0.47570962066617434 -0.22973706632195917
Ni 1.9899183102545663 3.4374889775091306 5.450543061638984 -0.21406233589917972 -0.3243297513978802 -0.7182386965464792
Ni 4.631057950724273 3.625275095698409 11.796344515375262 -0.20399672413306158 1.5669649922932756 -0.31251218993766183
Ni 3.8717841688361707 1.9042053108019492 6.246430107659722 -0.31802926310114904 -0.47254819221905714 0.9939332034351592
Ni 7.759005720392142 4.214709985571778 1.1077175632778893 1.1316841690661092 0.15669588216456884 1.9188628831174115
Ni 5.1702036978463495 6.6828457476113945 1.342134173741234 1.6772066967603634 0.22375899436165334 -0.1411337660602537
Ni 1.4829207050307487 0.30771142123436707 0.09295924969162443 -1.1483570017360998 0.7971965032986207 2.3902808183867674
Ni 3.6964180848016146 5.644213470898446 6.213923021237973 -0.5132389850701999 -2.4787535066078794 -0.16847050620199372
P 2.115032161000398 6.4400553028275365 7.790505178485736 -1.4810096711773784 -1.4965031388272874 0.4117716843616328
Ni 8.461235927878686 7.40297704444427 6.2077379180478465 -0.13913293358014103 -0.4406256324788477 -0.851370932458495
P 6.890932070214039 0.593960912720985 11.684886243043675 2.536254943258458 -0.7149173454827301 1.955626058779374
Ni 5.7143229950497 6.16273605580967 3.934572701086712 0.6540207671076737 -2.267288756232547 -0.6543802073296214
P 0.5326081585644074 8.352666743729747 4.47765668786498 -0.39725806412649 0.46197941556427535 0.7120245973159672
P 0.4493911615180701 5.976444770854467 12.211345285143961 -1.8948516078044786 -0.2834499824643828 -1.959475000211819
P 4.737292611365675 2.2286579415213934 3.136524606032515 0.7724203247952052 0.6077972173637597 0.8854097672107591
Ni 3.9844133938677824 0.9845322319513269 8.80906608945325 0.050564343211112917 0.46245404120784867 -1.737942066967207
