# total energy = -381164.667961802 ev
CRYSTAL
PRIMVEC
9.29366696794655 0.00000000000000 0.00000000000000
0.00000000000000 9.29366696794655 0.00000000000000
0.00000000000000 0.00000000000000 13.60222102584405
PRIMCOORD
 96 1
Ni 2.6183976797385125 8.406335360510111 4.900608115964123 0.04020434013302753 2.1623813194941794 2.873798879353767
Ni 2.796176231650623 1.837051232202998 13.342459224089486 1.521140477759993 -0.6559352105215671 -1.9904642495044818
Ni 5.287325025781911 6.4455761297446115 9.99935999586425 1.6614615181109644 0.4153979682603104 0.6667616117131097
Ni 5.820075180510847 -0.10125264087887821 1.8854721655145816 -0.057060235348101736 1.6902097938882503 -1.4265027983787495
Ni 8.680210426969309 9.366436194970062 1.375266587670396 -0.19136000920565752 -1.4005243720371172 -0.3847347348484986
Ni 3.5284428248995656 6.407518564263923 4.325832929404387 0.287389169617789 -1.201283674531802 -0.7871987686559604
Ni 8.552692025025346 2.4463440265653777 6.966431320356641 -1.2765504055856016 -1.1789513295831888 -0.6956998920140147
Ni 2.1688351363936165 9.432607102472504 9.577718415638676 1.4583199428893465 -0.525681838819243 -0.8376466408938671
Ni 7.938492174600987 5.56788223865884 11.623804659881904 0.4806872763864237 0.14767619516446182 1.9053972445308092
Ni 1.2471450267521482 6.093150991626615 8.751328353300902 2.6044138596228823 -2.565046927789486 1.0261527255904972
Ni 0.3934362309026558 7.92583420044111 8.567698508781554 -0.5259006396982684 4.776553286945091 1.7609002184252769
Ni 1.7879620842496406 8.77019170877249 11.837604534882319 0.9709236299138634 0.5589575701532374 0.17894723736360152
Ni 6.400436790174476 8.868853275351974 10.94954262913226 -0.34270054059558397 -0.24443991974977258 -0.45954123843642797
Ni 1.2482416794326663 4.902688038590394 3.4003240520813525 1.9777704560868972 0.02750514739880424 -0.18170731660724193
Ni 4.194789439649234 8.35386331784736 7.128189449466404 -1.1517315746352874 -0.5191404381562995 -0.7692779225114816
Ni 2.5933512477554954 2.38442961845003 1.936929339764515 -0.46722138068950503 0.7977896567979292 0.9125457041956025
Ni 8.150443539278053 9.54989317728723 5.561622024713103 0.5546933955602447 0.3807320414470088 0.14843955569304756
Ni 4.446359705826708 6.8910308723709575 0.8389374418629219 1.6110825514377805 -0.07218063592930794 0.37579218094323025
Ni 0.4463134774371921 3.6722716120495376 5.252660578044079 -1.170209835945133 -1.6385198217131265 -0.44925194069527796
Ni 5.237910599491111 2.5105260893760337 12.437449387592032 0.19789909587575596 0.665110706373248 -0.27014940870073473
Ni 2.461929505762231 2.819847200949601 4.233799605975288 0.6074444620100313 -0.1573232313359226 0.6687873838938869
Ni 7.172164292588499 4.398683195224527 0.7402080315159134 1.2053899833906918 -0.1576451334517156 -1.48075256086125
Ni 8.270991691133977 7.238056390087419 5.291304573898841 1.4010797303199547 0.35384087348311966 -0.5507817192106643
Ni 5.912825975015675 2.076957946566489 9.90361385255492 -0.8966899681102686 -1.7629864115303446 -1.378272245507136
P 3.248749923033552 1.2260762841527046 7.404464140689243 -0.143741635996746 -1.66382410480587 1.1477047128640814
Ni 2.183705003248098 6.538057407912702 13.017107466680109 -1.254191321164111 2.095867137822029 0.06276139949793708
P 3.21910312599243 2.997235418856781 11.51758548347363 0.38826665926115717 0.6280508254064733 -0.7180229809912473
Ni 2.15822176892623 3.793395971246073 9.207669697198085 0.5900764030452289 -0.038007075371392605 0.17954913261365854
P 3.677606176783583 6.287918366419971 8.611198445530981 -0.9138060589652649 -0.02298797625474106 -1.2751350132953136
P 3.8971504672232182 4.1846035808539135 3.023148020584072 -1.1096657558134888 0.27607477304623423 -0.36110398280343614
P 6.975686883106877 7.751354900237337 8.708196445756121 -0.6669423602653481 1.0567897337500638 0.0011024890355593917
Ni 4.66300437222972 2.3226267343360916 1.1368775290927406 1.6060491027789308 -1.5459719349813763 0.44736680785742305
Ni 6.587369603868877 7.107731300774673 12.769697045755175 -1.3718632566569986 -0.2758590574910023 0.042180232912475746
Ni 4.524287101810976 4.031964397592661 9.917882419168475 0.059411766299413804 0.437311223393634 0.7100954986140544
Ni 8.107060702730102 0.4992669320393575 8.553946670041192 -1.5596473755859397 -2.374024761539221 -1.5424690640344403
Ni 4.050142809822265 0.758734956249919 11.109763585755942 -0.7383282682075026 0.22311030503406093 0.24225988137931828
Ni 8.42202307004159 6.562890085559687 7.488607141018684 0.0758259459913791 0.737535339992562 -0.868802240561065
Ni 2.6407768293545075 5.120392183006787 6.87752810390041 0.6536371585160098 0.39998677591156273 0.00930687922322268
Ni 0.3517931687766803 4.388553098429912 7.555924887002279 -0.5560918185696682 0.06956813800712534 0.1651380993946511
Ni 8.65532198732162 6.148234554655685 3.114677627273476 -2.133475435093106 -0.9102929036056838 -0.9083650904553516
Ni 4.9416563834159195 9.522848606945638 13.289519709987495 0.640527103496613 0.5503258626201684 -0.6491400419766046
Ni 5.184667182485284 8.627357343968411 4.77908598782923 -0.8616995680780128 -1.25278209952141 0.581508715980876
Ni 6.308717592682677 0.4076044259149415 7.035626387030614 -0.12820008871772115 -0.5361287451841799 -0.07264549138086844
Ni 6.880147988566834 3.6656173466321573 10.945299140878662 -0.033179314965446086 2.697389835030987 0.6698541345955044
Ni 4.4136181177464975 3.076603333192576 7.7569654868748685 -0.21062271409001146 -1.0909149575685473 -0.13615765300190097
Ni 5.267315761195849 5.193022188924146 7.634777002831559 -0.2231902663423769 1.0970079578401624 -0.2796108112239507
Ni 5.60034501673553 7.258418814011275 2.9027820245971148 -0.8820531920337004 0.2424231464300599 0.9914520888845184
Ni 2.353082080387426 6.458141167236648 1.6366193675047631 -0.6294268798183934 -0.0033650598174909787 1.9644387719749974
Ni 4.208181613485051 7.586113504816911 12.297088067519189 0.8865032573852539 0.6888124208655622 -0.6538099366484482
Ni 7.861168866957684 3.742568907604099 3.682855239783215 -0.7775363058655319 0.38043687880409316 1.5985419957686084
Ni 1.2824330795311896 4.831405614356723 11.473010269477285 1.5937026653984359 -0.40550719150915965 1.6218475032637683
Ni 5.908643824962852 5.199629986007606 2.3314752344811867 0.03359171991251634 -0.07622960918770097 1.6323414608165565
Ni 4.293516061896207 4.139064613612065 5.188186694096403 0.6622837784474142 -0.47437598945641524 0.6973536255673538
Ni 7.6133160674938285 7.246755262197291 1.2503662116595005 -0.5958544431795867 -0.56524134627942 -0.019970015364023673
Ni 1.6384734540281813 0.21623016886444285 2.5240009768462293 0.2290251278565991 1.2474791992512582 -1.6899066608255346
Ni 1.1284741955866018 7.388176989650194 6.506948717086448 1.2820170851271275 0.2598588254080041 -0.21419911858736013
P 3.176826235791782 8.245675742814223 2.9809268923841286 2.859563195370359 -2.0042872714305027 -2.153170856639505
Ni 7.733594703013016 5.832547281335043 9.385083008005582 -0.9930937382529993 0.2747424273880559 1.1250916034502558
P 8.203603313282823 2.33365831680876 9.397665703464508 -2.1147539474242034 1.9218782729049677 1.0454275146597094
Ni 2.029811174970998 4.013962565031955 0.3953730310604521 -0.9577099594370668 1.19634072870423 -0.5846467473892254
P 6.996430347368879 0.564319811427679 13.268626617690272 0.4836345319402057 0.4008401250507935 1.0205906581216875
P 6.745510637866287 6.11103200651913 4.476599438808654 -0.946693296611589 -0.6712816110706503 -1.147051652661115
P -0.1958435814069487 4.049492253147381 2.0555945947299907 0.05415026079015836 0.13596147783069487 -2.4395724655330437
Ni 4.525894906164616 4.492735103079123 0.6338773311062298 -0.5162572030712335 0.45812533192550775 -0.7129170272232496
Ni 1.3351560511971108 2.1188723837625587 11.140313727208474 -0.0010870624165916763 -0.3853798246316653 0.45042873461219846
Ni 1.9771997273064859 2.7739364870363894 6.7473136092223935 0.5807073031255031 0.05158018607013697 0.31092350529430324
Ni 4.7827253877418645 0.3370088036566121 8.937216558848775 -0.5498620356098723 -0.19154255753010885 0.08317261616443741
Ni -0.013988827243353479 0.09946918622301884 10.448777558007315 0.007248196921981065 -0.44197751852105177 0.7384727642051669
Ni 7.700304788592545 1.6365496650038827 11.387874705535308 0.7344662141489351 -1.0599622179407746 1.6647252764639004
Ni 3.054307826577638 8.8061396118932 0.6279451835979701 -1.6590976458644784 -0.36169302253768676 0.5535469406606273
Ni 6.987731475259007 3.794566973260864 8.37423410607132 -0.11184761550162674 -0.3655237091376866 0.05240499596427748
Ni 0.7337507918343549 1.775239054422275 8.853807758195275 2.431444951329903 0.8276638186495423 -1.5532761819522733
Ni 8.493779471281247 8.502998788731025 12.540064480021451 -0.5767349487413165 0.0692619196206162 -1.1189379251440341
Ni 3.4811473546355303 5.295838024556102 12.0519480893896 3.6668407370540654 -2.9593795907390645 -1.3803247571607904
Ni 7.456643432848298 5.039109773313478 6.335152498483232 -1.0826599166486062 -2.762822867823816 -1.9802523419684865
Ni 4.16426903793041 1.0721081065413327 3.2097704258078856 -0.7028200479985638 -0.8167134902856256 0.31080420610761955
Ni 1.0527308112965865 0.43603932880742374 6.824492865030545 0.4287929015099777 0.485686272262912 -0.3615138166473451
Ni 4.6942403862909154 1.5238267805801289 5.7855687251083445 -1.860709414705131 -0.17991757169667077 -0.9027058352870455
Ni 9.155442077971752 3.352216315340391 12.670564290269738 -0.6380868694862366 0.3317059892572932 0.4263130725109174
Ni 7.6890036897831395 2.155099096886789 1.787739965613502 -1.0759601360309277 0.17207673549601332 -0.6983985218921005
Ni -0.12170986020393115 4.176397273083596 10.03662945840165 -0.881229153470508 -1.233832812112417 -1.366661143630769
Ni 5.712751916488627 3.043982562780558 3.1783624789111857 -0.25543909907375356 -0.801052129599285 0.3660299593501438
Ni 6.448959024454006 1.0269873543047654 4.125336009038665 0.43721377858382127 1.8030179735309337 -0.1597344118805765
Ni 3.0544286442458306 7.073316852673333 10.473098154614497 -1.9294887382623738 0.40177446393960486 -0.9352966247388731
Ni 0.43627724667709544 2.0566512846433374 3.06331524842474 -0.591949965918858 1.086270002597368 0.48487071834015194
Ni 6.209163834091924 7.139069545170493 6.4342174102011445 -0.5509336714074964 0.702540569084932 0.6478100103112714
Ni 0.7030054833793575 7.802023971543983 3.661608988148196 0.27062352012367585 -1.5960318277522447 0.13858297461394198
Ni 0.426053283847961 6.828698249250327 10.834726810948737 0.038345946768050095 1.442715146472554 -0.0014575583821329738
P 0.8471279503997059 5.610419351529442 5.56183949651585 0.032667922546666325 0.3857235811243292 -0.561828206832813
Ni 0.7528910985761078 1.6004158885474926 0.5085773274236198 -0.5177445862500374 0.8892859623367136 -0.2636301195249782
P 6.441802901030286 2.633592824930436 5.643303132711449 1.6159709898783332 1.2971482843416111 0.3294267063048133
Ni 7.5235113653595445 8.569123227899548 3.2406337638310405 1.6789131379285087 -1.1209436427201533 1.2695060971443104
P 0.8822087544094631 8.161391478749666 0.029197912935452847 0.6033065285822578 -0.13455894105621344 2.4965591673307324
P 5.797426514558115 5.022176712432937 12.331909578225671 0.1436498476138881 0.017974067979917432 0.3386119723485072
P 0.773527685670093 0.3897605856895637 4.518793615374923 -0.7064938973057253 1.462987523568345 1.6154248875668757
Ni 0.1514179954458284 5.904340857241836 0.14443659295764932 -1.2587632568055094 -0.4774122051795778 0.6216446647698132
