# total energy = -381175.9630822046 ev
CRYSTAL
PRIMVEC
9.18124657536667 0.00000000000000 0.00000000000000
0.00000000000000 9.18124657536667 0.00000000000000
0.00000000000000 0.00000000000000 13.43768241767983
PRIMCOORD
 96 1
Ni 8.998567522988566 0.12908190299994302 8.35470412994835 1.5509876430284126 0.5644484180644794 0.7751181833423425
Ni 8.876704834339897 5.129516675549507 6.7319031516297265 0.3570915192099334 -0.29918847624556216 -2.0449492679262393
Ni 4.075518725261052 6.047779073289031 3.8166920332429006 0.1519840785111963 -1.1126225244489678 -0.4417517756634909
Ni 0.45962790432112177 7.23449194593238 7.486751292121374 0.37067080055626483 -0.7714335354019036 0.6284544886027952
Ni 2.9814446327326043 6.363549694150456 7.690695245200691 -0.1794668573124974 -0.30252216860448544 -0.9895453587801086
Ni 5.997961628204447 3.8792512126231693 13.332183031147935 -0.8199391963117749 -2.071069362052059 -0.855011871645192
Ni 5.354760203057817 8.058729195291656 11.74935903760397 1.8139819287416048 -1.8151073005952998 0.8656744935653606
Ni 1.452188623587091 7.9094513037269225 0.17066560596291713 -1.7569314635855158 0.74601303844627 -1.196532533000062
Ni 9.080748863009228 3.44004790991192 5.020264429367418 -0.02297949161430881 -0.21003187458354794 0.10653494503946168
Ni 2.539312512295224 6.979290010147069 1.8787355775978065 0.7460945424164828 0.3155095820030889 1.7316724319084111
Ni 5.898161475593053 2.4173029236979082 2.6730107461813684 -0.044730510138155224 0.6502646424993511 0.27302415914536854
Ni 3.7421660167960553 -0.023347910587927928 10.683817505725976 -1.1628580235657522 1.1975416909908667 -0.7838936155421274
Ni 4.0398863064676 8.425786260724127 8.10027525514279 0.6764641837128544 -0.33182426000271237 -0.16566851797682436
Ni 4.224429366954172 7.549528067050575 5.641394137229983 1.1268702926172336 0.7750857874425102 0.6597435285240637
Ni 5.012657766401591 5.111548975580738 11.478481959173449 -1.082149809781407 1.5819259844784819 0.5360408134560639
Ni 6.798492898350972 6.435769381403559 6.209795026650734 0.5116940091805833 -0.005513473619061472 0.33957947846809905
Ni 0.11489320421009488 2.5047175743890846 8.125552145681377 1.3991097510777775 0.7747780263941043 -0.6653675595790606
Ni 4.648557062435623 2.738205861515154 5.589417262900302 1.137006609720287 0.16192139222956628 0.4128967991050115
Ni 5.116910823706318 7.124656690579104 1.858592840264399 -0.13567685671074053 1.6463413746400741 0.1350446224433803
Ni 2.672881290601624 1.2589692848836134 12.85064408136158 -1.4354677208815214 -0.17807074829591912 0.3427133961113904
Ni 6.7731710197031125 1.453675985567132 0.7261539898976829 0.4058738308199591 -0.7498390970605795 -0.07743622790129244
Ni 1.7526724685425394 7.35490399758817 9.449714709649419 0.6036466855304958 -0.3236484090601394 0.44632062598109584
Ni 4.338836883209056 0.5298332260284162 1.6281362008285118 0.4226816464059172 1.0769518105202356 1.0743737653804144
Ni 2.122768526662624 2.781945321224509 10.102490338949051 0.043059035973003264 -0.9442885438248383 -0.11733563519939147
P 3.8446929997041916 8.194207672930455 3.4449653856928455 -0.6178425174149036 -0.23914293301689138 -0.2820515594549594
Ni 3.847447373741305 5.805834857869024 0.24443508767423577 2.3216614174461565 1.799008081040592 -2.853817036915201
P 4.111858100057363 7.064666424050782 9.91820618962197 -1.1059798223214696 -1.4611684680817352 -0.24604788766684077
Ni 7.8272148762255185 5.016348627611323 8.694502991784871 -0.7028462732508088 0.9930698269935995 0.46245481253879706
P 3.2993361216026065 1.274191792062058 6.9024273663920725 0.5817388297138111 1.1197100274233684 0.18048527127468272
P 8.781633023825545 6.492775742725008 0.23682199783565544 0.14340405015166915 -0.47279964610823083 0.6241985415399185
P 7.093165014088111 9.113369832855437 5.36874416004424 1.3556491087909814 -1.1084449960325105 -0.1501449684199285
Ni 8.491092469144077 4.64898858103477 12.452432291195324 -0.9340349844176302 1.0545793563623065 -0.5856229952595656
Ni 6.976508092369585 6.563296899321892 11.116000827141304 1.6527184818110117 -2.171315902979648 -0.0035334670745552047
Ni 4.590843745111315 2.8306885604346186 11.156461663621815 1.0782522744992138 -0.37585568719131396 -3.292313795976504
Ni 8.214158522205944 8.648725295288054 10.753008299662932 -0.620960237108279 1.9144585834021286 -0.5392055843372907
Ni 7.349275893305669 8.637983236543313 2.042984410178929 0.2742225503288438 0.09636931736036951 -0.02356364625255297
Ni 1.854005889367927 4.758493311503593 3.7988868413423234 -1.0953642515891522 0.530190525322874 0.7846770306753712
Ni 3.2692675383641228 3.4277266767192343 7.480597102397785 -0.16183371761176646 0.018284657241800766 0.31089136650478716
Ni 5.497950928000533 4.8364329155071015 1.9394070926379738 -1.2235879944559571 -1.0218800663570722 0.36937470745266066
Ni 6.254008238694472 4.651706230084722 4.131819048704321 0.6317586132753635 -0.6801429181160222 0.8674516400704414
Ni 0.02476365884300401 1.0405290612469713 0.41747955468053954 0.2894841044736047 0.4742219803770543 0.2429669347486719
Ni 8.959712486571693 7.705021662692395 5.404636408121859 -0.9013858309240411 0.8654919452409096 -0.9840347133745246
Ni 0.8591397590328942 2.968361356056317 12.27782242161126 0.14811199715029977 -0.7524667644914137 -1.337597136385277
Ni 6.059788144090843 7.920285174939567 9.500817529284655 -1.1835201799007942 1.4127677081808443 0.5748392743805003
Ni 7.317352698215529 1.854299689265219 9.128325165752281 -0.8733482080605346 -0.36590937461187956 2.7625421033586037
Ni 0.2981986326293236 6.741817061913976 11.43130228629174 -0.1847895550769914 -0.2565989237098097 0.0713116030607933
Ni 0.2315271728116452 7.3991667883645755 2.611331130243618 -0.0013685982127524816 -0.26554764826266525 -0.21134108031327475
Ni 3.8239525632047306 8.375748465716574 -0.15282001657646196 -1.511483157175887 -0.262259978650329 1.6118536252758497
Ni 2.0322873395434615 8.904615824582642 6.372283814222142 0.026206226081722607 -1.167080546287532 0.6386489126372936
Ni 8.637129380591809 5.596640149750291 4.161838053210137 0.06288018446398848 0.10699542961564798 0.367190041096516
Ni 7.497525485229882 1.5003350817558263 6.950802437605888 -0.6353936389247896 1.179399472864201 -0.22989621760764278
Ni 1.1824894991197756 4.883137917929747 8.546648193472645 0.466899478573712 -0.40623172838001 0.3357300228150218
Ni 1.5689006327863595 5.553139402457487 13.153811604753855 -0.5234349517665953 -1.3313627254397908 1.1133519464158246
Ni 7.334090111114386 6.189271267575526 2.176030775542957 1.5470816231057873 -0.8038659448989962 -0.6463568228045127
Ni 1.6812148247730376 8.767236828858236 4.029034072761375 -0.7870794694692768 0.7304280395238195 -0.1555561121331708
Ni 1.3481191912181711 2.051724038998689 3.4170681673202856 -0.6125663566176288 0.3949967788961391 -0.08085990887086075
P 5.813088042833422 0.6958292498737477 10.800134721313256 1.3664266590224594 2.377383393598809 -1.531465513835085
Ni 3.56071703647784 4.538180113521714 9.437163945286972 1.6697898354710015 0.9151255491076369 0.2887117450839544
P 8.110897039554578 7.2174974581233915 9.151048751558463 0.9613655539117831 -0.7603855051178582 -0.3803301780228998
Ni 2.2780693161218455 0.581669627282204 8.79872575097519 -1.1626829314404685 0.9057111977722724 0.06909119837070682
P 9.519300297198363 1.4012143414069196 10.600262651185474 -0.5580078046454584 0.9029004677963547 -0.7072410598843949
P 4.105633214733488 2.7869582819720544 1.4586742563198132 0.05257186055944494 0.021371523697240612 -0.7778026721530411
P 7.06682401704652 3.742634260382364 6.409223642558543 -0.14233369990562583 0.4371168479946408 -0.16063661197987172
Ni 6.69805005846425 7.151686281129972 3.9872291017507524 -0.4949705257783153 0.5156697059988796 1.6494554947890236
Ni 4.969579356461144 1.3491566721054837 12.739702485770062 0.32950692472344545 -0.547075988224303 0.554540157811832
Ni 5.330641067739498 0.49736925550232325 6.421035316554363 -0.8915274500727227 0.34843255798335476 -0.08682769641852144
Ni 2.092332693552525 6.854250610108929 5.040259348627501 -0.7749497760852783 -1.8518635342787269 0.7647561233817282
Ni 3.6012430598105634 0.9917950032836517 4.309814043979996 -0.31149814685085064 0.5527990067510092 0.22176921762513419
Ni 1.3105036231179978 2.8765397069057594 0.9590996653384413 1.4734007484818687 0.34962375007797847 1.891373162337575
Ni 2.780384509270145 7.106321740738721 11.794710724249713 0.7723925568810632 -1.6018921431877637 -1.5734680835191162
Ni 5.28218244717989 6.022319475939316 8.14570865488497 0.32626527785769616 0.8758092680065175 0.8525220153438027
Ni 3.2252159162638954 3.587930251964517 12.65207574827803 -0.6351123602389449 0.8397163789387022 1.719531425670503
Ni 7.11776157423953 2.119637721507105 4.72681250132872 -0.7096224156323779 -0.1228287971034788 -0.3711873351813672
Ni 0.12797648088638167 4.882697218083809 1.9054364795135799 1.8739210282993986 1.0544739411326938 0.25832079149692283
Ni 5.739564618536085 3.697076913808515 8.275180760873504 0.037770533880554305 -0.0454794724890378 -0.7616941966269527
Ni 2.9616498646525513 4.650338224312955 1.6928116575939622 -1.9607762355217457 -1.8932161290835843 1.1107623313117774
Ni 8.05835276417325 8.457030043551779 13.084392197771816 -0.7459785856639088 -1.065679837150842 -0.310461220945904
Ni 5.800665815926042 0.08521390583552318 3.6333214179714606 -0.5314089711110074 1.0378206488467288 0.561438170483246
Ni 4.8362676530648745 5.180729670146227 6.061026694282866 -0.9407489061026959 -1.0105093626262855 -0.3025165121775306
Ni 3.7116567337116333 3.4870008059979063 3.5362067800462507 0.9642963544053328 -0.9516930638190255 0.5149577675335195
Ni 1.9055402276023115 4.9943044540676285 10.888607969759365 -0.7163733612029662 0.04429650792453017 0.3735085271153761
Ni 6.521109070320111 6.054784364590088 13.523818604780073 -0.1314684750563478 1.378458393376013 -1.4567716245656201
Ni 8.137348211557653 3.330249379545805 0.8500824590741876 -0.49939436587762376 -1.4851465761638873 0.2956493527440521
Ni 4.768298883075716 1.6199942711748057 8.73316338576979 -0.4946532516482126 -0.8436023442566697 0.48279686653025883
Ni 1.885396572144225 0.30416001617031524 1.823050397689493 0.8751754910772604 0.32545100948651695 -1.1269127158193948
Ni 1.4116901439947394 8.837776347948699 11.242328356104132 -0.5446239271393847 1.7524232913025173 0.4960912696463198
Ni 2.0751178558205687 2.8049076194472407 5.5265156230147525 0.8932709151263907 0.046687890974842175 0.018115478653788156
Ni 7.031770016800863 8.507003569831799 7.651537227639734 -0.34262417883169377 -1.051523343144802 -1.9075942521821274
P 5.9262469095248145 8.55898778915891 0.35947519183297666 0.34722131128407296 0.1685574094888452 0.30891187418091315
Ni 8.97133594500831 3.605622514529573 10.215756626227892 -0.5186925519856035 0.07194640843131479 0.5271257703546212
P 8.04050442041276 3.444592627073156 3.110824008128555 -0.5702022898291212 0.45575837435522804 -0.34548453109862437
Ni 0.31730847969881365 1.1811857620755422 5.944105352656776 -0.13264912562801026 -0.42211111861442785 -0.9151895695763529
P 9.131521157760012 0.4363975136921107 2.7739677358883505 0.46453020701058706 0.1434379887133981 -0.3461681874292103
P 6.484127008248473 4.3013498525639475 10.24918921829037 0.8677218630126927 -0.8910404831339751 0.3700290532072079
P 2.085584477161598 4.945386771168502 6.300525943682595 -0.809797994112715 -0.39935762696799604 -0.3039933538333732
Ni 7.53575619686501 2.300434833303203 11.941356352359648 -0.23579432825963265 -0.5010856375371177 -0.6494377757226816
