# total energy = -381168.9521898341 ev
CRYSTAL
PRIMVEC
9.24584240356647 0.00000000000000 0.00000000000000

0.00000000000000 9.24584240356647 0.00000000000000

0.00000000000000 0.00000000000000 13.53222494168788

PRIMCOORD
 96 1
Ni 1.014361369028844 5.626464930351041 3.883018036434274 0.11732817900022374 -2.0916312453638106 1.5140573456609667
Ni 0.8590136497116829 3.5030370286531887 11.663086524303962 -1.6058462427395055 -0.543722755481354 -0.16720269523316364
Ni 8.088050271761418 8.289785306952743 7.790217649065413 -1.746907503690611 -0.1546737095282175 -0.2077204528415519
Ni 9.587568728722543 7.422950599160105 5.48218818271627 -1.190540834193001 0.6322720625766723 1.0033053886786785
Ni 3.043759053581283 3.5587617207608986 13.245369139453599 0.419545928990413 -1.251728204335599 0.5561183009322294
Ni 4.718874549286331 8.568501225915231 6.220831134886713 0.34621215329326827 -0.8587335434711533 -0.20890238896479507
Ni 2.666695109075455 4.573289514952831 11.251869362579509 0.3973884190567672 2.1613474789130263 -0.879005406346312
Ni 5.698674959446977 3.1981738674009046 0.7616244180245849 0.5770535084229997 0.5759376496510016 -0.5879884101679487
Ni 3.441163851353571 4.911641117355626 4.383534317751212 1.0743567960995497 1.0397021821401577 -0.4680400199360584
Ni 0.8330106425632305 0.6501768829776441 5.742454023181839 0.3417631163829792 -0.1552295820316875 0.08509785821160828
Ni 8.107679195163552 6.626615439620544 3.711226586419658 -1.2036470325576563 0.5932951670928428 -0.4371027069272536
Ni 4.967818855740633 3.285204981854177 3.2427943027936053 1.2196058698797576 0.5853234617412758 0.9970118423604829
Ni 2.7647750051893736 2.8774910698127503 4.102104744046131 0.5635395330969649 -1.2554365064251216 1.410592040685764
Ni 7.770437093848019 0.3892046601531865 5.913000058226004 -0.1030359307472677 0.15090627206598525 -0.08623891379458697
Ni 4.846763041278008 8.001453711900655 10.348105835681611 0.5349025860865627 -1.4268779223299812 -0.3667488397940394
Ni 1.2832766950538548 5.217206962629842 7.590265212287621 0.7109470479810723 -1.960070724814289 -0.8975705709430091
Ni 6.993656890971441 7.256895269766631 5.749016722112991 -0.04237666519399798 -0.39999397500041434 0.7068245411722666
Ni 7.917788084078743 4.812525686893597 11.467193936921309 -0.06513658459833298 0.7793191087975675 -0.7108485747299951
Ni 3.9122210296352367 2.169647867824689 1.5629042540763756 -1.9431788341549567 -1.2579410180145303 1.1019424190273022
Ni 8.173278446947888 7.428026566634326 12.325610305214349 1.8041317754204027 -0.22164888999718602 0.03796439505891526
Ni 2.303139340307037 6.313292332577891 5.679556406544983 0.520283293511491 0.5046846677422857 0.8373573917882224
Ni 4.381882085715432 0.8116416516225736 3.703783683292612 0.5466268165020263 0.8417583490693955 0.5593013266459013
Ni 6.379723710177674 5.0015569346357776 4.6090626037588605 0.34220611745766877 0.09738130356465165 -0.14452762223315108
Ni 5.1379146182602184 8.619140704706325 12.5841573435789 1.1224400247600217 -0.9006103862105973 -0.11193606145037496
P 3.3398201728746253 8.21017860394173 13.572550839660387 -1.0576114583204108 0.9038276075963143 0.0013943092443653407
Ni 8.936208377918485 2.071225875542198 13.055200653096975 -1.7631293648661117 -1.2652833173122147 0.14184724718751054
P 6.9952749133903644 7.823101412123366 1.8107473807015717 0.10647735232864887 -0.40664773287150613 1.8136867660986895
Ni 2.3781323679635222 5.658076465495601 0.331995085757025 -0.7285557622017711 0.38799335099511245 0.9012518764493381
P 6.59095422550748 1.9724987704607104 12.723105712242097 0.7462578074672245 -0.15873965206747498 -0.9488954464692304
P 6.38099039058563 1.5251571779192596 4.625192900399165 -1.0618602062944358 0.3653252199736353 -0.31810356798251016
P 8.97319174749387 2.2862471862534806 2.1756160590899163 0.6584273808158015 -0.947777273704387 -0.13949545912588232
Ni 4.503011866917208 6.864862306425167 1.1319167075611596 0.7577670936584047 -0.9019784702027176 0.2527880346041517
Ni 6.4017103233902395 4.916356496976487 9.509649391948406 2.2283185456169368 0.24212438424271848 -0.33512941311654537
Ni 0.6115144684235377 0.18554094223850445 8.353739723375215 2.078921511106626 2.2035410815619403 -0.528237001140929
Ni 5.617792330185614 3.8520305956512995 11.523961560051044 -0.3921297417609892 -1.1880360654932764 0.5493223610563185
Ni 1.7959771474774027 1.466076245022584 0.5827885606900977 -0.7655868468131396 0.4742680031236412 2.3770110978610544
Ni 0.46891861493596915 2.6997767331606366 4.634055964917906 -0.534305318822196 0.7548743454916419 -0.08603579664484538
Ni 3.2807854691899188 6.978022171483448 7.8266194551542245 0.30773019516798616 0.8885105176232698 0.7003484465296197
Ni 2.8683284400004485 9.065160141785455 10.36908095373629 -0.48216771758669225 -0.759895195745001 -0.7388352897509082
Ni 0.3491248579601035 6.025996271873914 10.31473574131374 1.0786687932113423 -1.7373293730838724 0.6777057694294393
Ni 5.554781914271553 3.0522929661108025 8.48994207684744 -0.15415820334437966 -0.5131690510642131 -0.33810906457015966
Ni 7.425816810302197 2.9787977649221205 5.739409367281546 -0.4627479182991837 -0.9177881835414644 0.09199278555922866
Ni 5.6204458869526475 1.2872431614408144 6.744812439614992 0.704294061440929 1.1722214670585231 0.22109558859687728
Ni 2.1167061742775264 1.0866083814943566 12.032976619696404 0.4959447167661265 0.8179193376682689 -1.3343395486799279
Ni 2.051162397547552 7.152676134303199 12.173021545267513 -0.8049185545332266 0.6970106404056383 -0.6131641381026279
Ni 0.23064678435688216 3.0073396803919232 7.084958660026431 0.7526300295421554 -0.3195958362573205 0.9732527922676721
Ni 8.688817372986348 0.17588828277932925 3.61966685836188 1.7041482583462135 0.9554214205132062 -0.5840034573782716
Ni 7.728553427803897 0.32344545529543567 11.138848185157135 -0.890466612908376 0.8654492649284321 0.3402338242226463
Ni 8.514468522965593 4.143450302062931 3.096078501935339 -0.3867617925808565 0.2654455754671622 0.08460729172843494
Ni 0.5272524837672222 8.325520487804956 10.390921482639031 -0.17468563387377012 0.8877684972509228 0.9934557495781083
Ni 1.380348794346844 1.9882259483726425 9.884599736882999 -0.6165101717567253 -0.4794909420854774 -0.10387462459847915
Ni 0.5418784818500473 3.98526318454662 0.5229180328529872 0.9755654995612487 -0.5312865866005302 0.8376456124526025
Ni 2.658688209562385 3.6927432228901207 8.993529827007613 0.260078654728294 -0.26305650640969536 -0.1808881631400562
Ni 4.7544710425026375 6.247545147315252 5.885394746590698 0.3316674227098739 0.31346272677638914 -0.2895144434909079
Ni 6.513261411871992 5.199020390641146 2.248771937862744 -0.8212743701834306 0.15464568450375948 -0.23996465758723837
Ni 2.8836025716350826 8.681753549397449 4.839989537140276 -1.1680377679944787 -0.7158830518301091 -0.6150240741295021
P 6.4580452410959435 -0.2881041473291987 9.316246709922412 -0.39379247417539276 2.256955492627339 -1.9488877116142758
Ni 6.601531469206039 4.994012327242399 6.987918921181821 -0.884619667209296 -0.45886015320900325 0.4288350676018228
P 6.287505678141454 6.498320130563537 11.714400949589809 -1.2505231282839042 -0.6825854661192438 -2.1933713401177903
Ni 6.552186408350084 6.441402724787021 0.23044430040845695 0.2965901193907666 -0.22080916770471004 0.3910887020909845
P 3.555229808966449 2.7085325459076084 10.844102749236436 -0.5311670303035304 -1.0881823891287326 0.06518003624175872
P 0.16279616994964335 5.779206246697377 13.011897750245398 0.6214366625240653 0.05193859785082022 -0.1919354220931533
P 4.216686619664586 4.581666248161656 1.5996574021761525 -0.8008649532891433 0.7658750674775198 -0.03943403762590628
Ni 8.602627630190916 4.850803474404119 5.828910970822454 1.257312383291596 1.9862455834374435 -1.0614773690337203
Ni 7.586546534476817 2.575327694539469 10.38568463750716 -1.1611896347243937 -0.1743580753310223 1.6503026732806676
Ni 4.9845260929463135 6.9857054665127345 3.5080131410295565 0.3587750775599434 0.08496904594322785 0.5628314512863468
Ni 5.188470884469768 9.216560810984683 1.4561489840443114 0.5802643020508135 -0.9418899616856745 -0.805759048156651
Ni 2.8240870841458956 6.448503531745494 2.5748986874523947 -0.025838301219342594 -0.7244083156923008 0.5028643267040952
Ni 9.532278591207342 6.406379473799132 1.9006687454871605 -1.2453199868164102 -5.678125522848324 -2.488466877240901
Ni 4.069502054596951 4.692625602730201 7.438325510476831 -0.6825533273297277 0.7085939743678636 1.092256816308422
Ni 3.029973502572058 9.140541494822482 1.9909016951614216 -1.113315179640618 -1.9980991403419202 -0.3407027934392648
Ni 1.653618912139356 1.260559660292175 3.0871331494192926 -1.5611440147361242 -0.4499512807551477 -0.11233741065385168
Ni 0.45774501440300625 8.308378696006768 1.2763977883128332 -0.2995399460477099 4.991816070910274 -3.4070323052680225
Ni 7.607423646602121 4.285947225036886 0.09264426537057624 -0.5772393991815606 -0.40269723286419035 0.7093095123776495
Ni 6.6035193253207165 8.775090328363325 3.840459423895401 -1.6024086778128661 -1.450086756346277 0.06383329240587717
Ni 8.003654222390391 1.5600509871136345 8.32643212786499 -1.3283450216593897 -0.16312055474399004 -0.5710224717375714
Ni 5.780815023273906 6.96879482077439 8.161257927251649 0.07309903397851927 0.3398250188200019 -0.4230781105133875
Ni 4.89157763936098 3.5110254364814715 5.810507121537503 0.5097445987636963 -1.166116896822682 -1.0959185814307255
Ni 3.958662895979525 0.3534944430754351 8.328177742908949 0.09700977915784584 -0.02917765000522072 -0.43985584419235857
Ni 7.46469557756832 7.358867665528359 10.023400172067895 0.35498347172799505 -1.8732926506867802 0.5715762873585124
Ni 4.352101227364853 1.507673289952497 12.826289313357417 0.40865962109521237 0.8925965147671854 -0.5096088445167803
Ni 3.183935270114382 1.6619771536633927 6.07621229108337 0.6133366591247502 -1.0989388563142881 0.6695268331630727
Ni 5.1358250578792095 1.3158497978073742 10.199508505896198 0.6976174207517019 0.0448346398161873 0.9515573095721095
Ni 7.383988619312438 -0.08620361155902312 0.21430845626271688 0.3218319246766909 1.5241044454843236 -0.19142145857121226
Ni 4.346775622145999 5.644919631769158 12.43698109976942 0.9515763357355029 1.1792704034855046 0.13420669992311726
Ni 0.9384992321873376 7.208095713611912 8.400765002374555 1.9888647662278458 1.8707423734611008 -0.6087973764935
Ni 6.519936910080348 1.4797231083959004 2.3580716637215944 1.6954322186294541 1.6826990873335022 0.4493231602528456
Ni 2.051282593498672 3.9995202735179305 2.2850378300683656 0.5394295274226388 0.34221974430442353 -0.3024496634953372
P 2.5550238246425834 6.617018255215731 10.131861300021622 -0.918944922853727 1.2723952457666474 -1.0514243556730924
Ni 1.1635430360535493 7.7542198862892135 3.2385181006864516 1.0459191095841471 3.130250735962751 3.270807289363296
P 0.3102451661097417 0.05422131813447044 12.340320440462959 -0.5480692053755077 -0.521130986223767 1.0739261363200343
Ni 8.38394496589167 6.014716344153422 8.16274650787706 -1.889667492500378 -2.273861267243742 -0.3357349079110282
P 8.607287534757415 3.8941731452824495 9.247502947139928 1.2129279436389497 1.3293143275511945 -1.2207536103309555
P 2.346613291242901 8.9575200446363 7.014780867088661 0.1094559753409986 -0.6758553464842618 -0.07636047833861043
P 2.382505651415811 3.595930007184159 6.396331092285501 -0.27972393976304727 0.664506754240662 -0.037302335994884146
Ni 4.303015050095925 5.542207568615923 9.747180630551744 -0.29965153192490973 0.22491316257075458 -0.23405729096386788
