# total energy = -340858.9056277256 ev
CRYSTAL
PRIMVEC
9.39809526107199 0.00000000000000 0.00000000000000
0.00000000000000 9.39809526107199 0.00000000000000
0.00000000000000 0.00000000000000 13.75506238860866
PRIMCOORD
 96 1
Ni -0.3841631157533137 6.143685164844354 13.376013717591116 0.9288981774116971 0.4295518911631892 0.4230336304286972
Ni 7.969744449326336 1.555365950063041 8.046518428363301 0.5187506589170485 -1.352763045492438 -0.7009590835304251
Ni 5.239137303470394 2.979017596689584 3.943975473836606 -0.5717449517258927 0.46187245767276586 0.7002504874991747
Ni 2.1209245196100666 3.5090607646892304 5.5332215568920535 0.476246981226883 -0.7327294339634864 -0.8912816526105038
Ni 5.042707716875586 4.185545051215278 9.153787901030661 2.5912863211019888 -4.037668632013485 -0.9065617186980258
Ni 0.5550759342239384 -0.3331493155047475 -0.039070700940174986 0.30816753981572087 0.49709477121016965 -1.0834093932201212
Ni 6.528367995259105 6.912477541870101 8.872771698906073 2.146949044099509 1.682219576593922 -0.6693882507026795
Ni 7.838584633503306 3.006507024984394 4.574039749020241 -3.31078074443244 2.6523639051396 1.5953072908813943
Ni 2.2456936307355 8.93493821866146 2.8087429088792044 0.7150577277153363 0.18951601401838328 0.01907424302263167
Ni 3.8098280035674494 2.204905897812603 9.461900691073058 -0.9232044694610294 -0.8855167251022684 0.20338968667668197
Ni 0.7416657152034767 8.392386186025782 7.14033529843437 0.31447137054656166 -0.0906252157877407 -0.02754757060096546
Ni 8.190073391871127 4.944234475961735 7.096814599443736 0.3891004680163621 -0.296276959025722 -1.5605107520274997
Ni 8.557896039598395 8.304053489771793 10.502980319454087 0.1191865723652012 1.701409519258812 0.38061557047380257
Ni 1.1935110927519117 1.4435944045211024 1.674499963340417 -0.6304630343923916 -0.5940243319493834 -0.3739265884894012
Ni 6.3059996660681685 5.333926491087984 4.654547591257732 0.07876034602935468 -0.9828283517712493 2.492849322579313
Ni 0.8028914856349967 1.0818899167322695 5.806080212432061 0.34081437931646463 -0.8610375090139817 1.4120657970178134
Ni 6.847461519667197 4.815790709635184 0.2058483575476489 -0.09751088716398046 1.7923944323788161 -0.022678672544438363
Ni 2.6249725564427235 7.355635320267861 13.798803004384315 -0.4336795401783176 0.044534592077265234 0.5803697172804262
Ni 6.035212350697793 8.737831969216318 10.645248683736762 -1.4278960791818505 -1.6259532979020255 -0.3455351818309017
Ni 0.2989825406104637 7.992158906243642 1.944387881005557 -1.431072420027303 -0.8873704904815556 -0.1777593877030874
Ni 7.236373492896533 1.1140595964085545 11.170829636162264 1.5818164554838112 0.9380587608650425 0.6744468961725095
Ni 4.799344043134015 0.14804631317691497 8.410394815939805 0.2898070350306622 -0.6440423157387231 -0.6874394517774354
Ni 0.06617762676264312 1.986484768581947 3.944442559165239 5.431495537425769 0.10527536160074771 -3.6425656665567847
Ni 3.2207647980664684 1.350008173081884 5.6564803941279225 -0.0006772285726827046 -0.5519464289427269 0.6885383412685689
P 0.02757213153207259 3.283938793621241 6.24252869070686 -0.15073195127165007 -0.6159273026700618 -0.6805530090702473
P 2.0939519865481513 5.318259866483729 0.6781984990802261 0.4098091613186233 0.08577225857081357 1.2149624575704754
P 7.80262752148418 0.4530332967745766 13.625832942886772 -0.3834694949828299 -0.7426009274409275 -2.0393784587066817
P 2.142089029873284 6.839163001655464 7.943314186354201 -0.7794270951303416 0.5107213608546688 0.17156534307723356
P 8.049684646617155 8.300378834570676 7.722586764575324 -0.1520748384527897 0.4667866071449316 -0.3810547148937502
P 6.155987271387228 3.2055492820291023 5.898693741023925 0.16344065708757013 0.8154857885261116 0.9022152688038719
P 0.29391978675664704 8.737296277793137 3.929669693409133 0.7288468110796286 -0.07215801022148863 1.4897159407021248
P 7.396037731289874 4.95624524155516 8.92900238176881 -1.1361776860610884 0.11154705354207241 2.232562408494955
Ni 4.078848477050842 2.910486686903002 1.7850911081323286 -0.4973549668500919 0.18349294775275493 0.35421059811771255
Ni 1.9463361061288096 3.097226837404837 0.31834731565369623 2.3052243549360556 -0.4895421556738924 0.5441505870473918
Ni 4.550426095162622 8.462871899602217 12.632484360120676 -0.6184125309857608 0.3892475351171877 0.2194176866738221
Ni 4.090351745506516 5.079971164119661 12.801740294417497 -0.5095612791082966 -2.2760927276774217 2.683886144117597
Ni 8.304748948812414 1.3436362645745745 1.61931434865764 -0.23129875438212424 -0.2964623355636507 2.0615447103910753
Ni 3.1180812105283184 5.124677902717408 6.968905584730852 1.8610128048781625 -0.4125903236081862 -1.7716165764015164
Ni 7.246053530894363 2.643768746729773 13.622435531492389 -0.04280243987750693 -2.4816385414651587 -2.611671826736876
Ni 3.057209748283709 2.6925166662392352 11.900288165583815 1.2383666954270287 0.4926632178013773 0.9263859525128046
Ni 6.46737435777763 7.633067088904709 3.87961543867472 0.7934586335227433 0.7061959064493322 0.7234251258434251
Ni 5.934878286945524 4.146768510653095 11.681266498073489 1.1847375972476628 0.047482104741363385 0.25597800229635914
Ni 9.568482608476742 1.991108631392561 12.520352867534742 -0.5463488802502913 0.1707976116732736 -0.6773051915569109
Ni 4.665872295905679 0.4302288189088141 1.136736260180365 -1.2581212523461365 1.3447715426465292 -1.1722782884383876
Ni 2.1316947366445462 0.7033534405413842 8.630723758484596 0.9732695044382205 -2.327081302910147 0.6864958569172435
Ni 1.6338400445114718 4.598459759441176 12.458317921111364 -0.7501548285287855 -0.22655018395354534 0.36811563823457893
Ni 6.435214076196488 5.616480221578052 2.5488959160654066 -1.9461417734380224 -1.1883417696591534 -1.0091135107200233
Ni 5.320252262654156 6.6238150495367405 0.7300882017961686 0.6916640313817444 0.23664459207506988 -2.6994724285916285
Ni 8.931799254883522 3.3629767737782834 9.375711700321308 -1.8802911934918005 1.6898351841576513 1.043041530926036
Ni 4.784100332811218 6.018906655623777 9.741005320645453 -1.2890521375970379 5.432200791022909 2.367477447339007
Ni 6.629397518051994 8.715614872297024 1.800303804741152 2.247027949100982 0.4570051022781355 -0.8385084746735302
Ni 4.615301145938372 7.930601383053555 2.290877792566538 -1.9644613976828171 0.45563933227886044 2.0865445748695226
Ni 7.932847527792858 6.181841431127064 11.231311077458415 -0.9241411223426859 -0.8980544525579631 -0.5856808450806945
Ni 8.000964921393123 0.5521315110154722 4.629747897792998 -1.594418717628854 -2.1814146819765465 0.6457770390416427
Ni 5.749435073573496 5.182363410708362 7.071876753980393 0.5533075709563116 -0.9245622690405044 -0.06127093099533964
Ni 1.650183331966061 7.992440849097947 10.021388091157366 0.9953545092627181 -0.047904022770130394 -0.9049889748942673
P 2.5320629878538394 1.9091478436458824 3.169139181824059 0.855817655375939 0.41833648206334406 1.896673748614882
P 8.812612612273343 3.678780964886142 2.585346428079567 0.4749480599098014 0.4626113927213194 1.0272030212318826
P 4.067899696208636 4.859567036813721 4.515512171704428 -1.2777860777649155 -0.37819719084029707 -0.40307878457332513
P 8.761242624218836 4.138028282169617 11.765405764274435 0.6249955835199171 -0.31738365909735017 0.5641594260691509
P 4.307776676651959 8.766702917497225 5.957345373195634 -0.71402542979608 0.012024792375018 0.30559515110285435
P 5.6410844346638 2.4093050690891205 10.49782264483932 0.517927648795121 -0.7542922477359267 -0.5104963893280563
P 1.01624422215475 7.690367274994778 12.06056234035197 -0.21351109138140006 -0.9441551035707674 0.17570096251216194
P 2.5436414410706614 0.8711959013286193 13.750041927541652 0.603844917584231 -0.021392606743163158 -0.5659694826946963
Ni 0.72596431764719 5.33063715778775 5.922765082115034 0.6391556770703831 1.5849933105498961 -0.5494889685411698
Ni 2.0678628744297267 4.178938190329379 2.900474896146606 -0.023622267404630286 -0.9918495814332532 -0.4669095058760411
Ni 9.172982570551795 3.5694529240815194 0.5287744251552704 -0.12797871673553443 1.3290484754843177 -0.05838769591027364
Ni 5.011073728622482 1.325930253324174 12.396406089734366 0.3347229217067461 0.7419378399356319 0.06574285072376419
Ni 1.514343264761556 2.656183630414369 10.30666820904857 -0.6629612641304131 0.27358028875915463 -0.2091600135015559
Ni 4.423222877395015 6.983508344964859 7.511625843269598 -1.8230707784167506 1.5066134877884116 0.3123262991791008
Ni 6.279825971093452 7.877699505490655 6.534672237481381 0.5428498659580974 0.29665593963169556 -0.63800562262634
Ni 8.254018031227668 6.907872475249773 5.565559462471406 0.20131609197710493 0.8480943185897524 0.2636388612757266
Ni 1.902277836095966 0.5340148030072998 11.551899838803841 0.7584314667152808 -0.5494360038160473 0.23477488585618278
Ni 4.2970440519980535 7.004400310468914 4.60621224812507 -0.10513266537529635 -0.18630856282467914 0.12570174777589965
Ni 1.1855884985459204 5.632372400465752 10.613969943480084 -0.3824875906855348 0.6273193465570873 -1.4379241528418139
Ni 2.1584135211375868 8.088696139557927 5.128849717151618 -0.3779956163524522 0.469006754724702 0.17838416577127988
Ni 6.7596457186461025 3.1207596676442226 2.1128186625487766 -0.7324391564165773 0.1553517094318486 0.1727171972934896
Ni 3.9411851793884933 5.786219217965251 2.188086126934237 -1.8069301641011462 -1.987884147482131 1.3360917554843441
Ni 8.590507429746426 5.769528200990351 3.4514617191735963 1.1183028626631968 -0.4060931459196168 0.4953950149102436
Ni 5.8266216289872625 0.9566509008496602 6.002709038643912 0.2192289677017837 0.33330598675456147 -0.4505727163892305
Ni 1.6921458267818985 6.454621142667866 3.1876665865900033 0.1942203614725881 0.4354330325343146 0.527583169607014
Ni 6.787266720272921 7.8443080734457125 13.03519085740168 2.391270435993546 1.6973060386133993 0.42035556937590185
Ni 9.254229103067566 6.872873968935287 8.851960557020252 -0.2976591840852293 -1.7896572359533114 -0.7192455405444388
Ni 5.81696038717972 2.52438474412158 7.933905753306019 -0.33768303277633455 -0.8448290175749191 -0.6847806739983496
Ni 1.4639600766971204 4.644670193261887 8.32146909988226 -1.2139597273375737 0.43452183357395485 1.5343981141008478
Ni 3.53591112251428 6.711790618175275 11.544761045732821 -1.8437758721745858 1.3641502042834572 -1.521414043136354
Ni 4.267242692297938 0.6421746605855817 3.744527219081697 -0.04501795947158699 -0.8245059897468511 -0.7799323169015342
Ni 1.0038199403750103 2.3605101591039404 7.978953642757475 -0.47986015249943814 0.6621881334098144 -2.210564306957309
P 5.2043173609636355 3.107395576350131 -0.021568628354389052 -0.6600852281341987 0.5148142999771199 -0.27962880894607967
P -0.28086771222132 1.095977661352413 9.872352158561839 0.8293815726715974 0.05204761262485875 0.42428190101350155
P 3.6499852013663827 9.07740394294215 10.209516340311902 0.18869454655835244 0.029052951501898353 0.38373251883622944
P 3.2072409391549366 4.44421822194565 9.990769097179763 -3.770642342322764 0.012236394165191828 1.7025055805364677
P 3.345092198720156 2.739469549576284 7.34100812498648 -0.3995350330861248 -0.06088526552114676 -0.06528545147137144
P 6.279731990142017 1.0937691089936847 3.350595723236204 1.389849151711458 -0.4236836053078703 -1.130236380875989
P 5.7518315878350945 6.323057208753665 12.17899337611261 -0.6140812506002585 -0.5305093421148734 -1.134247816028227
P 7.8541384809658386 6.657601201577712 1.586619315462832 1.1304268996202402 1.3835553482829461 -1.9565894511339075
