# total energy = -340863.423168476 ev
CRYSTAL
PRIMVEC
9.37431002985915 0.00000000000000 0.00000000000000
0.00000000000000 9.37431002985915 0.00000000000000
0.00000000000000 0.00000000000000 13.72025029847941
PRIMCOORD
 96 1
Ni 8.373527605550072 3.6632554487881617 8.313662323082607 1.110289505440417 1.080177516546385 1.5425757648156337
Ni 2.613717051366432 0.9571358216271441 1.5737123274339073 2.670953752326645 1.8294787388256233 0.10613513849788173
Ni 2.439504870320822 9.061339494684729 6.01598701659883 0.6686781120095322 -1.292569149611361 -0.6790481423899466
Ni 0.4686377040022497 1.4993459244940226 1.8447836313505708 -0.684047395376751 0.08683129596294722 -1.734456679521768
Ni 4.399813751043631 1.2426023163107918 6.2521671378932515 0.8642519021862213 0.5023763313240832 0.37121741708835426
Ni 9.243491716482902 2.909120314878553 3.5386586794203443 -0.14546324667354302 1.1588722994451268 0.7070320291973823
Ni 5.903115634448612 4.508368263339594 8.798947864596636 -1.4709749126491956 -0.6313042993467644 1.3121632696932046
Ni 9.020983089206826 8.406937647158259 0.5149692948115384 0.18849760005619795 0.8569052320131629 2.7529444323678396
Ni 1.5810149150918138 4.696107574026229 12.153068560268952 -2.7597144041018216 2.42464978278494 0.08302734883582476
Ni 9.402620632391708 1.5681533614760916 9.979301011352149 -1.796582502318235 -1.334114320042999 0.9571844259508998
Ni -0.11374600529332865 3.270762454373685 6.223657048234727 0.14967754186520674 0.7857597222165886 -0.9530907154975005
Ni 7.205019837182915 1.9284174773695393 5.807672032420106 -0.7391150257748562 -0.5101606032551924 1.0831949632164701
Ni 7.08810344017469 0.7389084418265057 10.29862563967229 0.8987687050161683 0.9194254620345714 -1.4396894722723528
Ni 6.932058672326798 1.644760224557491 12.697351323124487 1.0497953047101016 -0.06732407916795502 0.04325418270294486
Ni 5.957467885078318 2.905726814580527 1.5292724724261149 -0.805334816135039 -0.7284544607372164 1.5706121021275596
Ni 9.286754158127623 0.39399007175589856 3.8901296923316147 -0.3612880737897842 0.7653932427450948 0.7702122614002929
Ni 1.3393920692862502 8.721333263167065 8.154507159105199 -1.5310942465385955 1.3036120376890838 0.15902375896679707
Ni 4.577531924109853 0.19795730882157453 9.648093507402793 1.0950449205765205 0.8228262880515829 0.5550872885645538
Ni 7.438140183622983 5.602387762734065 10.23231551893164 0.47289709091804355 0.44336514289719775 -0.16521137583474774
Ni 5.9132773867222586 9.162553922081925 11.902386381071091 -1.0256341340828659 -1.833902321814616 0.5382506766231892
Ni 3.684366395393559 6.000786572584332 12.77407442765256 -0.6745003751182642 -0.24161582003741616 0.3396442702677634
Ni 8.404819053049547 2.99773566934606 0.283167913818797 1.4018343490977923 0.5889376614550954 1.5882521838068258
Ni 2.444126405257084 1.1198269754178543 12.879405114665396 1.939307267014692 -1.154353842749483 0.46129575923368943
Ni 1.7129677056857657 5.623761190025497 5.955219925488631 -0.9545392750185691 1.718920017338749 0.03732933257807765
P 3.488283948615093 2.9781714839262263 2.5955008917555933 0.953221327538094 0.28266579600019065 -0.5726803190559685
P 1.1993305003558554 6.836665691573455 12.714241017839827 0.037952825094689474 -0.23798542237368045 0.845578237036118
P 0.34297976271803343 0.017368721967353947 6.281761835243713 -0.7481676228954276 -0.12619231425907299 -1.2938834975474103
P 9.037613115529195 8.807848772146292 9.87170642842226 -0.3033343800931357 -0.5763773082915816 -0.14822641124097696
P 3.226703196360643 3.685613178652226 11.743958663566408 2.307627822171226 -1.1046600750687814 -0.1860365401102151
P 7.326567143437616 1.4772131780751308 3.7865969980181178 1.2576620533215306 0.333996842173999 -1.3147253739934261
P 9.04357517682628 0.9755844641313283 13.167050199043135 0.25089595978776147 0.09602787486055074 0.04529846682648327
P 4.745641429205146 6.604520273395804 0.866187201346989 -0.6771229003427758 0.28790621846352354 0.5359374551089802
Ni 8.47012987232122 5.882089056635154 13.18291059449681 -0.2653260191701624 -0.14995650655820625 0.7963691223013188
Ni 5.362227309322125 8.159352740055612 5.862910155365179 0.08117923988349246 -0.05400550768217796 0.8348816765542201
Ni 0.2744319941289346 6.335768173826466 10.463214153850624 1.07012630295797 0.862784059391443 0.5646667047228727
Ni 4.916816333740921 7.129631634429535 10.73584909271124 -0.45755171881022494 0.4235614779077092 -0.4995491462879333
Ni 1.916418360293647 3.289154851016576 0.2674143855015808 0.7250827160515061 -0.5944534490670019 1.2398247680297938
Ni 2.1782147216830543 1.8037297771926315 3.948893493348754 -0.6162713162730419 0.7461161396830377 0.33472549280990743
Ni 3.302503868763506 7.550444420005161 2.694767337489998 0.5154300791842478 -1.1787207016296217 -0.6763831939632738
Ni 8.725289222078024 1.361093597435227 7.652387231306101 0.8865600787651182 -0.9069982920148122 0.06256548143704709
Ni 5.959352121431642 9.113676268618093 3.9118077847050525 1.807659843178319 0.9841247019851697 0.4982132010853291
Ni 7.912189676912664 3.8220000179781293 11.970095148895899 -0.07286532070115839 0.19517501207637353 -1.185707674470416
Ni 5.201879733085299 9.291600676509058 1.8430137615818765 -1.7235179211220768 2.069396859445643 -1.2584035594732457
Ni 1.4036529658137824 8.638080014142849 11.470884069556684 1.665019924886184 0.3820553882441227 -0.6340368677865791
Ni 7.458154335933163 1.1630800427523593 1.601935563199836 0.07410536375584656 -1.4766560221943732 0.22928506638620513
Ni 4.5042248182243245 5.81503461566339 6.143145784948555 -0.09100162529055296 0.5461565617338272 -0.2531338479793447
Ni 2.3591764060838534 1.222775650204923 10.421696271337016 0.24969885415586673 -1.3322430711622153 0.30360923102107706
Ni 0.6836918797949275 5.5190126476770445 8.194447345209532 -0.8157346713121243 0.3383672033275527 -0.8644583617700725
Ni 5.022680419005023 5.3221896303915495 3.5649742430574105 -1.8477065746875596 -0.8646136564010142 -0.5952810871746199
Ni 6.531972486637734 6.367097118566803 7.525584686744568 -1.102436327944585 0.970702772152309 -0.8748319916949128
Ni 0.8884568126950277 7.657602160079008 4.237801297312526 0.3190484483942828 -0.9987537647522541 0.6330958440295484
Ni 2.0386874884349453 1.8515950051531826 6.722483780855104 -1.1745236328291384 1.4971633981191055 -0.8019111351654705
Ni 5.643091017689942 4.941011428407231 11.523048356182082 -0.8256321329314942 -0.32275495071159255 1.026923799428567
Ni 2.9430740664792414 4.444397970428743 7.416165863046733 1.0862733450314777 -1.310404120910253 1.1815442871213457
Ni 5.941953401671597 7.245863706792026 2.613172403942909 0.6291566568761423 -0.22122440086525774 -0.44843484411062123
Ni 3.3930503311354143 8.509576969708215 0.3732062885770231 0.18484303402274618 -1.183996091095948 -1.3516962947908204
P 1.6745892796633417 3.707192840768401 5.0885386979932825 -0.9963572394956197 -1.1018843120958572 -0.10941997989674059
P 4.975865113788612 3.4882933229253084 6.520590199174024 -0.8292980118188557 -1.2836667049154087 1.769735814439036
P 3.7656135420316517 8.995569334212496 11.568037545768505 -1.645645119903998 -0.3192471946686502 0.20460813246481535
P 1.532202881799493 8.971542977130065 2.6388711379677923 0.02380867238382351 -0.932077346470627 -0.5117333470589509
P 8.41810245062497 5.661661526226928 6.644580450670896 1.3686023265175398 -1.8432757926097156 -1.048378112647601
P 8.234965926254164 7.8896350865340725 2.8198956302470357 -0.2926473326929347 -0.9329067843504578 0.23249123202832864
P 6.363825484301579 3.0900163791078428 10.523445971847517 -0.025557536754130177 -1.0723690762455595 -0.433596236435892
P 3.0148437854894214 0.9122497494530918 8.319480020002372 0.26114694809180833 -0.3607753958194238 0.1481107115987191
Ni 5.375791936204012 2.20414406373924 3.83098248202666 -1.8005006064257185 -0.287081408569383 -0.1718167969664073
Ni 3.848763673643498 3.7348376815940307 4.883366920029828 -1.820860401028993 -0.20957344688989066 -1.6195471372653654
Ni 4.105469784585866 8.194665766637554 7.897609812234434 0.6496133820685974 -0.47345887695878464 -1.3178214964202466
Ni 6.822126136429152 7.818446574757257 9.086455146614206 0.4246937917399396 2.171990303338853 1.2126710904331375
Ni 2.2156369680634933 4.948229647273198 9.734750568466273 1.3976599060051282 -0.5332866477496946 0.9733463804227429
Ni 6.630009022871859 6.340961541685875 4.641231299455474 1.391520882986926 0.33838288705683656 1.5025151493493218
Ni 1.161514532946364 6.89566760007007 1.6339853923957484 -0.09266615747716944 -0.5064975525813084 -0.2068758454530695
Ni 3.728013183757117 2.8845314991831894 9.743161199591658 1.4645137304048843 0.9800497605848475 -0.44428019851229933
Ni 1.3838075510874823 2.8169895940802183 8.940211220096662 0.8127259663927875 1.9102959673840068 -1.9435706702767368
Ni 8.586933777606857 7.578520479100706 7.129343843105919 1.0597698994243103 1.6959405257244407 2.1451970944054084
Ni 3.0725707877967214 5.004747363562693 1.6854503554790672 0.48670108668067147 0.07154685900005098 -0.6145795303929157
Ni 6.798493500375773 4.292815374243449 6.738412608773351 1.4003829613632461 -1.1861925845266346 -1.8720801184359175
Ni 6.987563963113016 3.8766616208449474 4.380642349221829 0.2603715033783645 0.30639476418601425 -0.9848466677528588
Ni 6.657888221452878 2.237235378800099 8.309450445502765 -2.2622118559302717 -1.113519068121308 0.14068999365461576
Ni 1.862853551722047 5.32635182412725 3.634481003581559 0.157038095995336 -0.06945835190213843 -0.6236681229577453
Ni 7.761722623643019 8.486656781231218 5.261235990508061 0.3912990183295777 0.5234125831690921 -0.7314215137853403
Ni 8.781853809918596 5.493411406478402 3.764617052855739 0.0015583456260553805 0.3622105856040536 -0.28925861872635994
Ni 3.77650649050211 0.14769694460095265 3.913797950763812 -0.6513151952510525 -0.003110777714839804 0.3358570353111893
Ni 0.9540891708070934 2.429643095974073 12.008429515660309 -2.3480008266716337 0.8335894401053578 -0.6631386702485418
Ni 2.5287295549523394 7.31016210056042 9.262170967018388 0.14274816173522514 -1.574627908155172 2.15752450562251
Ni 8.736988361227018 8.036896125710003 12.122760477911088 -1.9343226693159072 0.4407462172171119 -2.003483030361653
Ni 5.117154717357242 3.043529174748976 13.078842627070005 -2.2780405954324126 0.5951682157458396 -1.2934662075043335
Ni 6.496040755581565 8.081227238719295 0.4326787874464568 0.7626195366546995 -0.6163913867906741 -1.501233454423421
Ni 6.8514677274037945 5.156648686295315 2.048995479947954 0.9639199449025206 0.4147557066906211 1.3312966480885458
P 4.936642999846789 0.9014346077574223 13.535259980275276 -0.3097801357184794 -0.34787385726640735 1.0963636393879441
P 6.79972153501401 7.124532009672281 11.943917387618999 -0.3967551563481425 -1.2452125147042683 -0.11413666864611956
P 6.589549499981586 4.4043696658083835 13.916038836644411 0.7365277246636541 0.2537172312866405 -2.6727879773219065
P 4.1897542077337935 5.866171477889165 8.880185636924512 -0.47602175258995444 0.6024806902468527 -0.4135084645470814
P 0.44710022628204477 4.166412175297097 1.5838384573287345 -0.01444317200852351 0.6632685109581867 1.1150110792858023
P 3.4410655480594143 7.437924574488025 4.835098596730008 -0.01256780936268158 -0.8208156853794574 0.9142796561675738
P -0.0785726559335981 4.075350125863334 10.275754197608412 0.9930158338272123 0.4576468496271925 0.03848735744192082
P 6.07175947522619 0.16291145008077534 7.636458403387856 0.09469321520952724 -0.6582301772033309 0.08638469534383188
