# total energy = -340890.86861827085 ev
CRYSTAL
PRIMVEC
9.10385989346729 0.00000000000000 0.00000000000000

0.00000000000000 9.10385989346729 0.00000000000000

0.00000000000000 0.00000000000000 13.32441918634993

PRIMCOORD
 96 1
Ni 6.033273627712166 1.9763842606198092 11.416842099085956 0.6504155662549185 0.586591529820422 0.15438394620194057
Ni 4.445542250741855 0.06054704113953082 5.731378708284706 0.35673927807683725 2.586972267107667 0.29151656152260114
Ni 2.5205037600450546 1.5878679348690434 4.797483819282392 1.2483495176713533 0.15686968873827176 -0.1739243302277134
Ni 3.6091160171520773 4.2059650732074765 5.158176017973638 -0.08283323054714767 0.7801102372402952 -1.2200167321649313
Ni 5.246044653105357 4.707059730672413 2.708214426869262 -0.7943551771950835 -0.5031949705706366 0.4582849974318236
Ni 7.208017503479045 6.454245214061429 2.5402072440600127 0.5670789137087912 -0.5541976868707487 0.9633756423632763
Ni 5.106955881317462 4.567106092192552 11.590219648859316 0.45061539670170786 -0.3671105940088323 0.4051783474148312
Ni 5.709868108076535 7.900356946187358 12.318451969670193 -0.4871196622753289 0.10421786687051085 0.3862167187106639
Ni 1.6558282491377063 6.4342531376871515 0.7694309284721497 0.8657909645385671 0.09763070057129637 -2.261782481702337
Ni 2.4221274497989493 1.6822658583321068 0.4737912711925795 0.6880192355403054 -0.02001552388997843 -0.5924896404724118
Ni 0.5773057999749516 0.24303846507422416 4.708023829437457 -0.5270941457857374 -1.0130089891196876 0.3740116920040398
Ni 8.612424453332403 2.2148871826841674 1.1172648354188464 0.04797858476180769 0.817291988496915 0.7605004334291676
Ni 6.944515382086924 0.9590916420902419 4.793153113120623 0.25723295774938276 -0.9906018250690809 -0.11446422718886737
Ni 0.558290567769599 7.552826197775845 2.5332382392947537 -0.46527865514083744 -0.28969004983682367 1.0037967264928003
Ni 7.718716733154758 4.2130933955212555 3.7355540652014945 -0.08615021073552259 -0.7228787664216518 -0.1214951658937198
Ni 7.774705471634634 3.8713891174556156 12.442888989310198 -0.565605157376742 -1.2128078731213177 0.7209077587382101
Ni 7.884743826432401 8.900734592994063 6.8859529824089565 0.6580537995264667 -0.9616139224771633 -0.1856858416390157
Ni 6.375979330368503 0.8410236828470683 0.4544410169423393 1.1866615537432532 -0.999965268561852 -0.12085239010339834
Ni 1.796127834294353 6.60423130616809 9.147760548711243 1.1978036864030017 -0.6440986228979553 0.8277484079435486
Ni 8.942530413865788 4.98295220540943 1.4179981023210981 -0.4075087953202208 -1.2440007537843543 0.7332256568736145
Ni 6.791088030932231 1.890216226520292 7.003954483474748 -1.106251073704985 0.5101888853899665 -0.4146438637031052
Ni 3.3564748006390603 4.431667968230744 0.5140804032483021 -0.34384339595077557 0.5871139779827953 0.05183421106247202
Ni 6.165634647022562 5.843858718311791 4.925091713330941 -0.8008312718377304 0.24613504806400835 -1.5272255076118086
Ni 5.601186228406167 2.654603616599295 8.868627099844334 -0.5921988487048704 1.0947045065179664 0.8517959358110556
P 0.19345429204485062 5.5049493252401875 12.655812796170181 0.028505820749176715 1.1133416620031793 -1.348742097258503
P 4.019290425641644 6.285368612630258 12.48542040206309 0.13831300878200695 -0.7066252806772668 2.7149147312886277
P 2.359957190436498 8.293215813117783 1.6421151049470988 0.08665311851387011 0.9513235962947487 -0.763738223640175
P 6.304113460196122 7.912847441991325 5.760559310471625 0.2958743242706646 -0.19878432669418666 -0.570585898420785
P 4.437248634358901 1.221692481350736 12.736013250095137 -0.25850668225548384 -2.2754147277737906 -0.3559378652214644
P 4.074887698145157 5.992861593547586 8.316982349812998 0.103252417633448 1.330449212486586 -0.9252520960186773
P 4.694114041872676 1.317091829404496 3.745174113974126 -0.8357249983911219 -0.4820090805216409 1.5807633316289487
P 0.268636698384422 5.685050985947081 3.6508644979522424 0.28820549487149716 -0.12418351135916032 0.31190386692970157
Ni 1.3940922765691781 0.9085197002600445 2.4595142713136338 -0.1936680885135439 1.0873285257688692 1.2900954912598879
Ni 2.0513454431634357 5.950437606341696 5.212819205958014 -0.4866946589227683 1.8467848342042388 -1.1942707335490788
Ni 6.331497870821727 5.6473245904575515 9.041870822876936 -0.7141917801706151 -0.1130532057739537 1.4007262036352779
Ni 8.87264918515497 2.3887618032089093 10.250288966084987 -1.3254255340197496 -0.9211172479146974 1.0904292761813803
Ni 2.4516512675046793 4.926034873218181 7.350908957553615 -0.32889628772264 0.44193432398794213 0.3309485422659784
Ni 0.7694982970355239 8.94620837327162 9.106414458519339 -0.21411170107987643 0.7484931245556463 0.7117667156688903
Ni 1.645367914094881 1.162562911200037 11.353444639406908 -0.9926445665307227 -0.604194844724482 0.7529236495231743
Ni 4.152397961465104 6.997672820133103 1.6044333183711545 -0.48032912171605663 0.009480685796925606 -0.40464690039139345
Ni 5.695720709767962 7.866454171862308 8.026909702871711 -0.8673099722862546 0.7009961074159475 -0.2542095975420267
Ni 5.515191167645043 2.904577402157092 5.018442692903731 -0.3858323387880517 0.23807026877800294 -0.2747079746056946
Ni 0.5875904305214095 7.361253673575514 7.1904962146858145 0.5039567884373257 0.121501593651623 -1.0406935995191495
Ni 5.394546816045803 4.7739639971908865 7.005020545470844 -1.3532263582821016 -0.6260775037301862 0.10565151399324386
Ni 8.4533253974504 6.995797424990524 9.331343525449796 -1.0672926901639168 0.6545103051495824 0.25932609283298563
Ni 4.757067233187854 0.07224550113085461 10.290914940957581 -0.03020326305625766 0.06982550543357006 0.09121091308788162
Ni 8.36222307127672 7.227681840896368 4.807517183295184 -0.12857598399990114 0.40472994702350296 0.10463258581042625
Ni 7.37278826408836 6.292788258461331 6.933641731803937 0.568372435709234 -0.10203551450721138 0.6626509319788458
Ni 2.4064870184642455 5.3707857416665385 2.771958743611091 -0.3213159042722208 -0.5663582334926827 0.18319161446225224
Ni 2.376699188820968 5.253792037893386 11.46996676323644 0.03477108493259818 -0.09229386173941524 0.08310011105528914
Ni 1.1159966677326274 3.534591819884391 3.9917831129071812 0.2923981927966061 0.1775380157209007 -1.0057191403264938
Ni 3.3951024782602173 2.797698086749978 2.7971682421028996 0.07931596142250855 0.6994223351709244 -0.30037324058228265
Ni 1.0254405731538745 3.08019085992568 8.392159293836619 1.2334697723460435 0.5021133074706836 -1.0948153210642178
Ni 3.8459165174122507 2.7869737397696044 7.049870711344195 0.8203084067257357 -0.8840123726426002 0.700997135857212
Ni 4.12590572911121 6.978991699586646 5.990845088576319 0.0509392100520284 -1.9638800712580502 0.4964633082737579
Ni 1.0154627426865663 7.330409796182046 11.345103682952391 -0.5417759161676282 -0.3357814448782475 0.7822136567365431
P 0.22996623262166244 5.4309531518475955 8.118182271225807 0.6971847040896573 -0.2865085667850485 0.3345249467633271
P 8.626098450925372 1.4661857432394452 7.991653184577236 0.6480555506631742 0.40271677324821614 1.4982039235684779
P 1.9917606800169654 3.2065615394117226 10.329369645240345 -1.1385667551185554 0.5158568823090213 0.1023713005800753
P 4.158406509009285 6.310422435117513 3.710611309805208 0.02117586274666676 -0.40051205228741343 1.7048180307197285
P 6.854751323320813 3.8769970951635186 10.390062348138523 0.4422431134776125 0.18456586910195957 -0.39145791250494516
P 6.341812544105905 7.650073629392438 10.166318603769055 1.4855008741795126 0.014911369894193675 0.22558344916490183
P 2.2104536029053543 8.24617616893477 6.032617239412264 0.10164779215048944 0.08933400778014293 -0.41968322589922563
P 6.758678289633311 3.977713097407888 1.390429793725202 2.523015047529416 0.02048757843039052 0.3776438894399883
Ni 5.189072697754614 2.895946942957267 0.48819630873675973 -0.8971643366435258 1.1166272747329866 0.09729877115317435
Ni 1.5959976817735197 1.0486645197981288 7.048258417753173 -0.15518510194699728 -0.24731698418725148 -0.01385336094332453
Ni 6.922420314072183 0.7680853779766497 9.501430029863728 1.0191328426292385 -0.7864585480558262 -1.378806006523419
Ni 3.0261958667672815 1.5014267849720635 9.380578110258417 -0.01629153807117194 0.7393713647600363 -0.6103058427182264
Ni 6.325607673456445 2.2135398114166844 2.6695876596340966 1.07543665942729 -0.04983980634026255 -0.33689421832645206
Ni 4.122491781642925 6.69704515800587 10.445504855023474 0.5635320768977972 0.951268317576781 -1.4653156574808892
Ni 8.028930759772935 7.2929383087701485 0.21661997398564636 0.6760672053847518 0.2701866896965734 -0.0079580785048121
Ni 7.896924790999242 3.821208641601782 8.214091435434831 -1.2136054293219487 0.065810470736906 -0.05268267510569636
Ni 2.8951549071446245 8.344161013204513 12.653535010419342 1.0229427032936318 0.20174469487409125 1.1824832539958474
Ni 0.17882894109071704 4.833193709800655 10.386478158489819 -0.15139195345315218 -0.3250730573218079 -0.2882528031696649
Ni 8.945980776773736 2.4365843793446476 5.689047580449954 -0.688346279862421 -0.3071936059382258 0.9024070730997039
Ni 3.40059210578922 2.829179234337525 11.848273110092054 1.1672037021289576 0.5965123884785598 -0.2849741324183931
Ni 1.1312365292310524 3.4728130264983035 12.510816529683165 -0.5979810026042862 -0.47798658962580903 0.823468292510956
Ni 3.07923495463456 8.452242038120463 8.247788462525794 0.8758529767602593 -0.7586194143563709 -0.8161774152764976
Ni 5.695793540647285 8.466808213985146 3.469226105691625 -0.6423433307697454 -1.1913779853823159 0.22974606518302368
Ni 2.90507811445244 8.277429720024433 3.878857924130232 0.29862129088818246 -0.39627975937362075 -0.44898171775302675
Ni 3.8449697159810463 4.2758098864786325 9.526733298112667 -0.3596808772036644 -0.8312373949334136 0.20404788908597113
Ni 7.306830799001091 6.013663913454336 11.53428371276695 -0.06750508483050956 0.5448712672635003 -0.9552514705942452
Ni 0.5664922351674072 0.0885741842751646 0.3367809106233767 -0.31533654676033435 -0.6514614910209298 -0.8747548586000741
Ni 4.318042692626299 0.6656287177164503 1.732561042820875 -0.6952113824133704 -1.0928995920987437 -0.4674887754182788
Ni 6.032417864880117 5.70974065403772 0.40967551696620125 -0.754486880245236 0.3345462869195658 -0.7289951637320349
Ni 8.205363564933911 8.686274964966346 11.16489095515453 -0.4141728376039577 0.46170482174665 0.9009279174510161
Ni 0.15403913054100912 4.897749180460948 5.99689460349012 -1.0393512265586422 -0.7520484460070725 0.04852520129389707
Ni 7.878116216413971 9.076593854980366 2.4209139052722226 -0.09055631022301823 0.38512271431553674 -0.19223726960428827
P 8.524289985491153 1.7924407710286052 3.546907521577981 0.14238615041011607 0.45111521915626174 -0.3454372228004567
P 1.590052861248746 3.324711433394136 1.6286441234302413 0.04930090311765702 0.4800763822753022 -0.16368002679188584
P 4.6304689572039255 0.9358039684265794 7.883925389426004 0.8600185808311639 -0.35963562578802577 0.6644496757504815
P 8.124430250285766 1.3660250764499164 12.477892420299025 0.3928043992305106 0.24572110045504134 -1.0037743578952971
P 6.16304915080658 7.816701577424499 1.3173949879396798 0.47818764989302165 1.3752571128298958 -0.42747006893349604
P 1.9538431034692116 3.1462484674720184 6.243303317505036 -1.5338034179396423 0.06994763283373115 -1.107964456851666
P 7.077249659653851 4.012926827560761 5.993736474485459 1.7926065483896223 -0.07595990046608209 -0.18704055589469723
P 2.703618798383954 8.517635063892975 10.518230129571872 -1.4762173919950576 0.32598888426785794 -1.6974765027529928
