# total energy = -340867.6516314028 ev
CRYSTAL
PRIMVEC
9.24579921638405 0.00000000000000 0.00000000000000

0.00000000000000 9.24579921638405 0.00000000000000

0.00000000000000 0.00000000000000 13.53216173288807

PRIMCOORD
 96 1
Ni 8.106522402573884 6.942365358720322 11.84958612278681 -1.8056227581436322 1.0293491210406078 -1.5353851606044655
Ni 3.612768222366797 6.089985902990099 12.725874290154534 -0.172170066540768 0.23932908088576846 -1.104507094430685
Ni 6.03395636104213 2.201221334635051 7.5282254124386405 -2.1794729848691436 -0.7425993847790308 0.5191208977722737
Ni 5.409716995669353 6.35669946678103 10.99636992224697 -0.1601470739379629 -0.23445092685786076 -0.046213008220952666
Ni 3.858586280414756 3.8433584494595903 4.390645029744424 0.0681753714246568 0.0629784006047496 1.280290589354324
Ni 1.0430093395393336 6.819682851771874 6.637809664196909 -1.4695950015825334 1.4761808823301674 0.2778812301273537
Ni 5.2761891664923635 7.338002343785588 6.813998534545865 1.3971320585261164 0.4565358759512008 -0.445888937760316
Ni 4.914058957007863 8.1755422921187 12.937057585143569 -1.5715361566037258 -0.4403736643690416 -2.304807579113611
Ni 6.59576809155803 3.441989069013509 13.141677287421569 0.7754331434796 -0.19910082949334099 1.8327733504164954
Ni 4.1928681433072965 1.7453941980712246 5.4253007898860695 -0.557642965106872 1.5107462790098627 3.389958123394556
Ni 0.43463576525281256 4.934649351383791 2.3024434175215465 -1.0096981795788997 0.010166913230672814 1.893853248446951
Ni 8.7359486611864 5.2159712775967995 7.8225635744857005 1.6587528609305495 0.1648917877117999 -0.877611868432895
Ni 7.589950366571419 3.378692329050507 6.609459270719176 0.5048736438246402 0.6343438575040365 0.448888386708272
Ni 6.681337961315199 7.973068539788906 0.689362150638539 2.9682308704821074 -0.7717700928057161 -0.4352026616910634
Ni 1.8719969237962297 4.930054189280137 0.6164802908508739 0.6916565751825765 1.3686982286654557 -2.5606855654969967
Ni 4.1087960929883405 4.076555991870755 0.019041723043208055 1.5925158441791865 -0.06629435235186001 1.4549844507582104
Ni 3.1940814603912524 0.48983041155096213 0.2898493266319214 -0.31105257467299974 0.7480256980009247 -0.11979566670410981
Ni 4.088214944411414 8.435968712588737 10.238595331058002 -0.3661520867503049 -0.5549067971226315 -0.7678884983631227
Ni 5.714477022350695 1.3639217770759728 9.888884078792067 0.8792918272384793 0.9463310281761638 -0.045621140273224656
Ni 1.0917162086782606 8.44175658276356 2.2382738741328203 -1.3691497143805775 -1.3302682068240315 -0.2781586521584564
Ni 7.922558739844722 1.2642428180427967 10.891576187206265 0.33490032782487483 -0.8998601383081342 -0.6452111392358437
Ni 8.683192132084898 4.254140053289011 4.864311010901387 1.5413154100459714 1.1036030945591768 -0.9639716240760625
Ni 8.493283420597889 3.643991285594237 9.340561044439186 -1.5659275521676967 -1.4961316144204813 -0.7263433279314845
Ni 5.348611510069663 3.857578488323613 2.247299623117904 0.9211046495092072 -0.051480684377795204 0.1950549415587415
P 3.7332779665499354 0.7778481454007231 11.563164213844678 0.46534524671271466 1.0814905789308538 1.2105154775427152
P 3.43960365287117 2.3952721640746484 1.53680712344176 0.7234384955798637 0.5982797647916277 0.6345521168601007
P 8.327090183549252 7.615191397845009 2.5191205662771616 -1.1566508663137758 -0.6074544893123602 -0.08651685004632197
P 4.736743023760645 6.7990092452049335 8.827705819635248 0.2799417122008082 0.5388597709620978 0.4522771006748469
P 7.997930493303441 6.45486211477799 6.36414880703639 -0.2757194465893445 1.0326576165885506 -1.6759365717986878
P 2.89030148840405 3.8650306023186727 11.128524750272264 -0.7589413164721639 0.28472216430858704 -0.5056508883102969
P 5.9128086567279015 5.554293554652914 12.982742002588965 -0.059927529593567765 0.29310653171754036 0.5225445787418421
P 6.292977420063968 3.8926570497346016 9.545005076536162 -0.8257684013990423 -0.6416707301827529 -0.6930048616803549
Ni 2.013993904858424 4.103331825778564 6.551866264160086 -0.983033268693204 -0.6546198341442533 -1.0822961055512843
Ni 5.591637336819225 4.519226356455711 7.1565914461606885 0.3023216225579051 -0.01669263016433254 0.687086953534023
Ni 7.985689055425699 8.650600690605263 6.792942151900271 -0.7283158782768232 -1.759034368861132 -0.6669313045217546
Ni 0.4992731460710051 6.696870903637409 4.14395416827074 -1.364306270245347 0.2570637791613702 0.16089526495789708
Ni 0.3973243433830062 6.816742687689456 10.073300785672295 -0.47908367934472973 0.4651873809786118 -0.1336899081876988
Ni 6.47869778460338 -0.3097712497400547 2.746351794592778 0.4922721530105457 1.1810604055063918 1.2714783903793327
Ni 4.836745585758867 6.135262580699538 1.4076830683290964 0.8571083491629045 0.0774339139084473 -0.8938023621498286
Ni 4.0473392670266 4.811476817088273 9.379452573358316 1.0521686900382847 -1.859149526417179 0.41506115374618197
Ni 6.237706033634106 3.6265444628787558 4.715809610241768 0.12621082620183424 -1.6745137233092324 -0.6418954445990493
Ni 1.9045791194768635 1.5174112862968014 4.941187980437521 -0.6020333182967891 0.7341278569729098 -0.4388657123649474
Ni 5.016021628394363 3.297985749568029 11.457017818410081 -0.3650223440212359 0.11497459116638263 -1.8156821992621632
Ni 0.677971326268919 0.9724731389583021 12.623895900909732 -0.7250827160515061 -0.22955477510782402 1.0913654148424043
Ni 0.4321662123395614 3.1815164195484655 0.7745122611210488 -1.5764341081259754 -1.8809925904341993 -0.3739895805168527
Ni 2.4149379785504452 7.8347976157242405 8.416462850435662 0.23531815995416244 0.8427014297089551 0.3019141027068414
Ni 7.053712516093157 5.985101559119183 9.10947246878022 -1.2639311741596941 0.5914984802037361 0.7521770011651369
Ni 3.6629914025419392 5.7014866747538475 7.185834983821947 -1.450495047528289 0.9053057348037375 0.5996823015661091
Ni 2.380247740697511 8.207440298673237 12.034462345877404 -0.2408969395935206 0.7118669886921805 -0.11681575814017947
Ni 7.344955184634577 5.551575289746528 1.3650432924948321 0.03237507389659586 0.7719336149667738 -0.5278155973327943
Ni 3.628809683634078 1.8397383310806419 9.384730075428267 -1.648399799831 0.4893549793637507 1.4981740987718069
Ni 4.215335434880492 0.39470038562643306 7.626847576645966 0.3248295738524341 -0.5322373805495736 -0.07197237657324379
Ni 2.5286982894626235 6.246563509077367 10.527345332188666 2.150522363273064 -0.6476164062432266 0.05163855011189816
Ni -0.10793453296145011 7.734203322589934 0.16990727450746368 0.984313420957208 0.5040159238100351 0.8213985544661209
Ni 1.8882602842395424 3.622171199951134 8.873592720078776 -0.4740849405785577 0.5066366492623339 0.84134363012948
Ni 4.476667943652658 7.0341946344013815 3.53270607507471 -0.2133506545441358 0.29699223992519175 1.0824519144028584
P 1.0684815157879561 9.373391027533055 9.780586185929865 -0.6228762231840691 -0.6043812497036752 -0.10258958723846848
P 7.597864770516545 3.814077004022426 2.5978503939331583 0.17631648460897378 -1.067329199828807 0.6864125531748179
P 2.234515456838786 6.727289582351734 2.8513350685130083 0.7427567362925014 -1.2759209995317187 1.625116146712711
P 1.5589619070087108 5.768777599885418 8.529321695945214 0.34582494515717854 0.3032078818176004 -0.5589542277191277
P 6.376716621618876 0.14601612988806595 8.208365803153269 0.2133660811631035 -0.9243038731727953 0.02431286571375168
P 0.7123703214533111 1.1214044692714829 1.5915718400863483 -0.630913748776565 1.1277169568882448 -0.4676183590176075
P 5.345153581243171 5.497145271025786 5.193751773436839 -1.8768225182169096 0.7659416590493969 0.1226526765369307
P 1.6011504878517107 3.8379496570438216 4.160800938631036 0.023538706551888493 -0.1607080886477555 0.21818278582545653
Ni 3.056217351482646 4.704604626432074 2.46560033417815 -0.32528003112629145 -0.1207171500771147 -0.17483810029123437
Ni 2.7331229053816966 0.5181613888507913 2.816083610660695 1.403495538850299 1.4470304860184564 0.11018102643248122
Ni 8.475402045329346 8.222631146432398 8.902579224527797 -0.6875422959038868 1.0708282141210008 1.125549516923281
Ni 5.858110509836122 1.1275991546023636 12.354470544271715 0.21825349116239184 -0.1641831916805495 -0.409846699424778
Ni 1.6772896426275388 1.2421546042286553 7.936422815447194 -0.0313952264818298 0.08589232908844562 0.24294508037180093
Ni 2.852458433091668 7.3615883770379416 0.9715957126330773 -0.01480595466458095 0.876753891307974 -0.6792435462302044
Ni 8.73488539430125 1.3687295925566565 6.244510941699075 1.499487932487224 0.9283726439255301 -1.5885625159583934
Ni 9.189094516039845 9.200855172369517 4.1885290898359795 -0.05252043849621923 -0.6495822717203458 0.6560861342771346
Ni 6.422131986313336 8.546576206041468 10.607306700271637 1.4122015512647292 -0.9165239721170603 0.21111405190413318
Ni 0.8937497833616064 2.234940763592846 10.538995963510224 0.6470931867499049 -0.8667960087643136 0.3227377243204119
Ni 6.790549339118731 7.950286891049665 4.814201554053961 0.6091609304805057 -0.9163702201480154 0.39903598196251927
Ni 4.931820136889388 1.6504398423277205 3.3887915152996437 0.276114368034918 0.05375328246205582 -1.6792826054527854
Ni 2.439633507682957 2.750791627273209 12.967816509261143 -0.8849947911605274 -1.02981320516122 -0.6795165973859328
Ni 3.182625915428623 8.356048026021371 5.773253491181954 -0.716370790099805 0.012436425991139873 -0.18447073828499197
Ni 2.5288739596436485 5.913807203020044 5.235647262451497 1.1184069923412288 0.0864811117123801 -3.408410930783104
Ni 5.578831905202405 1.7801306649191648 1.0037969813948568 -3.1071383183150036 -0.996904113138025 -0.10367099322810533
Ni 8.158724183735309 1.4465144995547188 8.52191950926476 0.5077836183825835 -0.42011594256127 0.359006219734143
Ni 6.929411994319479 5.684548370983438 3.7892085784485894 0.6728080750175058 1.2297023348838112 -0.8432521600061026
Ni 7.176247090257584 1.2476835920314417 4.682303759240903 -2.409586717804231 -0.25041104973154293 0.056744503879895825
Ni 7.412024210590116 4.656813091394278 11.316689704067624 -1.8669445969815655 1.70692453553977 -1.0568229009808445
Ni 8.935907556187837 5.235572371479587 -0.4235241640130323 0.2179249041783795 -1.164925190507426 1.0052689401629527
Ni 0.48060402872755004 4.621937937561317 10.851209953346425 2.1127852537336063 0.2664166811311799 1.7202963288609858
Ni 7.597578150747505 1.7036771529772918 1.5362116939860753 2.5504731437403687 0.45829322496193975 0.5744680070840106
Ni -0.3048413897125536 2.1554084005835357 3.5348437038038147 1.1636486377878474 1.3377850840263668 -0.8108151225233197
P 7.7770298635640245 9.140563317081943 12.500307305659154 -0.04537097193563154 -1.4395364916342563 0.6136246226788142
P 8.376324063231255 2.9520911631298374 11.96883104166657 2.3418142382449476 0.06626607021708589 1.5377842569642615
P 4.831077910971061 8.72519579694787 1.4974958352479693 -1.6793926486680884 -0.009734710789260652 0.23166230836913004
P 0.29896568444721794 2.937455063310756 7.295540087292149 0.2829020803807128 1.3443637656851495 1.520407970469343
P 5.097523346590954 -0.02395124231290627 5.1300694836554825 0.580902964076077 -1.4315434461264507 -0.6822882465937993
P 1.097744469627118 9.230136617806682 6.299369965493477 0.6035623533468056 -2.5939229873938876 -0.901999296138324
P 1.2201588484045272 6.446707320058831 12.23680850618098 -0.7690069282382821 -0.44628180232336045 1.131346583221032
P 3.5416217990516787 3.0123460352214066 7.601163671600214 2.3704365299673307 -0.4578386539230245 -1.2679582930412163
