# total energy = -340870.8181952448 ev
CRYSTAL
PRIMVEC
9.25067664924062 0.00000000000000 0.00000000000000

0.00000000000000 9.25067664924062 0.00000000000000

0.00000000000000 0.00000000000000 13.53930034888909

PRIMCOORD
 96 1
Ni 5.1286675182502774 2.78027229897564 8.744519191432245 1.2567354277422034 -0.39888068733157755 0.43868342115081216
Ni 5.686215037220828 8.841519009249595 0.4955143329820526 -0.10958247361653385 0.4871302037982901 -0.5183192278065847
Ni 8.245451673634335 3.1434261034956723 7.643165108256769 2.4708836169415 -2.4512334468107397 -5.094328010833271
Ni 0.26944722751092387 3.8011584481776097 12.21163663887526 -1.058783881361957 0.4176813649778484 -0.17391841669044242
Ni 3.5568203316942406 6.167731246632569 11.314535641086886 -1.3288900955295821 1.681361342358685 -0.3442632570970136
Ni 2.9697076508609395 3.671537970073458 8.551706417583212 -1.707328455846408 0.13583240845199832 1.4030931612055577
Ni 0.2992510568255083 4.6589089185780725 9.428754724079383 0.42080576953944304 -2.0533382633208834 1.5894181790904691
Ni 9.065487136239291 5.454744611648312 0.7463880523615523 -0.3981972881113078 0.9388717436846412 -1.122162602728919
Ni 1.3745765117365223 8.17022517292473 7.6859624376816225 0.3867630781324371 0.7644437343476318 -1.6023503137711048
Ni 8.39411004382658 7.538959013502284 0.08910159028342717 -1.1025548558003204 2.4341957746021627 -0.09420444849856678
Ni 1.6620967857841347 1.6858895255560358 6.63830483089805 -0.8420100600688852 2.239167829626614 1.3438204915871697
Ni 5.639545374643362 2.4765448398267944 5.02848269253889 0.07079455421505873 -0.9011541745292093 1.2807757565208586
Ni 2.073048835405805 4.407392277186851 10.980534418260932 1.146534089594748 -1.0423733012144178 -0.10035478437067878
Ni 2.2307728684971404 1.7610142688249353 4.330477528029204 -0.21024039104992825 1.0550796930374926 -1.3273744302160042
Ni 6.7479614242037025 1.2092761746509462 7.525129252242955 0.7626874137781575 1.3002145819717605 -0.2564497997264551
Ni 9.332544914028954 6.342957559525008 8.153881077812368 -1.71977336647798 1.766070963992939 -1.8185160691665327
Ni 1.3456773985765613 9.268530233149656 2.826436874620156 0.6629340104369035 -1.1228390599706533 1.4308788159592583
Ni 4.645402930993711 0.9273063064599202 11.615189100458824 1.2459689332543187 -0.27967534591329896 0.16846510688535501
Ni 2.5748517782233704 2.2965544285741193 1.817272257519654 0.5041411365339897 -0.5641429710089187 1.1383788074774652
Ni 7.5124280735078 3.784775500224252 1.9962339935535751 0.9995425792021366 1.6938895567326826 -1.8419395902967954
Ni 0.9196106687397629 3.662740576790768 4.895702183367055 -1.553179508473409 -0.4192690211799424 -2.0887652366699254
Ni 7.076119919797956 2.102919269590669 0.41861068463611717 -1.0832579552439214 -1.5396231099452131 0.2284126910835808
Ni 8.452287547880033 6.088434448294802 11.842297832095706 -0.2083334038352025 0.09374242126048372 -0.31744845089701457
Ni 7.17777560306134 8.162991143958314 2.400422873638995 -1.508849319097466 -0.7660429605139517 -0.0704950206967689
P 4.253673786988686 4.22864145657548 10.389882428626414 -1.6541896670398997 -1.4468983313159662 -0.49715004992813727
P 0.4069733336901407 6.137648046889869 5.4315207884767105 0.9563107650966951 -0.8609575477056657 0.3174265965201436
P 1.0754373880957884 6.355751245024439 10.79595382136486 0.85611178957759 -0.1348607885673484 -1.338851063397036
P 5.477991561510982 3.9410564277928746 0.9616216906682667 0.010817659440794273 -0.08940059935202023 -0.26782538855324844
P 6.068786011562485 0.9007429890979396 2.2077997386567287 -0.05236900052001948 -1.3620239019690736 0.2161798964628148
P 8.531972874627762 0.5869554193340311 13.035191058793295 -0.03327470289272979 0.47128398079465283 -1.087789781676004
P 9.204090021154686 7.551354919915327 2.0420923718083364 1.8868009695858603 -0.2608898377756797 0.8849870778510437
P 0.48889362386278756 2.1165270146157336 2.79537772851434 0.44474016886785345 0.6354741144537378 0.8872648181416268
Ni 6.227074335915907 4.4414070144113 6.5600755606200325 -1.4480447862155834 -0.4824677653256142 -0.16019952444245314
Ni 0.40406307088600374 8.45634859483177 11.599605410948815 -1.3100529082184211 0.3546571987368279 -1.1308195070729687
Ni 3.4445171198626388 1.2584250185110202 8.03124208520816 0.23641242145960578 -1.8684970290703498 0.8394782947859672
Ni 8.439142336676351 1.6252050881906894 5.691962482485323 -0.2611065817721761 -0.041507118104851096 -0.3808968491596472
Ni 8.434091467346857 5.713236263065976 3.159138377408026 -0.030039998005516003 0.5547342761005092 0.579979423820543
Ni 2.7337691485738715 6.626139266328055 6.14551574719158 -2.0522090348124467 1.780386609284663 -0.3885109140614793
Ni 7.50536055671708 6.1732816524891545 5.660280765855926 0.34924399814105656 0.5511226474898508 -0.7942358780083999
Ni 1.5360008153989153 6.872198008626966 12.778079608298635 0.4092509748223081 -1.1750954461722083 1.7673578011251625
Ni 5.117002415275018 8.006922981947527 10.31706850432914 -0.982867689649617 -0.20335086301894656 -0.42841932022064283
Ni 1.342356405739037 4.39895566028484 6.876394115454545 0.31384607825773686 1.014776879653388 1.6521608095353288
Ni 3.1118812968774052 9.313766040880838 5.5109692979078915 0.22876724620952213 -1.365321341773423 1.1949770155874837
Ni 4.392517189491199 5.6844204059938646 0.08034582504466183 -1.5909238171017184 -0.7165926763026239 -1.2076013892197137
Ni 7.240781960210025 6.726351844068725 9.762390545186445 -0.008445302553875777 0.6475079056898203 -0.6223823142667863
Ni 2.493871356775772 6.247499829468145 8.748689396365828 -0.28703024361647345 -1.408635688290342 0.31626497211187465
Ni 8.185414783618922 8.643859806020119 6.787048307313428 -0.46124793671488956 -1.0003159670330515 0.7602461513265165
Ni 1.909496876165054 5.662246534596801 3.8749344428233585 -0.09870516458239774 0.48939148902864105 0.03796310950733462
Ni 8.795626403492053 7.957838892822445 4.316789302119218 0.25138704049156707 0.4540593893862503 0.515908561482563
Ni 8.266876240240759 2.4688760290682774 9.719701448675796 0.7050707917059534 -0.44405471276505454 1.1667558159582616
Ni 3.6310292579968033 2.937200773894198 6.436312610829865 1.0355411087839328 1.0221443757620525 -2.103774308484248
Ni 7.205888408724951 4.291527554930607 13.084000402828474 -0.41791250715204803 0.1800427844206254 0.296880911158308
Ni 0.2762890277968096 2.3316514949406018 0.5356798449632414 -0.6597427571931154 0.35117052573980806 -0.13172327137963122
Ni 6.917517072445995 2.051809282327934 11.494730492288612 -0.5518512981257593 1.0687217093009593 0.9358100740401819
Ni 2.4297734198086247 7.3034830450365975 1.7552076192313029 -1.233712484484469 -0.7517417133999311 -0.11553020655953651
Ni 5.504429994741189 7.823722585974458 5.64806802283615 -0.4077041991604785 -1.772245725345083 -0.410048531022939
P 5.063440998758958 0.6670190987476496 6.205223313126169 -0.12801394084884407 2.3573789254524242 -2.18389296831371
P 6.273873507963359 7.105805340454267 12.730570909369181 -0.3765660829947773 -0.05575591471438139 -0.20173209646860096
P 3.6477914836836947 0.8232297211754224 -0.05352903914856376 -0.8717921764273243 0.06130152712295894 0.7248932257485193
P 8.6933786769373 8.3968944974313 9.171386104780035 0.2965456393060764 -0.18797232368034725 -0.565057255293072
P 6.608553730439103 6.6890068633303255 7.559546393892006 -0.28395751822842064 -0.2376619775959907 0.6584631191497434
P 0.9275838267527495 2.53605444128583 8.518548292995964 0.505717222771858 0.3848596904621372 0.8670137812020746
P 7.540587132553549 4.339131535827264 10.969432681480116 0.7585785338161065 -1.5204259681914718 -1.6790265235779211
P 2.094769423657914 5.16117439521702 0.6955296834976494 0.9719495000752164 0.3383571760252237 -1.1242737355346508
Ni 4.781813405595755 3.3980417214901544 12.299912143753701 -0.24684930052221357 -0.8886665835851598 0.7865171692079035
Ni 4.910212794411458 5.155994016417539 8.546249443558546 2.261968372460898 2.060503670721071 2.328473298161667
Ni 6.227009581180913 6.044687999468472 1.247610977767104 2.334628776240102 0.23756813233060378 1.058239835933029
Ni 2.8602258953397697 1.953012058080693 10.565013459551649 1.4638938374326982 1.0782808137443043 -1.1253075761158038
Ni 6.94396475635263 9.035311429732316 11.301863139448656 1.3954148187246935 -1.177675805304875 0.5511522151762056
Ni 5.666871872810623 5.443902818875112 11.339149840925563 2.2976827951433716 1.169783804151308 0.2272670075149118
Ni 8.645460173042101 0.5782144551775499 1.8544775530439968 -1.7123004551397027 -0.5281426416549098 -1.3268293563458116
Ni 6.590052377583814 0.2041402271346834 4.466804746543397 0.1701782329217198 0.4707324791665571 -0.4506531919181787
Ni 2.295731118372059 2.8033434859861845 13.180427603774953 1.5013951768122658 0.7581566157873394 -1.473828580047907
Ni 2.7974230530724924 8.639521238775554 11.128005001599867 -0.03820093654975357 -0.03861359860713995 -0.21422765783245043
Ni 3.7113713827708943 0.2556951719335879 2.8967466408084666 1.290891504798622 2.0594415480051436 -0.7528508873037099
Ni 7.4441025774132195 2.08473243973392 3.3494599440950945 0.9985473051684028 -0.08024361544310052 1.3340772961574765
Ni 0.9819408014415875 1.5717916824974711 11.536621255423556 -2.005207469251927 -0.33179134988224795 1.3570511313448306
Ni 7.313908557370553 4.569621389698449 8.622165119662009 -2.505644674571769 3.467300248920145 3.28961439476747
Ni 3.622971918828325 7.823963103561577 13.215290628027816 0.4728909202704566 1.3409040892713229 0.06289098309726589
Ni 4.33168474130301 5.815622749767143 4.647256766549812 0.6483820807646575 -0.7016735930989465 -0.4711001469186209
Ni 4.631517665675817 7.4509665793225315 2.453253486717272 0.995196386418299 -0.9169734009496532 0.14075092879953824
Ni 5.223634962456474 8.70263860404137 7.755554351379148 -0.36005548693426376 -2.298307058990932 3.9361630218678147
Ni 0.8842277564716662 4.133979284691397 2.0766575242802294 0.6064743847872781 -1.2549724223045096 2.417352734902895
Ni 1.4499325219161125 9.384071181730935 0.4513201514166247 0.6977500896748242 -0.20287109516905064 -1.3467296948141645
Ni 1.3467597277185956 0.35745168757003243 9.481991441852834 -0.5975611414580483 1.3388222670416297 0.018384930265090915
Ni 3.680575880943266 4.996937885920623 2.299622877945169 0.25102914293151607 -0.8674215581634546 -0.08149805667549191
Ni 5.059685224129335 2.707524979548645 2.762043841074967 -1.235520227117169 -0.09097025783198527 -1.2462941778042216
Ni 6.212976305040177 4.426559678744931 3.8009281063345615 0.30237998659966636 1.8210971996301473 0.6415259770747725
P 6.317083417556886 6.7061298653978945 3.707330687307299 -0.3704797675913813 -0.5609689441563114 0.9181440242189864
P 3.425710494685238 3.589188448514568 4.036106203019277 -0.003656880026296928 0.4861506134938402 0.6071554700147028
P 3.8505570603012305 5.126003323439116 6.897488432912502 -1.1365116723617394 -1.692608890248046 -2.028005440983049
P 7.699097473141234 3.591094087858663 5.162955150429341 0.4578111431191986 0.228445086983413 0.2869775360016671
P 6.045613067111236 0.9210463737213332 9.532127332887738 0.017486843930853757 -0.4041846160429942 1.272338424386783
P 3.224323268855422 8.20560901026047 8.91025431030992 0.6718945620643009 1.5157388471284479 0.6611818036324871
P 2.9711230043543693 7.8580425955210185 3.9353469103017327 -0.22882843846476075 -2.0647439340546634 0.2226217954334166
P 0.7488774093882314 0.11666583083487889 5.850087994933618 -0.5072223465624749 -2.7319043238680885 -1.651863332899568
