# total energy = -340858.80325958796 ev
CRYSTAL
PRIMVEC
9.36349188798038 0.00000000000000 0.00000000000000

0.00000000000000 9.36349188798038 0.00000000000000

0.00000000000000 0.00000000000000 13.70441685432252

PRIMCOORD
 96 1
Ni 3.235844830946551 5.824541295385568 10.833094550675707 1.6276468835543647 0.8526719106581057 -1.6277589836521966
Ni 8.605479608260014 2.4365490875344693 7.846806437311634 1.356002121255026 -2.1430350537570835 -1.5199868237715244
Ni 0.8761690740569605 6.791040910382639 5.923432876802251 -0.5882488629181869 1.1072913420440413 -0.4130109560853726
Ni 6.034835955850781 4.553063391684082 6.60550144931802 0.5922821524472961 0.09012282223002543 0.057986603817113035
Ni 4.630387106280534 1.0459769326883632 10.65512921806072 1.7878464079968177 -0.5873098960436853 -0.09127056268122347
Ni 2.6932773034227635 8.044194460794555 4.492691342491531 0.3387922066801133 -0.5857191545177977 0.667551968824889
Ni 5.2486584643337855 2.3630550410501447 4.809304706003108 -0.2527042166410938 -0.6174509384034399 -0.45814847185395935
Ni 5.3126111127588 8.41633707558281 13.145550218838011 0.08937900208546543 0.16875229910847067 -0.32714665202138493
Ni 9.379035112942905 0.19510520420239272 6.372745644922803 -3.640420080968692 0.9924602184340585 -0.5621585935890383
Ni 1.8381751493791907 3.780200785388226 2.0912806303222964 -2.7123888795429805 -0.7221164343343306 -1.0451922587204514
Ni 6.7772016696253665 0.6283904835514819 5.847496831678213 0.336992177356897 0.9664026021150582 1.1939444605579115
Ni 7.336763934614951 1.3137072513437718 2.2457286171416353 -0.3066130508444074 0.9707680781726056 -1.3841814119027194
Ni 1.6012600819634197 8.991667460623306 2.632042876643105 -0.22587989735939806 0.41706532866040436 -1.0978646494135027
Ni 3.1330992363392762 8.565225957369949 0.3452974840364949 0.3801409448302292 -0.4976804685103106 -0.4870471571661806
Ni 1.4139715206461225 5.229163674579631 9.524706698976187 -0.48699907753706445 -0.9407859299882184 1.220114176974744
Ni 4.7715042899428175 6.396978361485606 3.236434730924702 -0.06601358788664759 -0.00963726597944792 -0.6752552510064176
Ni 1.2794275081689581 2.4103406742194453 12.91790688092011 0.10605080631419156 2.2538555135457763 0.5583279069890384
Ni 6.710421246701911 4.062790965398026 4.161798654111997 0.9252808923740838 1.2599171679042946 -0.4915059642684826
Ni 7.941664226496766 8.977650313523418 8.884340309519056 0.6295682904922641 0.5085006990542662 -0.3619647881418347
Ni 3.220685337857224 8.145310807843126 11.203154724906167 0.22552328535092772 0.19751497306345983 0.4393519079727466
Ni 2.370246202688565 7.559156226378132 8.859864142171618 -1.0162079556729595 -0.4539154076092182 1.035581475103565
Ni 3.7477750135733174 9.21753360781338 7.752546975247198 2.833954750773635 -0.2816869770266891 0.14263966118181887
Ni 6.196964814925323 1.42017951565429 8.784832610347413 -0.7395300018250877 1.616535347022235 0.2547618705010709
Ni 2.4034959617745426 6.569397697956795 13.003120273637048 0.13546088404519252 -1.4669675912620155 0.01833402242249746
P 8.02563602021207 6.173134728506339 0.6886754522710677 2.452006577531338 0.4597281576362534 0.21141435675337136
P 4.796907442970205 1.8242329102130348 12.901227693125165 -0.6100248211426978 0.46375759051062065 0.01638332645402985
P 6.515651255502975 6.197873073621842 4.943251327708747 -0.07327361188317058 0.04485495153116146 0.20672286481497304
P 1.97321542691734 3.5852997053052573 8.041381667882861 -0.9464747528428796 -4.580771494522653 3.1660944851342374
P 8.157267986765342 5.287985129543898 9.993987113182587 -0.26715921572415924 2.044925870887472 0.15922224813084837
P 4.315024705262307 6.547580762256899 0.9924149510213632 -0.36947960846164113 -0.041064374140477665 0.26161977396316877
P 5.287479500991196 7.003854350119642 11.438473316984242 -1.3556578505417298 0.4597307287394147 -1.252377922104456
P 7.78087434673771 1.7696812074715802 10.108336883074362 0.8710110752869258 0.28718836646089246 -0.21779274947588945
Ni 0.9177073960105548 3.4238824716011833 4.475013070130414 -1.1388812010351805 0.3522246780359354 -0.35862466802500814
Ni 4.03800580282394 8.813405305320902 2.3580774088535503 0.43528030900653425 -0.2180236345397729 1.316847048322119
Ni 8.60313873533084 4.964616943107898 5.731584295018925 -0.9310100815483772 -0.29987778900310286 -1.0102483956554151
Ni 3.982508387419099 3.2137938079537376 6.608859197447626 -0.9628303113827675 0.14347295571639163 0.028176719544532117
Ni 0.6549640730434572 4.578878538347006 0.25555871577287903 2.2465538376780407 1.8019226835842257 -0.4636292924628725
Ni 6.720000098728088 4.029700385671233 11.811151523498692 3.8047439119921638 -1.4685848151504644 -0.7183536248577886
Ni 3.585983240200576 1.916238579821262 8.62994547576656 -0.033790980407516 1.9050123503875644 0.2870323004990024
Ni 5.63561412301785 3.7534867435205004 -0.07025708739786404 -0.8787349262937447 -1.3556897322209298 1.2799668874663181
Ni 7.833150720992007 0.12672268784621066 -0.07120280006125004 0.7303586197384647 -0.867064689044668 0.951589962582258
Ni 5.8385209885185905 5.319652458529754 10.196332169180327 0.3497458774781396 0.5145155377897784 -1.2170267962986718
Ni 6.360198566022436 5.223367673206998 1.5852307204936127 -1.5434594529721677 -1.2253263173033027 0.19314435479958994
Ni 2.3546278985051208 6.094584396495 2.2712469411171394 0.028394491982293033 0.8032810189298036 0.26043320985423535
Ni 1.7118522826292832 1.1565972238293767 4.647085021058913 -1.4057786784575206 -2.229326932276793 0.23854360886999562
Ni 6.670635770397681 1.333997937893846 12.159188765211491 0.8534100743757109 0.6786033415430441 -1.7955692305623718
Ni 8.005485786037745 8.355549287358038 4.708316638791057 -0.8351439290766713 0.6951504472684479 -0.6376086442982374
Ni 2.9883022004323325 2.0982742222854944 3.157278580999293 2.320638632608597 -0.32759068153733906 -0.3716480768678696
Ni 0.8295604213387768 7.439266078437592 0.7736210491249084 -1.7430757886493464 -0.8314860206091099 0.42344912069956103
Ni 8.616893704662662 8.775595525768894 2.858481133177068 1.9647653020764808 0.560496632505583 -4.071144652283744
Ni 4.768198977366826 3.460381362312853 11.107663027331816 -2.938668326333642 -0.8026410713529596 -0.17651651643492178
Ni 1.84494495389036 8.754424670997452 6.852016904790918 1.2284908310742133 -0.6361711405207625 -0.9289647689835743
Ni 8.591649730994456 1.4724465264168716 4.163141378824171 0.0020005753697965546 0.424916706384023 1.2466613313356532
Ni 3.4408210281166816 4.927809057169577 8.424803544793045 2.5782590556043856 1.3294184572292267 -0.22164117668770214
Ni 9.087249984067311 3.741932194742101 10.925695738357115 0.7203423731530433 -2.399811897805654 0.6388083210332933
Ni 6.7422103010800845 8.508146111864987 10.995450942598964 0.29839786202346674 0.12312036020196862 0.02251540749369671
P 6.085998074590791 9.042960668247352 7.784451200573487 -0.5923806256983732 -2.4700181836174107 -1.520706732656684
P 7.5418805841608325 3.0311776290030705 5.891803001783262 0.12825948120074684 -1.5895948138776494 0.4870276167821548
P 2.7527073853486153 4.421384607672226 12.149814973653909 -0.9584897750258846 -2.0418464606311995 1.1090211802509546
P 6.095370929799201 9.11500337351559 1.3484448692635318 0.6675810222906117 -0.7345654587309607 0.7406587161128921
P 8.553690135574982 2.391482601902025 12.840380914902576 -0.17096010539306686 -2.8407257509488817 -2.124025602534116
P 0.6168462346139708 6.848766836816052 3.748733835125107 2.4732752571021277 3.2878760719201248 -0.2113364523275844
P 5.175314233716928 3.443489623255939 8.477004074764437 -0.15633104262598238 0.7368210875343568 0.26414356882628703
P 2.9750996771117952 6.8181950363610495 6.866570579966173 1.005677231344965 -0.8121670085655239 -0.6497812751050293
Ni 5.034843130983098 1.6821512869039323 1.6105430476513494 -1.3322911507913313 0.17390530406431984 -0.9491088480316172
Ni 6.961550094543622 7.161235918893822 2.4172256496787297 0.3742898853660909 2.2944208365626486 0.6390605462534156
Ni 7.286126171411075 3.8062968368026495 8.750817853988181 -1.79590141709081 0.8792031241794148 1.2782373063697212
Ni 5.963973050538846 0.24951926361561189 3.624927874948646 -0.12406369795184441 0.0960795540340926 -0.3027558818818463
Ni 8.63901027209749 5.444711253897908 3.4192381797097036 -1.5048304277460598 -2.0891223628990283 -1.8092505847042069
Ni 0.008275453979213445 1.7588289205719327 1.354050791754316 1.629983244997025 -0.3669578704810519 -0.6960403060725691
Ni 8.09133027809639 3.7150870639903415 0.4782337849859032 -3.410009642728791 2.023710670262437 2.241939993055113
Ni 4.60298952951749 6.985951353957324 9.098280177309576 0.3291312865515816 1.2776639503647544 1.066867172590724
Ni 1.5827671858229506 4.757562050776662 6.586493561133133 2.1165804591099806 0.9816430732138964 -4.566485931137916
Ni 6.788156954933898 6.1018504660671535 12.697100764653738 -1.4547042005136301 0.7727756512520949 0.2384888443726602
Ni 2.9163999475398454 1.0727752459815392 12.108249497574336 0.15581296533898328 -1.1216398974562296 1.9942190885612234
Ni 9.097062923386405 0.3467085622382005 11.02905370532266 0.5667675531159594 -0.0780139547816334 0.8166026757393743
Ni 9.243208302100552 5.026275536062323 7.842105964469853 -2.3926842856219372 0.9000141473874951 2.356405248685245
Ni 3.4070843674614357 4.17819600080627 0.49824169408613317 -0.02343843352859834 0.8645869169281367 -0.395078539976668
Ni 7.882964496924816 7.383862297949918 6.440267656390223 -0.8516660951014108 -2.1793611418816274 4.623505028835437
Ni 1.8986539423773123 2.640635752991514 10.687649561141965 0.5153886844233511 1.2540514531521372 -1.3015340721141326
Ni 1.3094749530878265 1.0734868713520078 8.494861189817343 -0.9596377725873989 -0.2374598888875136 0.8126732587779809
Ni 1.175783018356881 0.18795617827669747 -0.15369516208531708 -1.427579062162064 0.5859037597247782 0.11073972714942865
Ni 0.11793879626678079 7.094904943572766 10.171774539454956 -0.6046525010871909 1.2768900483132073 -0.4555303175048219
Ni 5.268031528695624 8.070562053468764 5.023162175066522 -0.692863193896168 0.20796805007598373 -0.8830993739100274
Ni 9.013137947129684 5.884008831278287 12.164095234871038 0.7160334613650442 0.4588971770945259 0.4598862804806725
Ni 1.2334995812985778 2.1638561182692135 6.5124077419723125 0.4109265627525181 1.929747391240399 0.29322865911770146
Ni 5.379082540455606 7.129137869288997 6.983058035016866 -0.329913930353877 -1.0864489513773932 0.5936268394006485
Ni 4.127829778862178 5.459767748578351 5.306898446462446 -0.8117903419523954 -0.0697051778056219 0.4686815101747993
P 3.751698316602612 0.7180468530879909 5.01502155536803 1.067067461526988 -0.5554912088711917 -0.09339506522339398
P 8.452789148835896 3.215142150760942 2.5867085951475635 0.3640460961508956 1.092662536387273 2.055727846598982
P 5.32756460903036 3.5219837743169777 2.636057941891223 -0.4396190455912041 -0.4219149434432218 -0.3206438179058607
P 0.8239301537695292 7.949960280157756 12.194135188996533 -0.1202648930310445 -0.9670865155559603 -0.49393051454957515
P 2.7624266897505425 4.234180317780379 3.829918117356352 1.7652554100701794 1.4352877436602314 1.7989684860519084
P 2.6005506449523508 0.5826273541353156 10.047256017558857 0.13750593949967932 -1.294720648736725 -0.0269130223407601
P 2.3700402058707977 1.7252982567344546 1.0675607174445128 -0.12055259947479238 -0.4053195009783858 0.19649244533621643
P 0.20571310396823447 7.714337374598888 8.025511485772238 -0.32982754128765773 -0.07239198060916564 -0.3601670728114636
