# total energy = -340894.81115867017 ev
CRYSTAL
PRIMVEC
9.03157490717863 0.00000000000000 0.00000000000000
0.00000000000000 9.03157490717863 0.00000000000000
0.00000000000000 0.00000000000000 13.21862280224314
PRIMCOORD
 96 1
Ni 6.327521331462995 1.895601116436543 11.359449705060783 0.6964665949767102 1.1477705331050103 0.9978664770512943
Ni 4.880970115968987 0.2654352750146988 5.993812769618349 -0.34372898186009837 -0.20838045502305402 -0.5113906190075515
Ni 2.8208046744102813 1.4423425016195266 5.03181457575483 -0.2575031806916339 0.48107448452251345 -0.7376726369013746
Ni 3.4973960718199564 4.453857910307816 4.972753495259584 -0.6851704532376006 -0.3902361242827021 -0.3533762751418753
Ni 5.3846158868068885 4.627273178771163 2.6778818089147975 -1.4592301134084418 -0.7526079180549683 0.3786725878148188
Ni 7.338244871577216 6.287863686349586 2.6163225948193767 -0.2596006866506109 -0.3635383032765417 -0.46014313368648496
Ni 5.121237101382789 4.415816917090399 11.253105620816454 -0.35313973365103696 0.8730281057169545 0.8114386150399315
Ni 5.479953190796217 8.066930392652148 12.562991949020189 0.27021831426545717 -0.9552946651273548 -0.6482113595147481
Ni 2.011530411056382 6.622555786694085 0.24695576973878325 -0.1344491549512265 -0.6795027134288619 0.7500648399181405
Ni 2.5567304577236603 1.5599697323088983 0.337360027551627 0.21330900267292296 0.0838704135624104 -0.11394280746775862
Ni 0.7449730631376787 9.146908048623718 4.573233653885814 -0.7758851434153541 -1.0769703224629967 0.7281448999165976
Ni 8.649385685525942 2.387921292427664 1.274075230813807 0.05552117299575599 -0.32423282080869964 0.8595172157147132
Ni 6.9772257305801135 0.5232280314015301 4.537569771165743 -0.04236483811945607 0.2781493961870758 1.2716879352869777
Ni 0.7797310789015031 7.420116097483172 2.528828310419318 0.18043693453525053 -0.2616418854503558 -0.5578311698582781
Ni 7.445621264825523 3.9359061249266123 3.974179229617364 1.277597358792877 -0.5526395983550095 -0.712121785015464
Ni 7.630434380734354 3.996797002484025 12.714715181037764 -0.511445383504887 -0.36287084489587185 -0.852482677465435
Ni 7.900225584293393 8.68254962833087 6.918190841651898 1.0195272498541796 0.6873214381423324 0.6228050036265016
Ni 6.707443558595913 0.8277357054801386 0.6116019911908042 0.45235860464505967 0.2370523690364498 -1.4639316326491691
Ni 1.8473905699516024 6.446530393102572 9.26813165241356 0.04387047613070509 0.24592833136984096 0.09382161123785132
Ni 0.17028673093948354 5.039185243980076 1.29953072449455 -0.2526695067484165 -0.5367113571605273 0.28156767784000536
Ni 6.53190587004565 2.030722507587011 6.9372393361426035 -0.9727817661685247 -0.47244354832039276 0.350346487176616
Ni 3.4385463301759187 4.332067123618152 0.5225885959030037 -0.12395339762622523 0.3984775383558879 -0.33315866254341975
Ni 5.86323516376885 5.65373875382792 4.754883912286397 0.19685368533037712 0.34875728831262515 1.0661722034062282
Ni 5.385175844446842 2.7858163534880886 9.297965653575737 -0.7854918132671828 -0.018753626458419312 -0.8398189659548375
P 0.4436995960085376 5.664802433004399 12.416041001146983 -1.357176086958469 -0.024429336686957924 -1.4337504810800985
P 4.022247980377349 6.150827601333474 12.5163836039115 0.9190302834786818 -0.12311341822343312 1.0538489059541851
P 2.204625481091607 8.563323808895182 1.1660675304843284 0.6724113537997194 0.0313322344543783 0.914790020145089
P 6.579177132747444 7.553693089336352 5.798904159355664 -2.957508856078913 0.6316809659598928 -1.2722654050570024
P 4.651839062330368 1.1501529924623886 12.731596097567364 0.6260232534534832 0.20223680401916136 0.13048759920031722
P 3.8393766530586753 6.048237942749277 8.364717671893844 1.009320998745139 -0.38994378985326394 -1.0816944674115436
P 4.468796135089773 1.0604784858964507 3.743461328279719 1.2781077227703925 -0.2770304520912842 0.34042511429784594
P 0.17965428036139824 5.506713747041042 3.5404233975054016 0.9527127633327913 -0.06004811433183207 -0.04047122064116901
Ni 1.5200953293993793 1.070268713020781 2.611087894043305 -0.21381293889253503 1.1870279359437363 -1.1374730078337443
Ni 2.0039438881925093 6.651772931294831 4.547761000212878 -0.7465257164166303 -0.6434743590503951 1.0664110588899118
Ni 6.131391652282221 5.742844271179067 9.135905784156135 -1.0788235736216516 -0.47176220598265206 0.21957606662855733
Ni 8.59143006979086 1.9957161235151433 10.052062413614705 -0.09392831201904468 1.730968463862851 0.34961089456217215
Ni 2.1978969578373393 5.077352679245223 7.0520821323094385 0.19477057754910326 0.2505763716648136 0.5665299831838566
Ni 0.5173520888119643 0.08805695151246226 8.989099341480337 0.7930678258422277 -1.204402165556126 0.9031850889163091
Ni 1.3594507077568838 1.0319116146840364 11.482263769179587 -0.2434438743850904 0.8608112519357884 -0.35553548757672315
Ni 4.130825573079102 6.97882431932643 1.5620713797736878 0.16426289587854936 -0.3015333223286549 -0.6382578478464621
Ni 5.711585990664946 7.8788026887777916 7.861022227394334 -0.24968651286069257 -0.5768146529393162 0.3341302824280697
Ni 5.294833001342894 2.8594688462915157 4.803250705016035 -0.4083621444594515 -0.2519616820481144 0.34519296800013455
Ni 0.850620812962003 7.317174207480296 7.056854416453808 -0.09643462338066618 -0.19823925282399407 -0.23491989607447927
Ni 4.888385038910939 4.388189329661131 6.972969149358991 0.9969406228029153 1.4770391165654047 0.8932161506290552
Ni 8.211471716358592 7.2057787634291035 9.378507431665547 -0.42581196450478276 -0.41861981763171774 -0.5733719458063544
Ni 4.711013940668572 0.41301391733914183 10.598321864010474 -0.9799073214697123 -1.0597917538011812 -1.1909105588275941
Ni 8.298843171340854 7.1790453019087925 4.645843902952941 0.5821661470592168 0.5044149590206668 0.3829041093976632
Ni 7.325411003732499 5.998961670433459 7.030853415652853 0.5318902816228 -0.8407350500112037 0.3024056976312792
Ni 2.2956998817574266 5.157697569003566 2.6050864125634914 -0.31991336749773935 0.1993412276389212 -0.3976388445046765
Ni 2.546795725401923 5.120144280827398 11.3779292103367 -1.3018474895894936 -0.9002892554257528 -0.14269262590694134
Ni 1.2389333731193701 3.2664135453395597 3.8074924844082845 -1.2258083991460438 0.34511377802276694 0.32998592124239295
Ni 3.4588764051361287 2.9001831856609637 2.784820170783464 0.8881742173297736 -0.4002917087464913 -0.1679028066239818
Ni 0.9879910662471187 3.1247352308567446 8.168249308656646 0.9285582775737751 0.6554659841946324 0.2346527584560217
Ni 3.64948779209092 2.562149402626426 7.090349818055287 -0.8689032849153034 -0.8675071758987253 -0.24710872483118732
Ni 3.92150979463493 6.690292597978658 6.188986005023785 0.3454667904868115 0.566668822754566 -0.2667612089547922
Ni 0.8366986403493135 7.673514992711344 11.28364137534354 -0.7523868031830978 -1.954522284192234 1.148003989272055
P 9.250951790756824 5.424074837273862 8.17759518229895 -0.0012883797941203618 0.6432658425840146 -0.7798469562765795
P 8.503137394175129 1.5507575259741964 7.828557328481863 -0.8136291949333472 0.28217574373764953 0.5466113898830586
P 1.8401111206322203 3.031782262624634 10.530205726582707 -1.2172995903440842 0.9046243924659969 -0.0885225676224411
P 3.969675183245682 6.121204035865021 3.621492619565747 0.2220011311302822 0.4933070220329633 0.48824374857744296
P 6.934506381596642 3.891055324281386 10.300505683729298 0.903922738413282 0.606550232330536 0.6303041402170242
P 6.202686904052944 7.66601878559585 10.391503316008995 0.3199370216468232 0.7998331695905193 -1.1700632830649398
P 2.3508466777179073 8.3945417383237 5.8297831137265925 1.0993612885636872 -0.12621005487088585 0.41655393624162457
P 7.191283085814205 3.9657464481911764 1.6830872573422562 -0.7943973432869286 0.4008136426882323 -0.11501367193443418
Ni 5.369361556905602 3.0635553429045177 0.7058365398924196 -0.06329258941105874 -0.6762906342494674 -1.1265620173481954
Ni 1.507080830057903 0.9916578856313236 7.029584479388122 -0.10114796969593547 0.20792536976350642 -0.5297333831807973
Ni 6.7428202372361365 0.6504495040412491 9.143585332240841 0.3335728672627029 -0.36798734018683077 -0.15633952726641462
Ni 2.667069207518812 1.6119193507767478 9.189268844086124 0.775976931798212 -1.9665545327664196 0.011557108709980096
Ni 6.154286694496407 1.977941984234071 2.661054178676742 1.4552847556074484 0.38457249823902157 0.6896683411079542
Ni 4.06435318227184 6.85222873482298 10.405752431630818 0.5229875798165315 0.638555581592539 -0.17937121227489752
Ni 8.063435173189864 7.161939499165729 0.21005275495094738 -0.13191173324135347 -0.21634290440324033 0.2588188141792639
Ni 7.772799094904853 3.7831821944169928 8.268221616852808 -1.0933053121775944 0.1037697235894987 -0.3779110270584459
Ni 3.085655606532965 8.378844861255354 12.291996836535251 0.40344208145001487 0.38515896687011086 0.21523835848515194
Ni 0.08427452797033165 4.813748104450176 10.29568101645087 -0.12107350497526889 -0.6046805261116489 0.9188729319652111
Ni 8.602349243769934 2.1471936966971263 5.692692839261452 0.7089256466756694 1.1049894333837422 -0.26058387649948667
Ni 3.7035778937953614 2.5591689829299047 11.49545619054537 -0.32266701898347655 0.5738691971577472 -0.31440837851911013
Ni 0.8941006205468289 3.446060600441087 12.578140609495872 1.1020136385848698 -0.31126880444886396 -0.8722068953672398
Ni 3.265040745964192 8.319480319845553 7.995588176692268 -0.6823599803719991 0.005589064052003278 0.6072670558919026
Ni 5.46132105190554 7.879543277914503 3.737909619226835 -0.013552284763137948 0.18014305744391557 -0.5344811822784279
Ni 3.060656207381538 8.377607535502557 3.314701763368107 -0.011073998425974478 0.1843972047345792 0.3476990222514399
Ni 3.2495967529913097 4.007734239612774 9.130433552961827 0.3826050901000056 0.8958489602662121 0.21174397217864824
Ni 7.065220364226194 6.074718520174128 11.479937235501332 0.7960945284836934 -0.5952607754596457 0.09268132698582103
Ni 0.26193734607996344 9.120535850096923 0.3845247176703338 0.3120319078671336 0.4954646918059145 -0.4631166144925121
Ni 4.521305711197575 0.5485462451447362 1.6032734241843847 -0.7613540396787146 -0.9908265394853775 0.041240751817341874
Ni 6.033715170409866 5.529066894764951 0.5903913376838946 -0.7650628559888695 1.1783399212514352 -1.4608617354745936
Ni 7.916211471756553 8.91448950174409 11.20636541471513 -0.6315416121685511 -0.16168510784904414 0.5529219054821186
Ni 9.273801675096822 5.026911333775311 5.656883548186491 -0.5171565749570513 -0.7402725364180671 0.03885708207651373
Ni 7.959102420661944 8.852849003475127 2.430204416346463 -0.33862199965083617 0.0724508588715591 0.16789586464544634
P 8.571687047195118 1.6576371826064162 3.542286611394469 -0.5798950916368529 0.2610533599367375 -0.5687917826348398
P 1.7105080217077355 3.2101829603985252 1.442138388028189 0.4873947703135864 0.5635377333247521 0.8301061095424479
P 4.756659519899537 0.9667578338031143 8.152823378833439 0.18669474251950427 0.007988674632431402 -0.1300461407875244
P 8.27664356038919 1.7408541131632247 12.346828430533888 0.5884319254632705 -0.3746092163787226 0.47515966169997526
P 6.202605619879402 7.811553582534467 1.3404473711403677 1.0033215866285947 -0.3489606625726829 1.6015954378829513
P 1.6776782471718121 3.2486845639326773 5.979443534051181 0.8697808024242504 -0.7765960534394496 -0.021901685169097764
P 6.802708609986538 3.974091623341436 6.038306823057475 0.5565435613951061 0.5252257251184309 0.43644681851080963
P 2.392834469139505 8.497257838955628 10.207671932285047 0.9189390093164561 0.8543228159979673 -1.392346464212015
