# total energy = -340892.80270833225 ev
CRYSTAL
PRIMVEC
9.04040289894782 0.00000000000000 0.00000000000000
0.00000000000000 9.04040289894782 0.00000000000000
0.00000000000000 0.00000000000000 13.23154346054174
PRIMCOORD
 96 1
Ni 6.335333685336125 2.004094640304636 11.499997547833985 0.9840187725349246 -0.27172960870366103 0.07619927017039779
Ni 4.573567050162107 0.39174688354876247 5.965123754095614 -0.45978703589864683 -0.2894681636340047 0.49927300980841105
Ni 2.589478821920671 1.7130298220548545 4.859310687146459 0.30486624335662976 -0.9093603644890855 -0.5314830188820524
Ni 3.220218705895978 4.242082589646368 4.7923059314804775 0.7205940841525331 -0.01407910380088543 -0.16851292940415494
Ni 4.756445364498511 4.627239923374585 2.3301141771456333 0.40638830856253233 -1.0655947336362035 0.12186540474894494
Ni 6.918114230858983 5.808169699692528 2.5341976609964694 0.5215868428142629 1.1374377837204346 0.11738988547609461
Ni 4.941864032106381 4.5965567952487385 11.61609169234008 1.4239203823635542 0.8933624463989325 -0.7065502044649573
Ni 5.763003845798383 7.806632168865048 12.408952221090871 -0.22003732253569205 0.9133340044248528 0.5387911225076915
Ni 1.809174509037288 6.535605735239449 0.3222279917803077 0.9962541382588519 -0.28191889053183705 -0.4325780795840228
Ni 2.7874817306455655 1.5844120071325152 0.2750714411232537 -0.9345430344023002 -0.05846714299795737 1.1747753438286286
Ni 0.10096955011760264 8.878019380804414 4.8354413108380685 1.262941042332283 0.1935539315331828 0.22768429755798852
Ni 8.825096861049346 2.0806306929603275 1.6058196816764176 0.3422354280337074 2.175840787433195 -1.6667307369297037
Ni 6.808146767534645 0.7169708649168444 4.836579497588524 -0.33135940455115187 0.028559556805247587 -0.8732831591505541
Ni 1.014405551191809 7.460438972503477 2.364688294766284 -1.7347623836876445 -0.27209162002877013 0.7291342604130604
Ni 7.544198307237115 3.8657396489419282 3.7885879448350375 0.5776996266474309 -0.4217951300359059 0.6270599222481137
Ni 7.68934197902865 3.837144853932484 12.762128224807896 0.15275618079053047 -0.3744436373351358 -0.48367566959078645
Ni 7.613926936357521 -0.34269004015981314 6.8554479646413204 0.9302955719798558 0.5298323706525068 0.8280834226854641
Ni 7.028099774989522 0.9001556489183817 0.4854334849279497 -0.47717694924032017 -1.2938971243941653 -1.3761762822100556
Ni 1.5767819069150093 6.653926531029397 9.327086940217034 1.8605998857104602 0.05490333690609899 0.5161101359704079
Ni 9.148797534494856 4.867325908536079 1.4466579608359917 -0.9698635640804653 -0.3215259634004979 -0.109494798998734
Ni 6.322740403816 2.118537103164121 7.105140282138266 1.3050246017658942 -1.2605350039939518 -0.3563039903116315
Ni 3.400791717441547 4.257559759755811 0.15693778167750363 -0.6641457713568174 0.3521701706489161 1.1254523292237844
Ni 5.721960415718435 5.439402616786985 4.828693553963251 0.3836114198773329 -0.20334340681977886 0.16702246090155753
Ni 5.459011251113727 2.740372190084638 9.374932369590407 0.22819646130771667 0.2146248932708691 -0.05059802466252576
P 0.17411273948937264 5.616205780239308 12.342370556290032 1.4999319620031781 -0.913776234168594 0.5991541969767811
P 4.070694627651731 6.33074116056066 12.766177421356971 -0.6341564240835789 -1.4122162065527484 -2.5578403827387173
P 2.4462065135711075 8.500781440192945 1.1523684307999726 0.8933346784847905 0.9442245233561222 1.446120315499361
P 6.050108967489789 7.643281125227475 5.939203110323538 0.7413220607285038 0.09190048295573851 -1.4250023025738232
P 4.71786996446522 0.9968038863535581 12.671333648380818 1.5661021300723479 -0.08684440858906979 -0.8553224609070753
P 4.124602551344843 6.019805536294198 8.15200720874595 -0.0913248129579266 1.2147634541857917 -0.014039251701885498
P 4.565222758099598 0.9646742937315018 3.8658201085295296 0.6171624606287436 0.18340450180400672 -1.1536344480849552
P 9.297873781635461 5.66341476523435 3.6854477939328096 -0.5116029921286738 -0.827145227141911 -1.8678331702341056
Ni 1.528063174602049 1.0713420099238604 2.71091855678057 1.0134013394620998 -0.9320637196238722 -0.19387043433233708
Ni 1.6308254366546413 6.579117195366054 5.07130633179156 0.14606154237917426 -0.23199758022136174 -1.9875894990598477
Ni 6.051799522869735 5.734101677083494 9.524118005608537 -0.7882925159407715 -1.4762132782299995 -1.556021091687262
Ni 8.533652345869308 2.2903951661200272 10.100431046752718 0.08830659495689307 0.04553192299352803 0.44627563167577333
Ni 2.3826976817844034 5.4972159946198635 6.894348819186258 -0.5261520935874422 -1.428596704793301 1.8371375409224617
Ni 0.735212590294668 0.012505589610042327 9.11674568933947 -0.7425543904737083 0.02449464270725459 0.146025032714284
Ni 1.4992604503212748 1.2674012319819736 11.236451716624591 0.2891290351270311 0.02410100681326172 0.5189468340882547
Ni 4.356832426211298 6.815894392992468 1.5064511869480568 -0.3967592701132005 1.1453660374285757 1.2678243385665133
Ni 5.547607201506567 7.902957663909508 8.294378188906313 -0.5519559420244236 -0.2488899851013262 -1.2375426568638366
Ni 5.3932603993578985 2.8346726348344045 4.872238463581331 -0.6333326426307028 0.0005520158487280815 -0.39290107270937497
Ni 0.7306634594540887 7.517194623173502 7.1003371159705395 -0.37198386294073355 0.1331556329507836 0.0063483108155310015
Ni 5.194660824028317 4.236893398266217 7.435108667053916 -0.13850584151910342 1.1973861392496088 -0.32082122402398944
Ni 7.97418699994473 7.24110071245949 8.950967297469196 1.1166157047687608 1.2731930590775944 1.0977201534158385
Ni 4.833207427231734 0.5010200439149185 10.219038423320978 -0.7820604189881305 -1.1603933640753434 1.2045651734965512
Ni 7.799869947345267 6.946998318767668 4.418303551138966 -0.36765129700365073 0.8040628914011507 1.3407917320631748
Ni 7.15511743856293 6.156080572643347 7.102864812677667 -0.5123583822374596 -0.8575222967718716 -1.0109132829329237
Ni 2.159869826143311 5.394896712319236 2.5027198814380176 1.37325782301168 -0.5282552559733741 0.5669886679878299
Ni 2.36825111762851 5.251533999938659 11.420634561128514 -0.3941830247455921 0.41216814846910305 -0.1768204208285858
Ni 1.0766939285598358 3.4588582265612624 3.697674035087022 -0.5307109166027182 -0.35412523749275787 0.1382713569107941
Ni 3.689623556125305 2.505158982194751 2.519828844307247 -0.049877087336101196 -0.15740499241645148 0.364090833345902
Ni 1.179501392627935 3.314030968878274 8.323594059608816 -0.041125052175084005 0.1071044443896865 -0.9698486516821297
Ni 3.4948842329199836 2.6690614904215044 6.95494935329527 0.14965902992244548 -0.004099366880354231 0.09976831573958948
Ni 4.074030536396114 6.931738118332657 5.832120439628829 -0.9526271455975207 0.10668021236807433 0.05454389668415123
Ni 0.8645021071674348 7.57210603161086 11.447230523012259 0.6010023059291134 -0.4763076592614894 0.23173609902985895
P 0.15741421092094265 5.68770632836757 8.230403776359891 -0.3175538661266273 -1.7329883225063571 -1.9146478165947993
P 8.472846594609896 1.468803332272961 7.973659040403613 0.7096890072042552 1.1483300051529062 -0.8218032461037074
P 2.0627849372383413 3.286050921279719 10.378743472387791 -0.8276432498242521 0.08124068924904719 -0.1353526406021024
P 3.8816326775940313 6.009237305068766 3.7192019469921718 0.35756665907413904 0.7754927930729418 0.3285129362412923
P 6.978440840754025 3.9607090835211913 10.567213276042354 -0.331317495569623 0.0747082874471681 -0.5159265592046921
P 6.372661509741435 7.738865307217627 10.288927971616584 -0.15172876796728063 0.8007698224721758 1.2494358087569963
P 2.189477146300102 8.504072146921821 5.650398392849083 0.9088931950446798 1.2584097301208328 0.6510385445508982
P 6.828433432093986 3.878784950617119 1.5930510163361271 0.26579935926215514 -0.10747828278933748 0.17304449872592134
Ni 5.332798183416336 2.8861758113025684 0.30454134715290454 0.13230202670123667 0.34749024867474343 1.1234005889010783
Ni 1.3551293036770873 1.062238324000841 6.916696695652696 0.010693218047788037 0.29622656540376074 0.2251011102118446
Ni 7.126549764762789 0.5494521954495674 9.270072734018312 -1.2888554482051997 0.13180477534984397 -0.03626823830341496
Ni 2.872217428914146 1.5925483699236944 9.063091800973506 -0.026782667410482904 -0.5183943040188943 0.429127659141577
Ni 6.642137845385287 1.911991013508488 2.5064381992335867 -1.6074999762928446 0.06907011532478427 1.4049397274959932
Ni 4.163964466447947 7.033840430958853 10.399133197542486 -0.6323684789452206 -0.23566371621903928 0.015571372075695764
Ni 8.376385493518917 7.147143803027574 0.491708428720569 -1.2388909433616146 -0.2743372215298372 -0.22076803005412945
Ni 7.725205258131546 4.007683018035599 8.18409340743312 0.1577528626741735 -0.6802208225418092 0.4919759619263656
Ni 3.2268362809661375 8.499009521185087 12.300029828365048 0.012739301943539349 -0.907039943886025 0.17122235791551801
Ni 0.16443589200973027 4.613489470257493 10.178748962859677 0.10588856970471441 0.556409606920403 1.099626369299616
Ni 8.510201540224509 2.4142758098172803 5.815977895851129 0.6042424101329659 0.12214308389036384 0.1530153479891881
Ni 3.7559077916641113 2.617910889674291 11.558163501387815 -0.1428008693500315 -0.26196044513203914 -1.1012644191236711
Ni 1.023093378572168 3.374221972726797 12.712761295592571 0.6198055546785454 0.36143488378029365 -0.7904815531722902
Ni 3.1297061900456615 8.134979609504631 7.856665375788938 -0.4218059286691832 0.2216020959196506 0.207734593908939
Ni 5.5986041154010575 7.806912421361188 3.5967433587027546 -0.7991456566051914 0.42687151611754875 0.3280740489316608
Ni 2.9135591922964372 7.989166947883601 3.498711035552768 1.6377196944093344 1.1154268266669822 0.4222116487480341
Ni 3.792114606084858 4.390733937841211 9.48459517133023 -0.920386283285944 0.0002432263590576456 -0.14872880479869224
Ni 7.445359580130491 6.124619969850788 11.348734427183174 0.022060322234149103 -0.02109358744550561 0.6650477143457966
Ni 0.5541785181909323 9.116794507516218 0.3242376733897289 0.6078800068855531 -0.33859603150890716 0.23326641963145633
Ni 4.7193345097676325 0.24847728732012966 1.47900904333403 -0.19073420269620053 0.024097407268835917 0.8497845618079817
Ni 6.172642591124947 5.603513054285068 0.26655086120026894 -0.4459066783721288 0.210555865407818 0.0457365828051664
Ni 8.052006789840808 -0.19738906535431588 11.416440718129815 -0.9497297694450675 0.7583684746878294 0.17880942623415655
Ni -0.13210017819696415 5.057192454469795 5.74173539346224 0.3123862058827587 -1.0826756003778903 0.9479598220288386
Ni 8.097868754773755 -0.3435181410838931 2.523400707572575 -0.2974722648854038 0.8330654492810878 0.5231809267742602
P 8.650571879178553 1.6051326110407178 3.6643963112710995 -1.0183525128197881 0.13482967821909683 1.0156993914676573
P 1.870992785444047 3.4056554543100526 1.5146282315531918 0.12951572220535112 -0.9075845035355853 0.4726947450992504
P 4.857173535853309 1.0028880776407398 8.117525303236933 -1.2319651627760588 0.0012552125633397736 0.1379674525171301
P 8.747277071153267 1.6466371016788328 12.484649324338763 -1.5470224877330776 0.8010436449588527 -0.7392584933312559
P 6.4625411973746605 7.777784242568766 1.5181078827068863 -0.37825632621300664 -0.23396884501511964 -0.773055644386359
P 1.6056298332112902 3.4388879761104683 6.0287148535505395 -0.071950779306689 -0.4146495201300601 0.19292529681024836
P 6.896127970516597 3.96842958776971 6.1063710121504835 0.08308134200221176 0.9420146601889969 -1.271496645211778
P 2.4961276194965425 8.57374653362362 10.243028036990614 0.47276879287029544 0.15613846699920206 -0.9078156457097849
