# total energy = -340895.56973137066 ev
CRYSTAL
PRIMVEC
9.04713199470286 0.00000000000000 0.00000000000000

0.00000000000000 9.04713199470286 0.00000000000000

0.00000000000000 0.00000000000000 13.24139217236739

PRIMCOORD
 96 1
Ni 6.347431705945532 1.9645485510454002 11.23326936258045 0.2992692088848265 -0.03388559700385132 0.13894550015968327
Ni 4.579214969007857 0.44824558909984513 5.860639905740789 -0.3157108993806176 -0.8577542102770195 0.09037401900888306
Ni 2.5491108986304183 1.808150778109579 4.6342884810671805 0.4353600132045341 -0.13464558723274878 1.5611321876615825
Ni 3.503130980546445 4.35613983235728 4.8299037623111065 -0.716479033542895 -0.17020265840175203 0.02952166360820077
Ni 4.953015326755837 4.5704482979848455 2.6504369689333407 -0.0013542000350492808 -0.10941149525630835 0.4717444653708392
Ni 7.272392399496321 5.883096697085805 2.6231064875159853 0.34779235329619457 0.33105807126064923 0.637823845632837
Ni 4.954363349441523 4.746297404975853 11.436828930537796 0.017707958802724345 -0.8127133679872972 0.2460887682071052
Ni 5.634345799482381 7.621738359127477 12.456760084078129 -0.34276738927777745 0.783185019510877 0.38848494591955035
Ni 1.8636911221862262 6.453979780907363 0.41720578351382626 0.5379711977095575 1.0050213429285209 0.1942275605614397
Ni 2.755955480260064 1.6342920401846828 0.3653195760999182 0.12603907651066037 -0.09873987447507511 -0.1166892598646442
Ni 0.7199345854770004 9.174877624207495 4.695079780625517 -0.04267697004323618 -1.0957481172911323 1.0191348995117675
Ni 8.792527726607354 2.4738116180065486 1.319849011554227 -0.5451252922558354 0.31661052837675147 0.6210463690641821
Ni 6.877421752590603 0.8012845880618514 4.865337759967174 -0.03993077475666671 -0.42401759160852137 -0.42176453390828655
Ni 0.8282378040698574 7.412595805939684 2.7116652449730094 0.4409488201462213 -0.025899493474581203 -0.7872936423626119
Ni 7.254795727525465 3.578710722265994 3.8748287847900404 1.1657613132554763 0.6980033433362108 0.10686404624410627
Ni 7.4039738890305715 3.7866861954104762 12.652547260832307 0.36458577070444953 0.3069334102983036 0.31617729749407486
Ni 8.113070010229379 8.959646351103824 7.020215352959548 -0.3004462599120632 -0.8786832471202028 -0.9583568489924462
Ni 6.825825958117704 0.5268181221242577 0.30568721416598643 -1.102539686291669 0.24464715066457218 0.5992477851318518
Ni 1.7201312297268285 6.547635692600057 9.192505961140768 0.9588620707636389 0.46902269556430193 0.48488331674564233
Ni 0.12565471328329536 4.9869420722009306 1.488187189460297 0.04722370887365415 -0.49531659626382435 -0.5795063408388665
Ni 6.564707630908029 1.9697596991457664 7.10913147213526 -0.33590562916093764 0.17847209749939588 -1.0568853787876638
Ni 3.382333672497675 4.284993185375889 0.11724088041291221 -0.34053181507903935 -0.8790547715270086 1.2524000335916432
Ni 6.052857084160934 5.712838717744149 4.8231111755163925 0.31958889427878506 -0.39349654020152874 -0.39866008668033925
Ni 5.343978094132975 2.9574893953360375 8.999538775467983 -0.30590805435758284 0.18825154548366288 0.8389561037339099
P 0.27896108117415963 5.616522949208559 12.42188248504736 -0.7054271466041077 0.005361264311913347 -0.5213744696931408
P 3.949543620679043 6.2229431679923355 12.800295070749447 0.1699596891530105 0.6780829502632 -0.5559244397538683
P 2.2335469303304563 8.643575743405215 1.1373195022067768 0.8094233843821156 -0.9725624510688669 1.0512664899389894
P 6.45039711658836 7.889424904255324 5.906270021294622 -0.5717104989435314 0.2766609845670074 -0.16782027421250453
P 4.822248079112269 1.0643227167071139 12.540498529542312 -0.5567862735335314 -1.8186770202244291 0.280451047737059
P 3.947987513954628 6.149218088357118 8.240727758563754 -0.3920184129941055 0.06591125798082842 -0.23838188648115072
P 4.897212615847748 1.0337615044101738 3.6635221575994565 -0.9035717828317663 -0.39906837786235144 0.777618581166693
P 0.2981093363033704 5.567939849731185 3.8079596218743674 -1.5504114588099687 0.10845864442473578 -1.094865714686179
Ni 1.3809632937292002 1.0776310480537092 2.620034986161689 0.5976192483894933 0.4052696215770568 -1.6427464581999645
Ni 1.9656432540317617 6.4451045442989265 4.736856722609999 0.8409631068616098 0.7828425485697937 1.357457879864946
Ni 5.8145375298903605 5.595759780996161 9.175291982858532 0.6558958726431995 -0.8362613305105663 0.666316296645575
Ni 8.723253835974532 2.186492796181142 10.281292123096824 -0.25411163851158175 0.706511380807222 0.17677388386136653
Ni 2.294687449188574 5.279625843372722 7.101160044025481 0.11744027909805581 -0.27507152859270045 -0.44519525412740096
Ni 0.4577025563035134 0.050131968496093735 9.382333791968366 1.2305520844786162 0.4319625574872109 0.10981335868041733
Ni 1.6257425003325192 1.201920549100294 11.479625484312056 -0.2692772905084266 -0.2045831927641509 -0.7778330111703443
Ni 4.041055362059608 6.89590504350909 1.7619787393418365 0.42831081966723655 0.3000371973991026 -0.20359460359863646
Ni 5.74298376196363 7.602196553751104 8.005083441260677 -1.3332113486127555 1.9380343138395397 0.34491888840314144
Ni 5.240922212168959 2.7825630958211356 5.074711015023993 -0.07318105216936428 -0.43620847724775846 -0.7293641170356794
Ni 0.924137404527988 7.520844741739829 6.956935187355359 -0.3816566101438072 -0.534675557677421 0.14346884195133355
Ni 5.009207064345031 4.51448273869862 6.846355710321439 -0.49656743795179 0.24095016142895923 1.298715628828731
Ni 8.228556651724476 7.225519207989379 9.28387113898101 -0.5420391971313439 -0.7074068960382979 0.005884998025867284
Ni 4.6782177357827 0.2685903536265035 10.397207598654346 0.5049381785139884 -0.32227852529580625 -0.33912053655380947
Ni 8.108075993299861 7.322142579017005 4.626568563230301 0.8134139935987476 -0.4078782628444975 0.21200931002489296
Ni 7.1443935742810725 6.157143376093092 7.055529928471649 1.7066604832451062 -1.71547448199231 -0.5074815137611325
Ni 2.3337258242807284 5.278893025671108 2.614354291904363 0.710230738640338 -0.5491092166042478 -0.3283774391046925
Ni 2.421709184135004 5.27673980822686 11.394588775388838 -1.3504354258005258 0.0014079360911201557 -0.23751439627453289
Ni 0.9415531338564692 3.515362703170916 3.658900882513229 -0.07645869447937156 -0.7637274250068977 0.07749459194305364
Ni 3.586337454642051 2.580576824139228 2.6716099722307143 0.4706334916948476 0.3230989643145726 -0.39930774756666715
Ni 1.0946034679083745 3.326693809967722 8.309609003662622 -0.16989926822872028 0.3513073084279885 -0.2771705772135743
Ni 3.6645951474687335 2.4987817026541372 7.026121320806629 -0.3827791537840246 0.3201216268538035 -0.07732309936219586
Ni 4.245140568393053 6.732939052655098 5.998443108033064 -0.32418396984863523 1.3981795259540244 1.2339863069711456
Ni 0.9312394032411608 7.613776882863029 11.509444831775264 -0.11002316069837825 -0.4056827978550755 -0.5190080263434933
P 0.05272940012737008 5.718438892525619 8.06027366132433 0.5209762058134576 -1.3693114367694224 -0.3487107513454059
P 8.51618307604192 1.7424052690030474 8.029805634488213 0.1699334639007654 -0.02825333841873844 1.0049627217764434
P 1.7746402007419453 3.2468076333596754 10.452318203955357 -0.05977403473483899 -0.3383096106167399 0.2833749062520733
P 4.07111898209002 6.304132131625474 3.924312073913224 -0.23769565904740356 -0.5480352668137788 -1.860029872139603
P 6.82164618307887 3.95827410317358 10.447154100942008 -0.28382407797434994 0.0052242245134168095 -0.5447799931012747
P 6.4018502056394615 7.7000955704074645 10.368129211311661 -1.5643949175732543 -0.7462354388697213 -0.7773632706227773
P 2.5128771344950587 8.367484412539104 5.815341819935713 0.37073404969403245 1.024146493793746 -0.425012608531939
P 6.842255550045249 3.8432850539450105 1.6137948576565753 0.3818106192231682 0.331161686718049 0.30547662324711905
Ni 5.229948040908986 2.79857651967122 0.40962609622478646 0.19657832018180338 0.5677849386368802 0.6498812910180034
Ni 1.3444400213660423 0.9795420416228552 7.236275343365292 0.9125487895193962 0.4665377243589191 -1.0172649361825643
Ni 6.989352871163056 0.3585287987316283 9.13542217632467 -0.7610660761246506 1.38516228775875 0.37164499154407604
Ni 2.9400827131396747 1.614162171220594 9.30597147332055 -0.6093910442134408 -0.03657060003518218 -0.5963455238833923
Ni 6.532879820114472 1.798931750480632 2.5336348744281847 -0.14821381283548668 0.012693536307268462 -1.1631912385354548
Ni 4.064369821529477 6.840608971999647 10.461931686544679 0.33920846828192547 0.40443889814564543 -0.5794605752025956
Ni 8.189355428254187 7.266466527958578 0.06755855438311745 0.20642358840699934 -0.637077968605748 1.0787983768106713
Ni 7.585215086764319 3.7894184293103206 8.379656424091593 0.7252477808744606 0.8309805417276012 -0.8314094017349036
Ni 3.158779037844806 8.3625446784023 12.198195762265557 0.33518366339324857 0.32064433212649296 1.6196157857197722
Ni 8.966513124381912 4.780133679099761 10.264396603865166 0.8461492790482394 -0.05164497786980138 0.08996958448161281
Ni 8.689091865094353 2.2140775020110324 5.607862129631335 0.5941132921187638 0.9546616595290462 0.8029403477609333
Ni 3.751429521543935 2.5896058619936824 11.426593005258711 0.014490480306691172 0.7113738511058458 -0.20552113119738802
Ni 0.8488345050512704 3.4943371681270765 12.544233185680909 0.6421484411501199 -0.2837261189439049 -0.12140671994497154
Ni 3.386522494668629 8.506737870110005 7.903760989810602 -0.7601847019609618 -0.6421096174923845 0.45146000409019027
Ni 5.885231820265816 7.845763444650518 3.6601457678927605 -1.4407287121701444 0.5487441199553453 -0.697339998720599
Ni 3.0334310223403342 8.627073774420722 3.5378620160368897 0.6696011380444339 -0.6548157522051432 0.36584226881936993
Ni 3.323599690783129 4.303693607465225 9.320775295606364 0.43587809049153314 -0.020271091544210248 -0.3037226166704898
Ni 7.123883725767999 5.899671043127249 11.416755153792845 0.7737025339417384 0.674845931383141 0.3301031635465476
Ni 0.41802635839699154 0.3295300261515862 0.19220541714839057 0.34559380298297904 -1.0007574254458442 0.7653392495787077
Ni 4.503924735516106 0.26980266933040814 1.587457751345852 0.49304631217240896 0.1344046748665363 -0.6100091374134139
Ni 5.949457411176409 5.584034697770337 0.5999451863264299 -0.3348003119119008 0.10969123128025625 -0.8560053459067128
Ni 7.85660190892871 8.747979648054915 11.474884787081862 0.6148636372922378 1.0716278272041608 -0.3341583074525278
Ni 0.16950525794938154 4.778107121505173 5.957143854624448 -0.7756604289990576 -0.014119727230833747 0.09826447750055335
Ni 7.974305097792888 8.82152378504776 2.4592574965672096 0.8230756850582277 -0.13915015997132163 0.17459564526312513
P 8.575541309872655 1.5548220316540962 3.4950129888963426 -1.0155371548581802 1.2628718796572445 0.6300637420714439
P 1.9051631758183085 3.324061094521183 1.4686562406424657 -0.9727470562758473 0.37285700957430623 0.46030177075153633
P 4.877553197753831 1.019937486532813 8.170985226487183 0.5797387685646467 -0.3312303351724553 0.21862732956204284
P 8.23841802573385 1.7527461410147116 12.506111285072379 0.5798956058574851 0.5750138522851516 -1.455445706665345
P 6.519698148617538 7.651892450479076 1.4570560078398793 -1.6038569802236184 -0.6267992123875592 -0.30270137449482704
P 1.8200387097135395 3.2419764648082943 6.121654190931101 -0.22708548763172504 -0.02309673391846345 -0.5312449347293173
P 6.8893730141193945 4.0650574035704965 6.014293683505012 1.1627024718244943 -0.5603107417470221 0.21957632373887345
P 2.563468697302782 8.54142457465307 10.07235674923455 -1.2227102198366941 0.18978983650506023 0.2886158429360384
