# total energy = -381168.9559126235 ev
CRYSTAL
PRIMVEC
9.21012913725504 0.00000000000000 0.00000000000000

0.00000000000000 9.21012913725504 0.00000000000000

0.00000000000000 0.00000000000000 13.47995496649115

PRIMCOORD
 96 1
Ni 7.244641642896215 7.127129603381963 3.4112237372823735 0.5384231976453114 -0.8949058796266522 2.329109903304402
Ni 7.9013883316369276 7.102906963369228 7.988976661112632 -1.3941621772645152 -0.6379405737163594 -0.07017774656666623
Ni 1.589686734402294 8.373048262318354 2.219946012339727 -0.4053048456903665 -2.6605289574488955 -1.198347988942246
Ni 5.770707813315233 3.2264556496962613 1.5605200969907624 0.18995078756295675 0.8188505912332864 0.9859478712368376
Ni 6.139564280946416 2.795550541089491 3.92873261254456 -1.0197262532388631 1.6172835380421695 -1.081275891816886
Ni 6.902337977986216 2.1367592036480842 12.528094934629044 0.19899001494708954 0.6611308957898937 0.6051728923670351
Ni 7.253197852999572 7.185567873678846 10.37914796690155 1.5884457878748708 -0.8936858911766221 1.4472713983846686
Ni 5.858977692357836 5.115379484484012 7.321732267015832 -0.18328417417605852 0.25923481867076 -0.7060953763157258
Ni 4.368714303559144 2.1538992542426465 0.01674862010006009 -1.3732025442937124 0.3931818371745874 -0.6418885026205139
Ni 5.961164076746161 2.2355562604604815 8.192213820948758 -0.7844867690414361 0.2706119501594501 -0.8423995821978203
Ni 5.425070081605002 4.442717692343297 12.980158473236292 -0.8603340551890538 -0.1200178100172449 -0.2620995418130647
Ni 1.2236854068486576 6.926652719291774 8.541829407496063 -0.2543098705653169 -0.5181163677671593 1.0900268985366388
Ni 3.2475376356236945 3.956441286490686 5.466350802061685 0.6073405894423153 0.46334749955639554 -0.015940582489656418
Ni 5.537258666394021 8.456114418316398 10.089961880601987 -0.9817726568132251 -0.5959328618260059 0.7373947006496396
Ni 2.0565389775983047 1.069074966584864 7.95682686282653 -1.3083618936692434 -0.18783271277868943 0.7316493135254303
Ni 3.822129971165322 4.706744468482106 3.2180293024157853 0.36029665641079234 -0.3023987556527437 -0.21546847221808696
Ni 3.9970119059796962 9.096549968097966 1.382531585569431 -0.5505426066166648 -0.20482384802004724 1.449903179580561
Ni 5.998124325556466 0.27860272674114805 3.2075012036330643 -0.503489876103236 0.6245698088364083 1.8444947526184816
Ni 3.1238548094902288 4.874967479825299 7.772286265433692 -0.34225599685899766 1.1725166297014387 -0.9699003308556714
Ni 2.0577270842757356 6.5223464640526005 12.750298513696436 -0.9855925447799476 0.5757936678739697 0.2378280708602097
Ni 1.7732261907421332 3.13835155298074 3.4696187199716286 0.006195330177434491 1.179039261311305 -1.0360699847042092
Ni 7.516662811252154 4.4686626265318425 5.570119486660727 -0.02985333591600665 1.284077310090266 -0.1876776752580639
Ni 7.448867049604344 4.735498492101785 0.5895744528453213 -0.025026346841008514 -0.823878126354865 -0.7549782180593578
Ni 0.7009617563867712 4.793080220375404 0.1860694788537168 1.7195810479615161 0.24057246637456633 -0.5530437757719637
P 7.873380328489122 1.6220787590885253 8.88990874447906 0.4549880718481067 0.35297826837250823 0.3285638440838857
Ni 7.390484040083155 4.0930827645245005 8.98103376359921 -0.1488020812387889 0.8860265748591514 1.1525041911352538
P 2.1207059483088457 5.550456781655713 4.364027268767326 -1.3329210710658463 -1.8258735379728683 -2.4688642725186254
Ni 8.136854496870987 2.364424389379943 4.7494334177060695 1.4343117529002072 -0.19217941978315936 0.8245584402513413
P 4.167399297704256 8.806062490530797 4.405707708834867 -0.5420075725624601 0.3773029611608018 -0.17531375437607227
P 5.407782668941921 7.668252329111318 7.993249240086743 2.610969144242897 0.22822654321470373 -0.28271207585709374
P 1.9225592269271068 8.899038745636712 9.619457821145499 -0.3692610646929318 -0.021217771728195715 0.6722547736171971
Ni 1.8413166765269802 8.601837083822668 4.515420610872774 2.1868962739164077 -0.4135729992364297 1.3176628593551951
Ni 9.192933971038372 3.404607180405891 1.7555620837914017 0.1473668914541591 -1.8900516153126738 1.4034433454561248
Ni 4.79696689493258 6.346285632690077 11.65964881926753 0.32623468173007686 0.0928193952255821 -0.11392995195195217
Ni 9.00395132829263 0.9371306544850778 0.47864489272920696 0.4233395917048903 1.808013626973312 1.2477221684999995
Ni 5.187117181464692 5.8651208485892035 9.465813523443432 0.9805932917931435 0.06656740350758858 -1.2381741198002483
Ni 8.965895074097716 9.002744801356632 8.712513365383517 1.0471082447962419 0.6768663042472794 2.103673007019693
Ni 8.652198070738878 6.157275359556488 12.473488078113645 -1.155985979036267 0.38004607112357774 -0.08167392013172385
Ni 7.676624336629026 4.6032410356063975 2.9725185701863315 -0.5459822409394919 -0.42108756244591994 1.6327111854511493
Ni 5.792222675318939 5.706752675578187 2.033936399326346 -0.71817621873966 -1.1024967488688755 -0.6692057023782282
Ni 3.1183011015329365 0.8522740493545342 11.427443039799442 0.505227170509317 0.18429873148350195 -0.281240890628206
Ni 1.9539473475215554 9.177451743714643 13.280600258531887 0.20512672397244672 -1.5140246926508183 0.5605238861990927
Ni 5.652155029192069 5.579330536956064 4.380405641670234 1.4267833057336459 -0.45618569170063367 0.8768793611422446
Ni 5.479603257086143 7.869346291863428 5.885941266845016 2.2330568316328705 -0.15002772611577386 -0.5779505663159724
Ni 0.7556321627942205 0.9610954108779052 11.426149016635264 0.819871319188317 -2.479195993461937 -0.4580983353423143
Ni 2.060683535775389 1.1762164005271234 1.9916904573208658 0.34214158276832046 3.411216518552699 -0.6330318235608323
Ni 8.738579873278589 6.276601794539374 1.6937694844098659 0.06728731239274863 0.8547869001185795 0.1951937811294509
Ni 8.38277415884058 8.922349582850488 2.353074747065231 -0.8479475085992428 -0.9991391731161308 -0.4625304029717389
Ni 0.41815644765406007 0.9228365338387797 3.800417091382043 0.32622054066268974 1.5934380988831398 -1.047150925108719
Ni 1.0430563513620597 4.8014522278931135 11.068512328495911 -0.8072556873068356 -0.14861696181117628 0.6352398869557446
Ni 0.5487459497364038 6.853929538477876 3.7615144263060776 -0.9201595119871185 -0.8481593674997329 0.38133265114548515
Ni 7.913969368236698 8.976505143031051 12.556807512666953 -0.6889993400653875 -2.596931435202908 -0.2477242469279992
Ni 1.6532642568387608 2.864525199285449 9.791246073533912 -0.6684482553869133 -0.29763552993614545 -1.5413313508855713
Ni 2.063262371974463 5.768755265907362 1.8674458133011733 -0.5385972613293305 -0.044297793476110806 0.48921279735893164
Ni 2.8059303567907654 5.756118968531897 9.917580495887785 0.05508279990675675 -1.7277463573811276 1.6569867701690626
Ni 7.157449348979653 4.357901611781596 11.327328013486733 -0.2448068161708881 0.8694046500317543 0.2262863887691974
P 4.772514001687785 4.221739060470467 10.724584917793424 0.04317422139462887 -0.9453136426552429 0.9421812676738484
Ni 3.3728138141230164 8.902750427737523 6.617674065164315 0.33730816593541907 -0.788279660424965 -0.7699998882791707
P 7.775052988270128 1.8921289597780286 2.6111075710670475 -0.34537937297932775 -0.4013098655983604 -0.4031057811565186
Ni 3.597264664735315 7.511422247690463 8.787691045651176 -2.2227143120562816 0.7594290547418597 -0.2176125151442833
P 5.562899666316247 3.359809111576255 6.033088739351274 -0.45382207656446355 0.6043082303738947 0.4891721739289834
P 8.689305681617704 3.226317497757025 13.111628463678034 -0.4977686573487428 -1.5379356949404608 -1.389587156299323
P 3.2553386151258943 3.50451866286146 1.5418778743102393 0.12808258930325037 -3.0957375326772296 3.6816590330138212
Ni 3.726316996240424 2.0644412685226117 6.7487130215556395 1.7950616947983342 0.40943840824276584 0.5689504196998911
Ni 5.225412899020948 1.7655357327913221 10.882111284988028 -0.1508903312263853 1.4742918928375708 0.2231540137878028
Ni 8.230889916844378 2.864672561353968 7.270993664799043 0.1364517872035521 0.7272342151768701 -1.3255648878110915
Ni 0.8287707204387557 8.314656042667885 6.772477918143038 1.4066099161095644 -1.4727754561930442 -0.4108697413726537
Ni 1.5658877603365502 2.3309547795676697 13.262954571839721 0.2424447436966147 0.9408262963078506 0.639335397181357
Ni 8.488819587398233 8.591945404973362 5.021862594789218 -1.1596482583792027 -0.2218386374104889 -0.40662150761926097
Ni 8.878122542036362 2.661358957444797 10.905755528881826 -2.0779102962332923 2.1666827750830104 -0.5600916837576806
Ni -0.21099945679534046 5.108637669849288 7.448174447882307 0.7418967022850513 0.3204337587775836 0.13678937304862895
Ni 3.056059047842419 4.48979987323497 13.417920523093816 -0.7925533480996544 1.2184936106521853 -3.095609748850114
Ni 5.796864580477273 1.2937560704292226 5.606340162089655 -0.4374672893555239 -1.4321988203222624 0.2752898152510937
Ni 0.7428181099236054 3.9293266658832753 5.542418180818027 -0.033521528796213236 -0.04317499272557726 0.16715333005246696
Ni 3.7777463581533945 3.0795172471247136 8.94765717609269 1.1402063476045072 -0.1683085267028327 1.6259011045078513
Ni 4.1145331556232305 6.46598047284426 0.34253944421962873 0.86408529470137 1.3909781231095786 1.7255292951251509
Ni 3.78545523636277 7.169137003039029 2.803224420807594 0.6013689452399127 0.523090423942983 0.49938690967845606
Ni 0.5111852004968849 7.606176057747883 11.194873460224702 0.5552438687470761 1.2550426134208126 -1.8761694580139432
Ni 4.020663517976922 2.1504915064081556 3.2283814877292123 -0.48556825862780895 -0.7000206308765556 -0.2141492391860312
Ni 6.138210391941902 7.828379636815274 1.684306997585119 -1.0909566094397598 1.5616865175031556 -1.0089322479471527
Ni 1.7481746390939819 6.356343093866467 6.223089101382723 -1.1840588260130833 -0.44928279393321335 1.411413508145795
Ni 2.0208036759825596 1.7574216088935202 5.24159970123478 0.06721480728360037 -0.846923952430735 1.000809104619386
Ni 7.069050528127095 0.08783516094047461 7.260910415260661 -0.7301747858624328 -0.2549811856007286 0.30224706056622785
Ni 3.730885220364499 6.505666919922159 5.188340286633396 0.9985164519304675 0.9442846871700963 0.4314822754166827
Ni 3.041497833446931 7.840813311346525 11.163856507840334 0.47729676264763604 -0.406413505373513 -0.06689161961622674
Ni 7.279391460678743 0.7250057198914271 10.663709647288416 0.5339340515257063 -0.4023637607841716 -0.6471271253116339
Ni 2.948282114979673 3.0590523398592016 11.61325095098154 1.5776600101132765 1.7813613144931062 -1.3225528404576448
Ni -0.0678519434364326 0.9635268850084611 6.577287648260953 0.13674129341951288 2.398262036820031 -0.8697756602179278
P 1.7447853115180554 3.1561086822372237 7.409149288086884 0.024328549443035523 0.6903347710473595 -0.1885564783185914
Ni 6.128272662446182 0.9997042728297622 1.00993580544959 1.5913012550457948 -1.008025162751851 -0.09015830345365118
P 7.685263437895926 6.831871278846508 5.849464549822037 -0.6369704964936062 -1.638344986698159 -0.7685772969000312
Ni 4.288355925570128 0.687914687245311 9.085853323949376 -1.9087180813739255 0.6107586139849288 -1.927379662339171
P 8.811367524997465 5.829496068524846 9.775730689744767 0.09961996308718328 -0.5878601121202005 -0.3838271354325648
P 4.667619839290434 9.2505617499584 12.955207311997318 0.2518763214231598 -0.44944683031490335 -1.8995397573087673
P 0.28445576390011873 7.738875600448827 0.40050707691018045 0.5669310752770171 1.174638818250764 -1.0162202969681335
Ni 6.562272374491842 6.865239577236673 13.291680965071555 -0.38000519058331333 -0.47474108610531784 -1.6107858461329678
