# total energy = -340859.57990418473 ev
CRYSTAL
PRIMVEC
9.35162698175062 0.00000000000000 0.00000000000000

0.00000000000000 9.35162698175062 0.00000000000000

0.00000000000000 0.00000000000000 13.68705136473205

PRIMCOORD
 96 1
Ni 8.60488091254543 2.127691534517544 0.37117075281300876 1.635798309016905 -1.3775083707579179 -0.90897752722837
Ni 5.949823074671063 4.307724125547211 8.149448259500721 0.06115497424276564 1.2630564848642247 0.025087796206563245
Ni 0.43081543003907974 2.9974770133697914 2.6195646726276083 2.5918815314838266 0.27856231535477827 -0.9611809487048026
Ni 0.5711768056880712 2.283798244604531 4.855125354662757 0.4955629079466755 0.7356049557390687 0.836494786677611
Ni 5.018055011834118 0.3647920080127731 10.803901047105954 0.4041496490400008 -2.6636623608715544 0.17549810247273648
Ni 1.4738631787731131 4.747736880774726 11.0317908463098 -1.3850319328284726 0.839871673569644 -0.1401498048804296
Ni 7.552280476795651 2.6539730491383646 8.794916260676304 -0.06469281219269503 -0.49683868933530567 1.6657578314934731
Ni 1.0708548117211332 4.856197051120911 4.204388646815934 -0.4900136959936722 0.23165459505964617 1.3664824519610594
Ni 6.034632980246986 7.212638734529475 7.92521307614196 0.12502426209290082 -0.8521618037909066 -0.99910137789966
Ni 4.490585840579915 2.5284461594542083 1.6383265027781337 -0.9428595246877955 1.101082642130168 -1.1632879120143191
Ni 1.6835921182759501 5.121381138938361 8.107196673396125 0.652434139346844 -1.0085249852064049 1.2253877666688575
Ni 8.56167639564602 3.134459646171216 11.387681975711132 -0.34917612101759865 -0.02500474957445371 -0.6142051777726325
Ni 8.27658269387211 1.5879904351022085 3.3751312492058223 -2.1666303245785206 -1.4903373763362073 0.6973929634457215
Ni 7.177822627080014 8.051264592102752 13.416116276047147 -1.519448691879867 -1.2619809924118588 0.6086104572936745
Ni 4.648759260241528 4.687306666877757 13.645607073799297 0.17916372424978175 0.11361010671868821 0.6312240809281322
Ni 4.763746866257798 8.84145837326433 13.027704863633325 -0.268664339514776 0.8834611281248205 0.0712745791752708
Ni 2.339187931529902 6.642208188678757 1.1295540394540158 1.9548015059955497 -0.5370152615541913 1.322129379766981
Ni 3.9130761130640774 5.849919643061449 7.9739939682420475 0.8123071336878138 0.6537621141296482 -1.721262549428997
Ni 4.585682535893794 1.8355560575866516 12.960529321156368 -0.4071570684077568 0.44010678386090013 0.8217651937769204
Ni 4.824579200117251 0.15676225914210573 2.278948490824437 -1.4386538319189868 -0.873698906531734 -0.15693499475856842
Ni 5.43350104284199 2.2043000631842062 7.20600001449768 -0.33486433238061686 0.3878845933313901 0.9696267654793107
Ni 6.866226414290317 6.009392938880858 1.293471228440221 1.9670795520319542 -0.17412101961955173 -0.8690485522439162
Ni 3.4935714759232313 3.485688054333144 11.936572919013274 -0.48993039225124657 -0.03484847513775288 -0.5419306965779377
Ni 1.4056991693186085 2.82550059220525 12.418425788755869 -0.14991408335604506 0.4361655398249649 1.2347854058336734
P 2.3499703575006863 6.466238622770481 9.695921211220544 0.20267594843910902 1.1446720966853448 0.4714019944297559
P 6.678922676416223 8.278331448127561 1.9585757760628575 0.4740445742589255 1.0546726874070609 -1.0503342079327072
P 3.448758479173885 8.890769502617275 6.431860171466236 -1.6284925193841113 -0.17654119902527016 -1.461201635312516
P 3.0023305078006994 1.052488216225366 11.561616627576699 0.47777344517373854 0.16799870877189776 0.19459419987223905
P 8.781299356551362 6.130412344334384 3.48182209171708 -0.5786643045535453 -1.5474246082675027 -3.239930397278781
P 0.600011612486263 5.1203618115916 6.4340091753587645 -1.0227128466710127 1.4445372872829574 -3.2451276252090047
P 6.3034174444727205 2.518196776224391 10.790584330208821 1.5374973218514616 0.9590749581053934 0.831411972838065
P 5.224978463226604 4.763129658873521 1.9741929932104803 -0.8729738554402514 -0.32368543294566193 0.6600322634090762
Ni 6.865655965041213 3.2491386484953475 13.042610421963623 -0.8323432264030826 1.1663351834810753 1.0927874920009115
Ni 6.316303986526268 9.301726752648584 4.109386402935104 0.007350783938116373 0.7144049246226858 -1.3758836906703014
Ni 4.544815925753008 7.241077032341403 9.769434351338782 0.9643377491662295 0.0656520907821708 1.2856120015672374
Ni 8.565688243643821 9.34853164595628 8.655047715772032 -0.5935628189319326 1.1657487148499859 -0.9289719680724259
Ni 5.525100229644964 4.4676743543453785 11.582571753435618 0.7647514953960377 0.949220948129449 -2.2085326212392604
Ni 5.429863259925567 7.00984870228624 3.0056213453541414 -2.257711911177389 0.45479163956658447 1.5432301105701811
Ni 3.2150800228356817 5.021159752009574 5.638983408508458 -1.4622766135442493 0.5879526718340068 0.3697475174110471
Ni 4.87830429743048 3.81928864553503 4.732544227494469 0.9234574660121 -0.3976265032095023 -0.4515721041880223
Ni 6.3777348245159295 1.1564409023409201 0.9868435350939568 1.0477335370850664 -0.14577460726637476 0.7914709136687531
Ni 1.9267811793082448 7.210572024954849 5.231957582482455 -0.4401101262950098 -1.9134813070905239 -1.317802470256853
Ni 2.321691037348344 4.79580424373208 13.609623883295932 -0.7736225726334225 -0.7850536972884996 -0.8267420781662214
Ni 5.563133296794294 9.333456823176657 6.433105808187232 0.35090544500387955 -1.300088597916858 1.1343226351302207
Ni 6.692987523476117 1.0777750157266668 12.500452650126324 -0.16597396503238512 -0.7402162292588348 1.0647514117993018
Ni 6.004464631433675 2.2551448593708083 3.178913540442438 1.3440089534488917 0.7783701146207369 0.23738147024109443
Ni 3.9214271160058907 0.21605157454086554 8.34658336287619 0.40746328679426597 -0.04135388035643846 0.9535689406854997
Ni 8.659803018119076 3.559631369294973 7.019897025534815 0.6506652203718793 -1.1671054859881964 -0.194588029224652
Ni 0.01265181621498141 4.994722702383029 1.2342642073593648 -0.1568977137627298 0.7471409814031262 0.06148638944025539
Ni 2.537638808829126 4.282353161402599 2.511026883777036 1.138304502596104 0.5180634030420369 -0.3806708491917702
Ni 1.5299729409801415 8.006965934840304 12.577702700407551 1.3220275640817942 0.21930172992124813 0.6765050642531188
Ni 0.17553284492576357 6.99822462988235 8.997046068050903 0.22922258857938588 -0.6984049496500037 0.44927893727847146
Ni 1.143170943578958 8.458939421044951 3.07355062897008 -1.963363022412315 -0.3413666522755089 -0.17959618380151005
Ni 6.641347838991582 5.178641151270633 3.4969324506794326 0.17397652362188748 0.03164719459163582 0.9131098042291887
Ni 6.5722299635795585 7.3493127636387605 5.200491227836753 -1.2437688402792062 -0.8572549020430978 0.4488390215275754
Ni 7.326036563949879 7.690375953214182 9.967731861954643 -0.2833468812276152 -1.037297172243091 1.0301968137528839
P 0.3408013440184548 3.7950492282615937 9.256552783095705 -1.2934505237750498 -0.7003998685928454 0.4141347852771707
P 9.184335778484446 1.3852284577400777 6.644338489317217 0.8978135401917505 -0.08281831814881221 1.8566383299595508
P 0.5013800021533419 1.409748423824549 11.220385108714657 -1.2436279438259679 -1.5868761293949059 -0.8687629026826974
P 2.964727615494956 6.287332645973372 3.493003832162237 0.1367639191273322 -1.10275411629532 -0.11124134937619551
P 6.161777701408113 9.24324167717479 8.793122618611086 -0.7681800614616124 0.2719304118605575 0.4253471090532223
P 2.8287736616673267 8.669977588332618 1.4604903521137715 0.5974680675236098 0.9281219613673047 -0.4645685164476902
P 2.5027852948715275 2.855715699153735 0.9325124523488914 -0.9396209631458399 -0.8992335604677287 -1.5274214256726986
P 6.389611390849751 2.124689662239468 5.288403068100021 1.2173312149129678 -0.21731863805294835 0.18573546393002852
Ni 4.8565617645752575 7.079443510677025 0.7360113892863613 -0.8473708101601664 -0.36247515211934994 0.09563629584908691
Ni 3.203736499242827 8.336292832487421 3.789205396527732 3.036791136050009 1.5982447762431637 0.2067938272622245
Ni 4.381433649833177 1.3723699705676338 5.067480231036883 -2.5927227964381996 0.03776384901233496 -1.522681854105184
Ni 0.4250866233177422 7.49961211333732 0.852787961554332 -3.443712434297876 1.0546901709085579 -0.055431184385110986
Ni 1.4690003327151708 0.8683378469873063 13.72044814495644 0.8688593190512455 -0.4217128547347447 1.388283606996551
Ni 2.5633651348010487 1.2546890959654267 2.7826327338790806 -0.4084888998453029 0.4440662827292804 -0.26366920029302976
Ni 7.9523804878399 5.038862381985892 10.023137446645972 -0.05270067282782537 0.07485072656230335 -0.5169004930821872
Ni 7.974450327641331 3.791364687209999 4.545236748969561 0.5934003252121394 -1.1665611834489522 0.8840671371399355
Ni 7.504100894313883 5.5153371310209405 6.537291349815945 0.22458508980737452 0.6315572958978349 -0.1360848907824366
Ni 1.4014722338990124 0.27620123962679977 8.202649665700017 0.24579129157134444 0.5486433327114228 0.1444872559135189
Ni 7.479637037991618 0.607404073657039 10.608587640676808 1.4177011409267197 0.4105889769074412 -1.876825346430387
Ni 2.0371864880776074 2.2656841430386954 9.575516207663185 -0.4874662469814702 -0.0014747847733135892 2.840970005749204
Ni 3.50832834338368 6.9481560187396125 12.22725889375382 -0.15756568636403187 -2.0450901643794777 -0.22318152459162852
Ni 1.461706063628257 0.17804188645912117 5.410901900950407 0.5272311855842339 0.13113654563822577 0.5605976768598215
Ni 2.6670092172244644 8.458714981996122 10.417967815856278 0.24180428189913838 1.4549381709013072 -0.13515209455552207
Ni 8.814039402799162 7.203418030273453 5.127238062950072 2.071017425768201 1.0982639417344504 2.1164117947426
Ni 3.5508875980177104 4.699220639719716 9.989644594421893 1.0704988558060402 -0.13305947369255147 0.6100037380967752
Ni 8.768459572632988 9.340386378809225 12.742877683229898 1.2971128031179855 1.1868813830635432 0.00797479067536046
Ni 7.827779409232159 9.248712378989975 5.904032832896611 1.0352711429519976 0.6031957140360064 0.30716018159712905
Ni 7.463683162270754 5.606767988537293 12.497276837585405 -0.4105892340177574 0.2941203176940354 -0.0597588652261874
Ni 4.560330275003252 2.1570836982869923 9.72455402287479 -1.3765030694218552 2.9310930850895454 -1.6528025568843856
Ni 0.38006415012282274 8.608153982007508 10.753355502984459 -1.4622290481357656 0.4657003160592883 -1.5854041728350696
Ni 1.7407025045756703 7.6022462200410095 7.295622267345559 0.8539770026227744 -0.5744744348419139 1.947360733446788
Ni 2.0966721876440917 2.381447934098829 7.414029763368347 0.294649450724628 0.8707781333405133 -2.4890096371182486
P 5.381515348157178 5.724402105004328 5.948200567380577 -0.7465851088996562 -0.951120222034691 0.5197855279394661
P 2.528820224535589 2.8851733243124245 4.333155875267546 1.5529604504840675 0.48556748729686056 0.5836774414974205
P 0.06241088850287747 0.5795792425785736 1.9391131698786463 0.634840594634797 -0.35433478240040267 -1.2055928434301173
P 9.21521485095238 6.753090430426879 12.38513867232655 -0.07226702499552716 0.48960077682596975 0.3575322062917778
P 8.13469045687757 7.684484428182444 7.44612548251347 -0.18091824504704324 -1.827156775560666 -1.0795555666916699
P 7.887910371064025 3.371635611020325 1.8177776794313547 -2.084963346425332 1.1234514967436715 0.9804431393685245
P 5.602784195420594 6.989976494837918 12.133926850461352 1.1363964869401137 -0.6594254830630127 -0.6144666589641352
P 3.815304852418331 3.6819225960251907 8.157304561372408 0.0040024362911737525 -1.3149277198122193 -0.9687428202124606
