# total energy = -340854.62051164993 ev
CRYSTAL
PRIMVEC
9.45568988660982 0.00000000000000 0.00000000000000
0.00000000000000 9.45568988660982 0.00000000000000
0.00000000000000 0.00000000000000 13.83935794482848
PRIMCOORD
 96 1
Ni 0.18109253305044545 3.1231764958948776 9.744388960303006 0.17131260363647915 0.3351443255148809 -0.5230343738940669
Ni 8.168373220961675 7.762724131436248 5.8091256808335805 -0.035941193981299385 -0.19887020153977364 1.4276945046940055
Ni 2.3312719364854386 1.0008753024982953 11.43277611642569 0.21961489028629275 -1.3170460517068026 -0.8888637871976305
Ni 4.462565490817655 3.8321735677295163 4.060426353320943 -0.8645365233061756 -0.3829719865211211 -0.3001289857819605
Ni 9.259361246610956 7.8017383072726565 0.12774069487260598 -0.6982105742510105 -0.8464367283816714 0.8195812987517239
Ni 2.2239120352623223 4.92290628975602 8.280489334120253 -0.5129461364201295 -1.7600854358334654 -1.4759217151315096
Ni 6.988643547172623 4.535790352106347 8.32334913897088 -0.37734487014233076 -0.30841667971204945 -0.5179433325244047
Ni 5.915394395461563 0.11078853432013082 2.3916484065655728 -1.8150116555577 -0.5282346871480837 -1.3350972527815586
Ni 4.421527797378485 0.9460228463599036 13.231864814522966 -0.062014494029583526 -0.3563497559479024 -1.9512703529138398
Ni 6.012135557115052 1.7911534832737397 6.3231889809873 -0.9595665530298313 0.9567761347688878 0.685257099414136
Ni 4.335490476502219 1.2677432338194166 9.320654918595146 -0.11852734151464746 0.5152943249373318 0.16886208521345758
Ni 2.191677588964136 5.4901531168103395 3.433779828935858 0.9452581068269591 -0.944275945419348 1.7294430283572604
Ni 1.603183827080827 9.251427922925366 13.626314585129187 2.7390321931621218 -0.9270076452572035 0.3603403651645342
Ni 8.463182715442414 8.813440374514695 3.8565446624461326 -0.41243914274230253 -1.2516225319956702 -1.7095450038817526
Ni 2.8105808490272532 0.21959988391719013 6.164714457777061 -4.438895965200367 -0.5160000927551048 -0.4394439534659206
Ni 8.14164198608782 2.6389884474510787 7.26401592583918 -1.1677181798715308 -0.46515061420340537 2.769243169527863
Ni 7.249639495169846 3.2093840191863303 11.435419927274904 0.09429238022668276 -0.49350319720416946 2.7846057680268625
Ni 6.19567995051314 4.859893573378457 1.125023780841514 -2.6424561591075846 -0.9271922504641836 -2.0375473190352134
Ni 3.771912457064119 7.393176865309612 3.2810070866343324 1.1190114586944468 -1.9075718835846243 0.11232018426267107
Ni 9.193559101762297 0.569262780105295 12.986313790134853 -2.638926291577455 0.16048800221714943 -1.3495879901985661
Ni 6.564328926115187 1.0911676837541995 11.620853567481552 -1.337677097693593 -1.803396439916275 -0.43884694331187
Ni 0.7745562054571711 2.453779852660064 6.491820806108222 0.0181203637497946 -1.5357605416660132 0.6735135857249627
Ni 7.9968564649033596 0.7410915739247833 1.4314183863825467 0.9147738221951729 0.04796032992936256 -0.1784481862399959
Ni 7.854746903913205 4.982637881796395 10.37007951445613 0.7840746212046819 2.180199835732839 0.3450037348074639
P 0.8918010847266716 8.529892606505395 9.733981082614411 0.31078312306169703 0.666188255708143 -1.745115959007827
P 5.883367974337492 4.731551496638862 11.550355727111722 -0.25612918316224276 4.048358250516847 0.9395209472328658
P 8.616137952555778 1.4535664484430455 10.975635122892811 -0.9389902715403764 -2.267208537813915 -2.0917173773197137
P 0.41354269931414034 5.756652276231892 0.888046230333885 -1.3163094306510943 -1.2084331410923899 -0.36857098060444266
P 3.8408160681450467 1.5977373497948912 5.122499825337128 1.731332017849857 1.9868240816487333 -0.9365199556230128
P 4.130075072752793 1.710052032437852 1.272414344547285 0.2924907525104124 0.21854891091562362 0.9571489447272742
P 5.062103498308556 3.2744958986845143 8.455667333243001 -0.492270610348649 -0.8634713152664548 0.43940770091134645
P 0.6589291947009059 5.430090575629325 11.05296942693926 0.6505281805733829 -1.3785851487618646 0.7383704342993477
Ni 4.926329249439195 4.817484804928072 6.797795579025129 -0.8190477948457571 -0.46151378878176647 0.027848132560519778
Ni 2.5542465560681675 4.025324941895854 1.4474722564104316 -0.5470489916411094 -1.482546419536879 1.0603283430309418
Ni 4.7548314047603455 5.150230526615712 9.706343992664179 -0.05923693128444637 0.022169851228819884 -0.5929056449639079
Ni 1.182301621396299 7.477304136859908 3.79850280216096 -0.8944700776408143 1.2329277837996444 -0.0017308666481776643
Ni 8.435676114010493 5.093080337872316 12.947909506286193 0.36986758792867913 0.00014552443892878162 0.4278035410135148
Ni 7.9525471028167365 3.0923887701257686 5.256755490435446 0.0731352865330934 -0.24713340742153567 -3.6811514972497825
Ni 1.912384881334474 4.846891999996232 13.136013433273309 -2.8086255279802277 -0.737223208068782 0.2543684917173942
Ni 5.851426654421015 6.954092456889968 6.069499444446403 -0.5552443829677083 0.273483101059658 0.5963696922531084
Ni 3.518310858437734 8.835320840555765 1.1945278282204568 0.2458805088510411 0.1547176753922755 0.4912269995754831
Ni 7.309900605835242 2.2764856701751746 9.388662130289429 -0.894783495116175 -0.5900494064620355 -0.7043845642722063
Ni 2.890037009849682 9.284229710607503 3.713777931019567 -1.0816957529631241 1.6695820903355698 -0.24159962208750005
Ni 8.536946551045862 0.5680458328367187 6.095282273640085 -1.2477656201434253 0.9024574667216652 -3.1703632877129206
Ni 2.138999941464226 1.6489966438349224 2.2159030660588717 0.7655971312257848 -0.8731245220855027 -0.1769258360581985
Ni 0.6059262714741968 5.8810702417324885 5.7265188841922745 0.2074044642630299 0.4907413181883161 0.15085536422339182
Ni 9.13744903888948 3.85246547789552 2.1526983991797386 -0.0661961362110989 0.1956306115565534 -1.129666624415448
Ni 4.842400547373281 3.0683996852743465 11.332247005465351 -2.01144342285931 -2.401910432205896 -0.20232910662265158
Ni 1.884906646971749 0.9233915985540725 8.613630303638711 0.5990546952844393 -0.6009385425707134 0.5854970112046627
Ni 1.0154559760658526 2.0854712818883883 0.3948856779028905 -0.7290596984213831 1.2306042778727904 -1.080681195655681
Ni 5.390036273922339 7.168065259847331 11.332275372534548 0.40898666541732787 -0.03596999033670579 0.3949142464846618
Ni 0.11166224005141634 6.103515342690196 9.085704667966171 1.1850487007301784 0.4454361664936135 -0.6548422345677044
Ni 8.088699579275398 8.5071611283884 10.370550407804808 0.618292974688761 0.9735726375009363 0.7397089506051132
Ni 7.937105961483519 7.5453378244854425 8.266234881848467 -1.0055900709477972 0.08730077940019802 -0.8438550836974241
Ni 6.70063269360957 5.257997022497326 3.141423140371736 -1.3624319360407697 -1.0841958936771585 4.302144644478527
Ni 7.07030288370273 8.519888486768382 12.968447264385244 -0.18952372732786715 2.243803528626413 -2.416391142320574
P 3.154068234251045 7.462600539325828 13.314998293082374 -0.1510847066253785 0.9351675553601765 0.38288302635174065
P 4.332587579754333 9.1446353630862 10.828992504244882 0.5999162719537863 0.8781859957688102 1.0461098854387145
P 4.102502281492742 5.448784474230532 2.190673394714542 2.0629544462544085 -0.9599966985887143 0.2712449557577587
P 5.998254604587701 6.405662452403378 8.212136044181758 0.3711284569189738 0.45932166622645404 -0.4338425481187431
P 7.978758274755303 2.72586732471354 0.43661552783048047 4.127259750109756 0.1924432149675073 0.1576507898786704
P 1.098599855883966 9.063089494832884 2.0396858866345173 0.04481047144647121 0.38418349033071897 0.7149399711905494
P 6.237946883617539 9.147301867590773 6.492222672921853 2.1038298443125316 -0.916063487540874 1.7777167757619834
P 9.20827215498611 4.326639950912573 7.8369096908017655 1.258274490094549 0.9493063087544038 -0.80257396556045
Ni 2.641938622647627 6.336040208902778 9.94000826948953 -0.650122460494532 0.890234442292912 1.350491990070074
Ni 6.6672446531640155 1.0659020807888864 4.198916276281486 1.644435930087245 0.8223064109923708 0.7016311698967851
Ni 3.5514246838810446 5.7915626827243845 12.131871189972426 2.1235869723348006 0.4802332195681407 -1.2674021634274302
Ni 7.825623379537021 6.166575337516422 1.665358769348088 3.6741969203088205 3.2605524444045066 -1.7863407699855687
Ni 9.135709191978695 0.6396074383014595 8.093173066087857 0.06922463862477755 -1.0555640888730788 3.5162771930394796
Ni 0.9433563418553308 7.5895431739850086 11.581867758714342 0.011548624069547852 -0.09184726112029988 1.1831995633365817
Ni 2.6926305753037063 3.06104315866244 9.960546027588581 0.133768326834118 0.23931391137711686 0.21468659974673993
Ni 3.0287519782258587 2.595378806404662 7.437284821204932 1.461822042505334 0.12854564498259796 -0.012060273598643744
Ni 6.049419341730407 2.798505933238816 0.20002849730880487 -2.411892226008956 -2.3232956106154696 -1.0496600646838181
Ni 6.267401357134362 7.601570811324784 3.871989586055243 1.098942970079346 -0.39866959976203603 -1.3389971020565972
Ni 1.8821739526390486 1.8993171181241209 4.422670990267148 -0.7968244646711826 1.131444285141161 0.8441463896855977
Ni 7.801360079683356 5.418639735363235 6.024300301955948 -0.7002936820322843 -0.5122856200179952 1.2030068278704957
Ni 4.208822056845281 4.016039454578512 13.64065224747062 -0.780681793473049 -0.06841217002581121 -0.8076223266176348
Ni 4.943084731645233 9.140645062019075 4.907533229388877 -1.5711348074002491 -0.11284700330041855 -0.6725951876757513
Ni 4.213029838776256 9.032226123545914 7.506993111482098 2.343882433627886 0.5435219523244575 0.1884045261217594
Ni 5.720928680422404 6.886730123235442 13.772416338324415 -1.6116643920831792 -0.90886928378528 0.36274537506160104
Ni 4.671016170971222 7.760965373145997 9.131540178375625 -0.6701996908603812 -1.1041579386213822 1.204456930053461
Ni 6.906388502189367 2.8844770642869553 2.4815767437667744 -0.09743632517230318 -0.7160180347460765 0.6432565866126342
Ni 6.428630322763686 0.1622690914999031 8.813207764547276 0.3160418003574751 -0.6215752449844586 -0.8265916686312861
Ni 2.339876614142039 7.231569672090986 7.745072249843567 -0.5924328190925473 1.1844591467752956 -0.9315510416535117
Ni 2.3636954965782753 6.340493838766799 1.2960185828265933 0.5468507595873743 2.7434470344003654 -1.052525559157071
Ni 9.087390617445479 1.3898823780944736 3.6985958755850215 0.7964945921355896 2.3999149990424216 -0.7036672264902075
Ni -0.052225665530695464 2.802751537928721 12.181056851254112 2.357989819563546 2.312392847660037 2.0965759909635957
Ni 2.0757602885330826 4.046600243794041 5.7640929584824185 1.8521329858900295 1.3840271457130422 -1.0098334196051835
P 6.232273469778022 4.363384761213174 5.008615498198568 -0.3237682224674553 -0.6380665577712624 1.0292419060387823
P 8.395725824890564 6.40395097256179 4.1303010637374005 0.49923547170225635 0.954925454713394 -0.7977395202862843
P 2.777665593068326 6.255837048591481 5.542330558323399 0.5764978930298459 0.05434874995420963 0.2247774083238387
P 7.037879323609894 8.186717259042778 1.1024653418466233 0.11260531960325768 -0.5126987962960138 2.4249189772859268
P 2.3838266600188263 2.8335108966286326 12.385547488547697 0.5447391125610103 0.7925057826911707 0.41066379600943465
P 0.9044546887267398 3.882742596419073 3.865775306763026 -0.0320742548267254 -1.8862610379219902 0.8663632921022693
P 0.7308113480475794 8.593633410992362 6.563578144350425 0.09525320147805531 0.06327613435082652 0.21967222588678942
P 8.134767699652272 7.052233060623871 11.984578965439873 0.4563695255766656 -0.6935885020979669 -0.33900766512502906
