# total energy = -340877.0779926032 ev
CRYSTAL
PRIMVEC
9.22577051236214 0.00000000000000 0.00000000000000
0.00000000000000 9.22577051236214 0.00000000000000
0.00000000000000 0.00000000000000 13.50284770001741
PRIMCOORD
 96 1
Ni 6.08487551826523 4.864149216244615 3.6054902354042873 -1.5304087904357966 -0.5529324470050799 -0.2891943411473277
Ni 8.668967763135232 2.8075496370512125 7.658639774866676 -1.6752382601800826 0.29538067246369776 -0.3461959553433522
Ni 2.938002034782204 1.7268613085213131 3.344655555799644 0.0019162431861063775 -0.28648259864311953 -0.019048789101334933
Ni 6.771512728557076 4.901891844187859 8.213539437568697 2.182924947973486 -0.3875529210235842 0.5919139704745999
Ni 6.858234973159007 8.80293517950381 2.2107806591707937 0.08585993318861342 0.6256959520210514 0.7365428941723057
Ni 5.576637036044398 9.350410864521663 6.4127723251051325 2.3404201861108986 -1.0430469302426746 -0.21811233759883727
Ni 5.974175495607934 2.437125717581835 7.134296787307852 1.190334631719466 0.4576985288007343 -0.26250089101654145
Ni 4.070114809206908 2.691221894265494 0.0008699901772300155 -0.32485734176657605 0.4243220102228176 1.0190873341032836
Ni 4.404622803332104 0.8341655870157856 12.019991868450695 -0.46895893220590207 -0.514194921225566 -1.0162624630599788
Ni 7.814744428035503 5.3639645698142155 1.7842658989853704 0.2079197133365516 -1.5487698094414875 -0.5295819452045977
Ni 0.23620094925234386 8.964718294539924 10.458306913429816 1.278810662374688 -0.6434111099126273 0.25170071507724395
Ni 0.8399095518550582 8.035129638572839 6.305276412612758 -0.4679901405347295 -0.808506014774169 -0.2625440855496511
Ni 2.7271747226924865 5.0951071600068225 13.462258447500577 2.12208544808861 -2.071281992283497 -2.2009218987715387
Ni 2.66036169126619 7.359295805773423 13.161468800138268 0.33127430103651334 1.4534754703128516 -1.0297175601236201
Ni 8.95042757572201 1.0252598981502823 3.1021303407308505 0.4908603602646836 -0.5852627837066695 -0.43937761900435945
Ni 8.059827026742983 8.061450762386594 4.6498945303389805 1.1759274551552006 1.9661945783238393 0.7841761797795528
Ni 1.8356239193311186 6.8353642875879235 3.539974347338739 0.7971738775908013 -0.7347395224149798 0.4352021474704312
Ni 2.1968220680981636 8.63582879477245 1.9269913394816747 0.5481072577022947 0.08240899852553549 0.645583692083914
Ni 6.347367146288011 2.5971743877259104 12.027257162878783 -0.06716981297827786 1.0488272843698774 -0.4844876239691205
Ni 7.187419697588956 4.967394816174425 12.866593794373227 0.0834862907501143 -0.6600947412158955 -0.4297511516581889
Ni 5.176939746136518 5.0550488636172926 0.9364267972116569 -0.161594862128083 -1.3135706915636927 0.2210667922414709
Ni 0.15357310168810775 4.8723509263989895 8.627023719214144 -0.2680994681502415 1.9044811604744427 1.4270242180998585
Ni 3.526966010648449 3.5961039362917337 6.636893050199841 -0.780067814038134 -0.7841589533883722 -0.37659693623271273
Ni 4.937909253009768 6.96465423821042 2.33453422479482 0.9465364593187504 0.4893230976845508 1.4108226686393315
P 7.740892133563326 5.957947364942529 9.929468207807744 -0.5913079614594848 -0.46261062139037096 0.2640684926139774
P 1.1431929250382067 5.904299508308463 5.424823288829225 -0.9504311663874663 1.0894555994142012 0.8967395904012814
P 8.716166806048367 6.44162684555375 0.17378676529691964 0.2908521884657249 0.7613414412732243 -0.9370220920704121
P 1.778977687218793 1.8330314777637629 7.346589151785099 0.15216174173964114 0.7599005950616396 -0.42927549757335104
P 4.943730714322941 3.9091989166168135 8.341722295706912 -0.9077642236465593 -0.3520894380096517 0.4569963605273872
P 7.658386066172361 3.6705651316302643 5.720251840836409 -0.3256929502939939 0.3538503865648164 0.7534147302269798
P 3.0998866332960433 6.478529928363082 1.571217943887602 0.5022107522804964 0.5125645847109948 0.834983235129091
P 8.75449065754586 0.4680537927726781 0.867782450300947 -0.3556326752762197 0.13960627367213377 0.31972670540823
Ni 4.2322577293004136 5.957015562101594 4.684570512100771 -2.134226454326518 0.407231373289118 -0.4580795662892369
Ni 7.511299603865064 3.053905392115615 3.4676664468821325 1.7441862481047057 0.13680274278506763 -0.15479969358312048
Ni 0.6684984225139893 6.194689866935101 11.715435338910625 -0.021341698900569694 -1.0980821647409476 -0.4225662038739754
Ni 1.782437351232168 8.410692312323414 8.430786963490167 1.4835424649015612 -1.0444744067178207 0.7046732991572187
Ni 4.462689804132588 3.2351733348750566 10.443494015990149 -1.559719880695088 -2.1473005139016568 -0.34791448069635567
Ni 1.148959031727165 1.846851682275858 4.94526957287609 0.2126837103840982 -0.23664356363380534 1.021531681878718
Ni 1.1502506396254917 3.449404956353934 0.6915628492698221 0.17029007590923576 -0.6821941442180961 0.4269458209989099
Ni 1.1894970681932169 5.724286270364538 1.3836912382836974 -3.0376588833669427 0.27926319807654487 1.3917006030979
Ni 3.1050530648893497 5.503393642438577 11.098571709863453 -0.37813265615094876 -0.20682930848585024 -0.6921157742071822
Ni 2.792373244245875 5.884731648648814 6.972290408620742 -0.13717940939819603 1.4880971741517792 -0.2557928828687465
Ni 8.033745772967487 0.5846601538336071 12.159408947573143 -1.3752074905388834 0.6057819867059439 0.5023598762638509
Ni 3.7763754958153233 7.937161179484762 10.529764197827665 -1.7532630135949936 0.5425577886389753 1.0566305824643802
Ni 3.0260066615117593 9.213998618916966 5.982153019534241 -1.1327275227289588 -0.5495884702335115 -0.7835406030780828
Ni 9.018716730460682 7.597929590759972 2.4869679438011896 0.37173909391977916 0.23486127492240197 -1.2839680382059113
Ni 0.15133954260107288 0.7563628175288698 8.32360103689339 0.17792599518793875 -0.01842838190851665 -0.4146832015814729
Ni 8.293967861397496 6.033072815771629 6.446975024829893 0.9884030176455494 -0.49408606629083296 1.0952498374984752
Ni 3.936322682481673 1.2815425824903948 7.679191101683193 -0.9823920355647792 2.6370691837640585 0.5664801037825277
Ni 2.8321824448264423 3.8958123233277284 2.101421140996547 1.648144232176768 0.5169321176510709 1.3931936427036586
Ni 4.117359980973556 8.337762594921472 8.163227619620592 0.1751638590617693 -0.6796402674479908 1.3715547242776445
Ni 4.882462371088747 8.57678386227752 0.6862026764917666 -2.317197211027216 -0.07875906047777403 -0.14527375637055626
Ni 4.4987717933494125 1.7880281682777819 5.3716625528882425 0.0703068159453628 0.8137896317706114 -1.9151877482586692
Ni 5.5358775810814915 4.777399294330576 6.238545490545712 0.7569425408745801 -0.9424874860603575 -0.4980504502552196
Ni 8.324892644791717 4.017564819286419 10.796674970016866 -0.3931687245484648 0.11332805670189515 0.5262053154228808
Ni 6.340752268694439 6.754122150783178 5.313113966857096 -0.7634680006979239 0.4961989988687777 -0.6376220140346761
P 4.84174904497935 4.351113333258571 12.304848609810074 -0.4086791614792381 0.04203599402512761 0.6488070841172181
P 8.405009237570777 1.561221821331624 10.172869871093258 -0.45058505768440466 1.317919969671324 0.11874794216588581
P 6.418230291052633 1.2950214334865033 3.990658781610134 -0.5931969509520816 -1.7433274996488362 0.10828123830660706
P 6.845337345717145 3.4496909552457065 1.050752547754969 -0.0720101717897147 -0.8278787628738259 0.09565249379900301
P 3.804855449973426 1.0252045435260682 1.441982425312249 -0.8110645195299645 0.24983589395436326 -0.012153090422766168
P 0.9743889984976173 4.00697363452014 12.05295277943892 -0.13464970099780682 -0.15898133576463588 -0.43724051805669856
P 4.77373666336175 0.8312594692445506 9.607519255339636 1.1428039331283544 -0.22663914412292582 0.9081120939042812
P 4.149594823807508 3.6807780597977473 4.324759919247357 0.559410855640572 0.5203881945204715 -0.42383992838007645
Ni 2.5469216147103015 2.569128044790818 11.676290393820626 -0.927926300416731 0.8722434050321302 1.3983474189904563
Ni 8.31169979268738 5.633375525863747 4.157081536732452 2.8797155019485183 -2.111633142407034 0.9705032545469932
Ni 2.588511389036419 1.1591904114360525 9.932195345627354 0.3002729675589925 -1.267715580902791 -1.2232352391022288
Ni 4.843695682597542 6.552908091765292 12.518570968746184 -0.9368385153046962 0.005402401962493922 -1.5994375109996841
Ni 8.060546636857765 1.2499627693763082 5.499872165761496 -0.9199707930150801 0.2527096159577325 0.4333069873302473
Ni 8.827503406884125 7.3359084770430085 8.772219821104533 -0.053798790988010575 0.6546694564352661 -0.9835778283427641
Ni 6.5688317719975196 2.629077102814578 9.58401106901302 0.1994160467409146 -0.09602556086770558 -0.46507322399825063
Ni 6.370560733833678 7.178793601982275 7.662744320252143 0.8743157141801265 1.1374820066948086 -0.00267574705995023
Ni 1.9666483148456537 4.202218619893617 4.515784114524515 1.7152407687149491 0.2050051107929179 -0.23478311338629887
Ni 5.7288714784035975 5.083621075482418 10.516882254195998 2.112908409575032 1.0346749041288954 0.3593188658785554
Ni 6.15866323234249 1.1764149253373084 0.3124703956485319 1.2341061203784618 0.8830993739100274 0.5369216733991204
Ni 2.7946704611507562 4.272463638021181 8.873086094770212 -0.726164122041143 -0.2122075420786281 0.04702136305486095
Ni 8.629721334567506 2.6485803820793103 13.072998271988245 -1.4024146470812946 -0.11455961511615109 0.05668485428655399
Ni 4.7204947406385855 8.886797435188019 4.034880668317627 0.44158696795085234 0.07554338175395377 -0.14283737901492174
Ni 1.6200084322468906 1.0060979724015362 13.728885988529214 0.4810603434551264 0.7679224369248516 -0.5373312501327132
Ni 5.930556051727303 7.556681169949841 10.0078245235368 0.7987880161554566 0.3259775714139483 -0.2784895531353139
Ni 0.9569338403288029 3.009031243419466 9.75606431199497 0.06888319612495879 -1.5750572823831066 0.2133293143878971
Ni 4.4943526491829955 6.032694559172834 8.799671101829325 -0.9406725443388058 0.1833728772351229 -0.39394262660001184
Ni 7.702798926333394 7.532140619881635 11.475692616285654 1.2398962446976778 -1.0467536896703005 0.5518171024537142
Ni 5.242802523180473 2.466537474580873 2.4279064049189936 -0.03716401064480696 0.5403227286608694 0.018132447934652643
Ni 6.975319229142317 0.41507388193745975 8.700195151808488 -0.7764744402599207 -0.41995396306210897 0.1633290712103703
Ni 1.0416540926883282 4.153294357859144 6.7509512533927865 0.8348626503908266 -0.787761583137966 -1.2193515877771064
Ni 0.4846509542661754 8.248346425274459 12.816106686781778 -0.822572520169564 0.45643071783190425 1.2123782417830669
Ni 6.5260980021043125 7.087403117404962 0.29701261683677277 2.715081338773479 -0.11332574270904998 1.7034825997377565
P 2.176506921011626 -0.13121629154514383 11.693790758265882 0.12504148848408142 0.5765945665087102 0.12832427300041124
P 8.085825248582157 8.76659486870732 7.036860655189301 -1.1204497338028703 -1.0153301810536965 -0.9084018572305582
P 0.8657703097107682 3.298249929166908 3.0159551843315677 -1.6583026607670086 -1.41202285959502 -1.0857776363419818
P 6.014999530965758 8.576285670659592 12.25453679186197 -0.2738525685839348 0.48321801322807745 -0.12945632972232543
P 7.023819105724482 6.772010920175002 3.1295142733295163 -1.876815576238374 2.68257693838787 -0.6797199716459906
P 4.540057117242354 7.423839297606945 6.370900242195524 -0.600221719009347 -1.0882847190345515 -1.5454260897802352
P 1.3261860869189845 8.798792808458463 4.3238548711414575 -0.007591439194012732 1.4893451876262673 -1.081193359405409
P 2.0332122504629875 6.38547880505935 9.259308223990264 0.16073405678968447 -0.24853363020317198 -0.11394332168839087
