# total energy = -381168.4025802893 ev
CRYSTAL
PRIMVEC
9.23895742643998 0.00000000000000 0.00000000000000

0.00000000000000 9.23895742643998 0.00000000000000

0.00000000000000 0.00000000000000 13.52214808172000

PRIMCOORD
 96 1
Ni 2.889603992383079 1.3782122116738662 7.167089689117956 -0.2592098789700955 1.491453749328838 -1.117446171089856
Ni 7.159027775004862 0.490831615570068 1.8058013169448877 0.13605120933102374 -0.6245289282961438 0.1464415514264123
Ni 5.529192562104659 7.922452053115145 5.138118587648649 1.8158372367827889 -0.5311528892361433 -0.34670503376928674
Ni 4.568442634639057 2.122511848236929 5.284265957107028 0.8137137842273534 2.210136218280955 0.172340016459729
Ni 2.134439342071451 2.515444700895499 10.668339445697368 -0.4866558352650329 0.19729720062569892 1.5267519104094998
Ni 3.906656125447113 1.5525882911725226 2.5313726632275793 -0.986934660630139 0.6949015644824355 -0.2530502871266029
Ni 6.404472895873002 5.710276124580745 4.144011404962644 0.08085245267169301 0.17149129530618853 -0.3378326709803214
Ni 3.5326631351903783 2.165685495555845 13.136131452789849 1.6592421418621424 -0.6196733999760554 -2.9157459132095136
Ni 3.03729796328832 0.9178248080972269 9.374499239597181 -0.29273449309010224 -1.1599843015623827 -0.0769528605069707
Ni 4.936005310636436 0.06169036547782281 7.680485610026563 1.0369310471529236 -0.0830764569062053 0.03742189229188394
Ni 2.6008219050200663 3.0550090443733535 1.3265350280843895 -2.3342197137271414 -0.5270545507970535 1.863337339246281
Ni 0.6426193684412863 1.8227815965099285 5.7901432145899685 -0.9322472963895881 0.2194325990721576 1.275217545706791
Ni 5.834327603834135 2.715542037431575 1.289876693431705 -0.6725800181670997 0.3924755551361821 1.423553743052755
Ni 3.9893355540490774 4.37199468622431 0.3061790439008938 -0.45329937129177417 1.375822755525379 -0.546054231828008
Ni 4.795637832845661 5.331432681757687 2.2516946443576247 1.268423919823725 0.25745612950378244 -0.4850995465215065
Ni 5.674853962410678 0.8555246714396376 3.748461155709713 2.0009376382319797 -0.15872242567629438 -0.09542829360333888
Ni 8.92298493058187 0.2947753989435349 12.604832280485011 0.4330979566432348 0.02411591921159718 0.17806534897928045
Ni 6.509704619169054 3.794772352917245 5.649796986400913 -1.381913441804149 0.24903679509183566 -1.9684697475112618
Ni 8.110335488141354 7.025386258106057 0.16262135416506826 -0.15113484313702358 1.2715781491819906 -0.07180654041934086
Ni 8.747666477441758 4.897709832755652 8.308101835758414 0.09085018731435321 -0.7957160620983521 0.11940228792043307
Ni 2.166507762752803 0.0830406718311896 11.65162873331688 0.11333988377643707 0.7620137847499006 0.08023590213361664
Ni 8.868521277480006 9.108179829042745 3.6172827448188727 -0.929128034034316 0.7801364624925403 -1.1016714247541026
Ni 8.387300949157076 3.1359145931796335 2.3127465978881463 -0.7583592187164488 2.857204465330195 -1.3463854241008684
Ni 9.141005844220171 3.0686642232172137 11.161734871909635 -0.7016697364442044 0.44638721755297317 -0.6143794985669676
P 2.5548673315631247 7.640026368353334 4.2183018603641855 0.4342115014223877 -0.7326571859646543 -2.0749152181607107
Ni 2.398544174568462 4.896065298361736 2.6163331903793066 0.4619909855285011 0.47932047794588417 0.3166583508955514
P 8.768823689588197 9.3232165594831 5.770657329813524 -2.0981518200911475 -0.9994603039009755 0.2653357893621753
Ni 0.3890959137046762 4.060484763979095 6.247854092245725 1.3361562901736925 1.2974025664442623 -0.8445163714305068
P 8.36425898972772 4.375163648567642 4.3305764407865395 -0.6018273729335699 -0.3095047705699056 -0.5752411378046093
P 5.462441095834774 4.198172944161805 9.156833101918018 -0.3894195419186777 0.3282627679036992 2.6462824748322102
P -0.10622306341103639 8.361247089657965 1.3826663129733416 0.6438836786736718 1.2372588070748305 0.1195948635472134
Ni 8.769313354323465 7.012996816408076 9.195371564374982 -2.8545793690025225 1.4658257643480885 0.4414589270134204
Ni 7.767015836018325 7.9603872116624315 7.182180601921448 -0.9440386325975613 0.1965847479397066 -0.06405440727774775
Ni 6.492852761110054 8.792170534607436 12.304802686542487 -0.42027483673663746 -0.7343260890266451 -0.8908188540414722
Ni 1.3186486541594105 6.959521731734014 2.3558019865540167 1.1444455824968354 1.406578805761313 0.7436612503846418
Ni 6.170015877252815 8.299364553868942 9.646213277301097 1.0465798830965976 0.45623145733690457 -0.09698612500876201
Ni 5.966232196766333 7.479250033954922 0.7863359682421418 -0.12665434149715607 -0.14612350596536125 1.5284858623814708
Ni 0.48432646575683264 7.61549693680364 11.510876914903708 -1.5990582732833944 -1.423222327855265 -0.2438135990196833
Ni 6.425925754652056 5.810546527823243 8.314728015911877 1.2047731757422993 1.6381400697762047 -1.2398682196732196
Ni 1.078389570374174 5.610153544654554 9.909381279531011 1.870884812576236 -1.552993617714848 1.534572949115815
Ni 7.919671126977119 5.777720512645818 6.322672092107337 -0.4139342392305903 -0.9777082569358645 -0.22160569546407638
Ni 9.44406212056408 1.389409827884122 1.586107228145137 0.03384368802232236 -0.707109419402537 -1.9514513585763942
Ni 4.97510457779964 0.41636192439750414 0.5994115369804742 0.8145776748895456 0.03748282743680641 -0.4138607056801776
Ni 0.4843015205722058 5.088974726142384 1.1268044781519002 0.2922223293403741 -1.0365847195570987 -0.9420105464239389
Ni 8.628567079284654 5.32934467741485 12.42931518976361 -0.8718343425191695 -0.6575982000462868 -1.5654593542820265
Ni 1.5963162759275897 7.508888608874478 13.468613808036121 -0.04433841690605912 -0.10047588332957534 0.9267366509840039
Ni 1.1543984718277844 6.537338340361195 7.583828562972044 0.3531294492383918 -0.004635956110114596 -0.6705750719219289
Ni 5.381969778020146 6.2523072696494735 10.328351361565607 0.5889967968278049 -0.8663015856263983 1.5917344859284717
Ni 7.084949815620512 1.6745887219121514 13.172762994466453 0.6197055387655714 0.40911393502381155 -0.01996975825370754
Ni 6.653804635696581 0.7984574801793165 5.948960890047313 -0.06009927928474166 0.27689958294037476 0.3077664477225603
Ni 0.843139849220291 5.713980946445689 4.565117533917876 0.9420899935116227 0.4437464374960164 -0.20951379729654884
Ni 7.043041905447476 4.966835711043717 1.057052198560984 -0.09318706297764597 -0.47221266325650935 -0.5566237798137382
Ni 1.2125115130509776 2.2793708647532047 13.06194816929263 -0.6585929598593884 -1.3717282737410312 0.3856796152602712
Ni 7.946602687416802 2.9009679098241805 6.925016074125051 0.08655798769690254 -2.321534919170621 0.26800459444359004
Ni 1.5854882180081014 7.996105020465113 9.65235256440647 0.09359072617396784 1.1032508534260805 -1.5553240656202376
Ni 4.064365126032154 7.605888421243684 12.568200738808406 0.3296110544014775 1.1339161437204213 -1.8350996845568266
P 2.414647677088657 1.677711489469137 4.883888352680946 2.6151307318197543 -0.7090626864741659 -0.8011737427788137
Ni 4.063358079689812 4.973718734209262 4.447569356686269 1.1325850836138236 0.3389259040445002 -0.6932141494776837
P 4.897127778447692 3.406699191782268 3.2321309419724127 0.26781741813344845 -0.8757707014590982 0.2298129138652171
Ni 3.4697365972299385 3.3046641477013545 8.933028601029205 -1.671994042211172 1.5523413288428296 -1.0604476422176252
P 5.094786030264703 6.861847475484159 6.866357010527249 -0.23659548400468933 0.022165994574077953 1.19833179099233
P 1.897506282903122 4.454443140894544 7.747839456310397 0.6782618990432255 0.3864494035467603 0.6955793072757505
P 7.594653849204351 6.947243157523264 11.136029321099572 -0.8998843066778501 0.2672672020569332 -0.11243614101524506
Ni 7.561975657343233 3.0892578589702335 9.051766755957084 -0.8555942265112233 1.5169657775570131 0.825073689324863
Ni 8.213580835624532 7.307045109414526 4.6621663127606086 -0.7868586117077223 0.12203921132264789 1.3374102171854514
Ni 5.539835840878763 5.6228386329851485 12.704544650708451 0.8521180950371646 0.9209059032348398 0.08976518178029057
Ni 8.398831167829021 6.134741538399055 2.665621179618971 -1.0903503433143287 -0.20195861065711024 0.10805498122841391
Ni 3.687591209637394 7.019741255214583 1.079015971677025 -1.1343830560545107 -0.5606989783243763 1.6067389297571038
Ni 2.7218430062891614 0.3276208159312255 0.5876457248981632 -1.5559015353902625 -0.7972422689348915 0.9854215664197222
Ni 5.5153895599444915 3.251992852309713 12.474721893054488 -0.44034743911679647 -1.2425233979078796 0.3031780570209295
Ni 6.817592870164747 4.19880119325611 11.059413420153378 0.7162178094617084 1.0016141170191848 -1.4278497993249473
Ni 3.8145160046015 9.252446146801118 5.3546215406076225 -1.627549438744552 -0.45765867670173443 -0.05768938429166839
Ni 2.8518998077675226 3.707251710706226 5.7734428754301845 -2.2730387713424465 -0.5207553480519032 0.9990059899723763
Ni 4.283106678337451 8.476373736189318 2.9629594653089786 -1.0378872404186061 -1.6072235827030061 -0.49756142643394313
Ni 2.8794688562587796 8.37757232715262 7.632224992835232 0.27806943487875985 -1.4705054292119448 1.4862755475620082
Ni 3.7998353015007598 8.023018102990257 10.087171153740632 1.385032704159421 2.6911790782345846 1.4495167427754199
Ni 3.433196521230299 6.224174644764795 9.117281125848624 -1.3870641327671531 -2.8112956186132227 -2.4002921798761823
Ni 1.5985059088003875 0.36126263103552014 2.8706299458393474 3.6555294258063045 -0.8122865648625235 1.102043977602173
Ni 3.7630734905266605 4.432796264012837 11.248628188922078 0.04553140877289578 0.15403041951726376 -0.30099724731952676
Ni 7.8875749894239595 1.9646088295492352 4.04425838332722 -0.16193681884853403 -0.1992412117259472 2.105199985187181
Ni 1.4127104781170146 4.367754004837753 12.27593279286773 1.9767237599899379 0.8588420440245595 0.20351721339348178
Ni 5.438124160302272 2.8452292806191686 7.645056980586406 1.3883648538564477 -3.6580545062210033 -1.6057716807478282
Ni 0.08388880810850106 0.38325319712764166 7.97564719738395 1.163167584386371 -0.6162430341382678 -0.2817620532389986
Ni 0.8563072111203379 2.58007120699347 8.523010144692725 0.20921966309489773 0.617659197759504 0.05318146911898583
Ni 1.5410395945860373 8.41910144007762 5.8474496948435615 -2.0529250870428646 0.6007544515843654 -0.23755321993226833
Ni 4.626952951024824 4.702573816273129 6.886627282775848 -0.6221609422845995 1.8149255236017967 -0.04146443779237375
Ni 3.0288720342588205 6.384793916889631 5.952368217488188 -0.03424889388054102 0.5359382264399286 0.6377292290365018
Ni 1.332488612148654 2.820542786795898 3.516421048311146 -0.6538104508690804 0.6176129179026009 -0.38650493937504404
P 0.28504400525189905 0.8669421748329004 10.084493703924021 1.0898168394083618 0.10010358759182114 0.9537023809395704
Ni 5.041458768906949 1.9462972162417043 9.820108007126027 1.6676344796908957 -0.7993878545229846 1.6540626545437318
P 6.526648866800745 7.938657184165301 3.176420029639208 0.312842576693887 -0.18585270623418315 -0.7961847742046546
Ni 7.094678437624967 0.9612118753290612 8.344842397130794 -0.5507421242219805 -0.5852355300131599 -0.2004311182689903
P 4.401503915742097 0.5922688991156649 11.56669684693269 0.3164120392127002 -0.21381062489968983 0.22065207330155545
P 8.481085604396604 3.348013335208385 -0.16108399167547535 0.12918687811102267 -0.024129803168668123 0.7686544299948698
P 2.5652149637046153 6.1304546622261515 12.031154935082132 0.090127964436348 0.16869367795639334 -0.5893765487647268
Ni 7.543858062138355 1.5709276213518608 10.598212988337051 -1.1269687658683107 -2.336346273151841 1.8277985229097231
