# total energy = -340877.26394431596 ev
CRYSTAL
PRIMVEC
9.14479715876915 0.00000000000000 0.00000000000000

0.00000000000000 9.14479715876915 0.00000000000000

0.00000000000000 0.00000000000000 13.38433501211763

PRIMCOORD
 96 1
Ni 0.2771952596525969 4.514585125092364 7.787260170392473 -0.3977622574564182 0.26614980062303845 0.7913896668088565
Ni 5.279794309038891 1.5938649699249277 3.4188143892653073 -0.3026867192068077 -0.5071722100508298 -1.037060887862569
Ni 9.062054940427828 2.9800241641291976 0.3873114190222411 1.3974881563139545 0.8934843166887774 0.758365646474352
Ni 7.306061863350539 4.187622050856623 9.456701401175316 -0.10829537937399414 -0.44586142695649017 -1.6125475660190811
Ni 4.263030047448554 3.713418599089146 6.903893807017694 2.065464357160456 0.06484039351415286 0.5793492464357118
Ni 6.0664206077099285 6.187159363349424 1.4517054416420976 0.41784128759448036 -2.255061875149052 0.056657343482728224
Ni 2.4687385602661247 2.2661172917131984 6.981215809635176 -0.5590758408986565 -2.423405111744562 0.6930534555301031
Ni 6.009933196243963 7.606376998941013 11.522533919985507 1.1977329810660662 1.5515748829904505 -0.3213228462507563
Ni 6.294930796751791 2.432040489647228 5.513221655462209 0.8656624093805028 1.7140955993669127 1.3552634433167885
Ni 2.1063576870004836 7.430047021947849 12.140501811920592 -0.6690532359607639 -1.1255124930377582 0.7021235361521715
Ni 7.008188388576226 5.485387636637704 11.37375355862815 -0.57726999530918 -0.30938804248638335 0.5580378865524454
Ni 8.454529492260425 6.977352132875525 2.3728288431358164 -1.0425059701375399 -0.20104149815947955 0.2603933577552354
Ni 8.871733423926338 8.110291896370287 11.903572008221662 -0.4402469089831902 0.37450740069353566 -0.03541823159829384
Ni 4.872521626984773 0.8111553878365155 10.34950428064071 0.009838840467292732 -1.3969420540024973 0.6280590529365893
Ni 6.014322698834809 5.586318761836001 7.535648395006865 -0.32309767876299195 -1.0322436689795835 0.7218796357331762
Ni 0.8182709544322204 1.5850493855549759 2.26603498853962 -1.2884720967238519 -0.4393570501790691 0.8202680404061033
Ni 0.43609525344127076 5.2010484615185035 11.977427218272082 -1.281148566479245 0.13070845696187167 -0.0804035380597325
Ni 2.082599504227522 1.3406181048242287 4.554742672440673 0.20664033240349575 -0.23655331791284423 0.5958179335146965
Ni 2.6819037798341485 9.121651582895645 2.2174230763053986 0.915091867656224 0.08035314443777129 3.358162576150513
Ni 0.8256444043051375 8.38042005685162 1.2133179572911235 -0.5551543943570633 0.056247509638819256 -2.0810012764537906
Ni 4.434559005982979 5.660729975547927 9.719717652979769 0.8042742360810085 0.003150372703523607 0.34976876029627507
Ni 5.574320788087685 3.00644348284786 11.496434669164094 1.4806522878379598 1.0799245199953145 -0.21666532073966557
Ni 3.0740601123410376 0.16586284227340545 13.300227600496294 -0.3258652142058001 -0.36111401010576516 -1.5526660591721002
Ni 7.573894679768743 8.225763248900765 9.460583367529095 0.15255537763363405 0.8500139042099684 0.6607840539734362
P 0.717649837854403 1.0033671338911887 6.443165213724411 0.5060018438918125 0.13006953782629213 0.06698649332287819
P 3.453020502684191 4.072918861279543 11.005737661411507 0.6308993505988619 -0.41257849653364426 -0.17985895054459347
P 7.2462000217678595 4.146991717500092 13.205546944091425 -2.2831694320185454 1.0710526714269812 2.8186299474911074
P 4.068309883559154 1.3299278370561025 8.405697190416955 -0.05572171904233629 -2.1457439680478143 -2.247710319879987
P 3.9693723241208674 8.109276823896154 11.371611847155696 -0.1317446115358699 0.23947820486912305 -0.07864927437278713
P 0.566026359089765 5.792927161908946 6.007598529553455 0.21454081819749504 1.1811575932058884 1.7504767090991078
P 0.9655716876245801 3.1964266418579714 3.801459218345654 0.1952544591640573 0.5163844726777171 -0.11266625474818016
P 0.2848476258359741 8.605757001312181 3.321965501476499 0.40676034718997045 0.8448097343012094 0.8891813184380493
Ni 4.684385716981643 6.121335114080841 12.699030351897365 -0.7680525347448128 -0.7034628237888852 -0.0818029895104204
Ni 4.68821738695157 0.8950177493143605 5.678103261010619 -1.089973162480568 -1.008746871409224 0.004254661511295899
Ni 2.6660741361159057 4.772843338984281 8.54734369558448 0.36418724971445016 -2.8447343578876425 -2.756526493292143
Ni -0.011071605805705998 3.11821119256731 5.952548680185991 -0.3867818471855145 -0.8682872485978596 -1.7483666047346407
Ni 8.345267456936584 7.126494628196626 7.381553992075462 -0.2902333239348034 -0.8828294080780925 0.057271322917643294
Ni 0.8911796779864883 8.064549621454832 5.51659425661951 -0.7738493439322479 0.49603239138392635 0.1209791454892497
Ni 5.2141163765233385 7.150115639013624 5.946271691481079 -0.34086425871779363 -0.0499364798191269 -2.15827963862098
Ni 7.533419807962304 5.218825947011435 5.680405006431694 0.47232450624402533 0.01332422791273189 0.060400355464928245
Ni 7.316066271338846 0.16385098691926708 2.506149925056034 1.502735492890244 1.2676276491746747 -0.7760394096050311
Ni 2.447860988568407 2.3081833582088187 9.450290898433265 -1.7901902256386462 0.4274991223992186 0.3802990676746483
Ni 5.159064698196461 8.183267376943125 1.7637743848992704 -1.0370781142537493 3.1594196442172233 -0.5108643141904362
Ni 2.2765972291488463 5.8709505704612575 10.319603537679683 -1.6659771465931308 1.1616586039410122 2.057451514158308
Ni 6.284551452083849 8.006086933822985 3.936547075058687 -0.530614243123854 -0.25437903324035543 1.6260345447619222
Ni 2.2534517477791907 0.37016401004703725 10.839062761158795 -0.9657109753646722 -0.41887461395500125 0.43817434272487765
Ni 2.450357518166951 4.773071958910887 12.831133346848624 1.8460209594550208 -0.008150911241908542 1.6748127426068897
Ni 1.5040356283626495 6.675628698537154 7.930592976138649 0.39889868505370657 1.1958954136366953 0.07231099085958514
Ni 2.837273881956016 6.584098424720923 5.619975272951322 0.1044207269099363 -0.4298840776916274 0.10422892261410438
Ni 3.010686668685679 8.777157932687706 6.7549534117117105 -0.6125157058853515 0.23843356565469256 -0.28982117609804925
Ni 4.616074082911581 3.140085547145033 9.184022756792759 1.4259142728651313 1.6373319720526125 0.9147298563311148
Ni 3.102070625748882 7.06055149656621 1.0817298144145844 -0.8762846649810393 -1.0128238696920753 -0.21300509827925895
Ni 1.3259681399272756 4.352182674028077 1.9634949238234116 0.37889061736289587 0.8680882452131761 -0.9857367836672959
Ni 2.205679327915469 4.230812927391148 6.007920426410117 -0.9802096832014796 1.5574218286895307 -1.0308125929600118
Ni 4.969922860516262 3.4329110939398717 0.37352197952903543 -0.20114974160256974 0.17237909722778053 0.20325341820913384
Ni 8.034810741401841 0.9289650649763261 0.14410005421986688 -0.12035051076631532 -1.8378024281999703 -0.32002469626462304
P 7.0117731490254185 8.082601450859693 0.6580559388257052 -0.20168195995695587 1.1090294077810707 0.2706160639245081
P 0.9269806440133805 0.9046472206230318 13.04057206161296 1.7057413138649464 0.6657362557723889 -0.8164296404966198
P 7.136992855226403 3.6150297274747154 7.207718715721431 0.12400841923387676 -0.5585546782878639 0.7154786173028387
P 0.4458682980638511 3.8756198646180198 9.936075321202928 -0.2379607397833321 -0.36405458079132785 0.13201072071306297
P 7.317611742042707 2.464788007934362 3.724619146533458 0.42846945673228787 -0.11899451095905313 -1.4248032991891397
P 0.9429383148905235 7.669558401858021 10.065166934480922 1.1007746239714462 2.2391752858257825 -0.2759374761374216
P 3.979632786426973 5.118031993769103 1.4506473886217621 -0.24645309352505945 -0.5175322131289151 -0.4016004002555858
P 6.268356016483034 6.490364254812203 9.495583249333158 3.305614883960785 0.6024102420202335 0.37685301810757676
Ni 3.0343076795026764 4.775797108436039 3.716387914695913 -0.8463444257781811 -0.23352301572695267 0.34183279327865
Ni 1.9569957165498384 6.977626476787452 3.496978627692408 0.3330159663179684 1.6221676056073484 -1.419759051897013
Ni 3.3417100328179545 8.295510616109917 9.036273014064543 -0.20797730604736442 -0.4723016234258898 1.000954371947999
Ni 6.4661579769830935 1.053462332209234 7.693503138491094 -0.41163130212902654 -0.01772801340738237 -2.599579928569349
Ni 3.097589675187392 2.7197906740713997 2.678941780065033 1.0672476958585941 -0.9449858270021789 1.1016706534231544
Ni 9.085054105044454 1.101271331261213 10.320406450861924 -0.03530741705204242 0.12455400732470161 0.5392474933188197
Ni 8.76421804484177 2.0717263405181106 8.152157691810201 0.016008459613114364 1.0538365646590109 -0.16703891596178974
Ni 4.4817644484287165 6.435797250729733 3.172582497992606 -0.05855250362291207 1.2482245620577148 1.170821758497519
Ni 5.133340384054683 4.85686573441075 5.005446739192108 0.056994157996856684 0.28778331973241406 0.8222891846011902
Ni 3.544248998197302 2.087994934495439 11.815650271326989 0.5410999731465261 -0.1967582974030934 0.9955969642908274
Ni 8.071581970397252 4.691235169982777 2.1695336030392536 -1.0076027305024517 -1.0578102045947781 -0.03379509417257405
Ni 5.564224932128736 8.102930334733554 7.906407731342786 -0.06341086015647789 0.09593222982295091 2.037845052781291
Ni 0.4521343130122856 5.417039423379386 4.010281573787858 -0.9486977286361274 -1.406878596389919 -0.3638211246242831
Ni 2.3263815043667067 2.5298623838436733 0.630537415499918 0.07959878277025001 -0.5151647413380032 -2.2441935649759803
Ni 1.4207813958895783 2.7977957930295827 11.67337551860115 -1.6551977965894398 -0.002021658415719099 -0.008196933988495561
Ni 5.737838904393812 0.9895950695124052 13.272709077170509 -0.7974225032664976 -0.5008411256264793 -0.787152231688741
Ni 6.796541205320871 1.8902112635895088 9.586770593259478 0.9987920741893572 0.5004150938326543 2.5811075807967745
Ni 8.871587107173308 6.056699688430615 9.912759746607877 -1.1036930831698217 -0.735443747570856 -1.2694143087614524
Ni 7.897154111193456 6.298149765318412 0.05846726003038019 1.3591951742710269 -0.4525144134966335 -0.5382643034699439
Ni 5.414076509130563 3.9939078146442912 2.7918781948492963 0.303261103653039 0.4330197951071316 -0.24127540597886188
Ni 0.5995649023229579 9.070833945609522 8.29243887877603 0.7374430373890719 -0.8801487759221358 0.3773060464845953
Ni 8.105801801011733 3.1867148673757213 11.721558539853056 0.38300103998684365 -1.8781954873050364 -3.984344723779364
Ni 7.061118473984194 2.4841841225076684 1.6176844228382192 -0.7382997289624124 0.4521326046771826 -0.23949465992935529
Ni 8.38927222040983 0.832229572671115 4.80100108362486 -0.2160379715683118 -0.5497645908000596 -0.14350920827096575
P 7.221143277811772 0.5797261795717408 11.39329416099507 -0.7341563962180001 0.2608273599688605 -0.3787702897349477
P 3.707383033026731 8.360210055339595 4.350778947678712 0.19908103199899907 0.02042484351325515 0.26700726352732723
P 6.642698284308735 5.8536851936039245 3.742714870964226 0.7545519291552166 -0.11614187200160643 -0.9443736473394768
P 1.0143957591506925 6.295516063763903 0.46669557337771533 -0.3520189897830325 -0.6022878575097563 0.40539406297006314
P 4.1660769089732135 1.159112172692691 1.3730720751255998 1.7468812784383656 2.024825757703487 0.9084283395931194
P 3.898180078975562 2.9993013963406687 4.870264691069313 0.3241939971509642 -1.109250008432309 -0.47448886088519576
P 3.788460803798507 6.582187162134492 7.58820811613373 -0.14068433722766094 -0.13021814758901445 0.28890200671788957
P 7.103230264465135 8.406665624426061 6.293795927436114 -0.7508294859983069 0.989392121031696 -1.2787173313299331
