# total energy = -381165.1073739498 ev
CRYSTAL
PRIMVEC
9.34262407565330 0.00000000000000 0.00000000000000
0.00000000000000 9.34262407565330 0.00000000000000
0.00000000000000 0.00000000000000 13.67387470163659
PRIMCOORD
 96 1
Ni 2.192732571530348 0.7986047089272469 10.733704441266745 -0.8743162284007587 0.46400493063473636 1.2416240260220615
Ni 1.1637546337061733 5.524424452292252 8.661620649389867 0.04928701916058609 0.11246468026033535 0.07253133440050734
Ni 4.3807658031169385 3.950500590850922 3.3969052658024923 -1.3711667448106062 0.5105465258397014 0.5572256750637952
Ni 7.749800152577051 1.6967700262931533 8.087263210709208 -0.9897862711463212 0.43077290805448387 -0.46931708687626916
Ni 2.3356186651681745 8.250181759033723 5.936526668962526 -0.0327666529080597 -0.7681576928641094 0.6500653820043514
Ni 1.8434398827087566 4.298765591016821 3.1808028952834766 1.5351290787296015 -1.4059141755941207 1.166013024254966
Ni 3.1180447518675787 2.015073230833545 3.2311091892420376 -1.2805114471158785 -0.1649054145585547 0.39166540053006094
Ni 6.860709326040909 7.8504202145934885 0.355461623542989 -0.6443732167155806 -0.7513362504313964 0.44291262874081133
Ni 7.874907232471397 2.8277133640103083 10.126899134676217 -1.2428558415466335 0.7338769173043683 0.2549801571594641
Ni 5.808281401618661 6.074368679825731 7.484313605102353 0.24367913032434804 0.7155832612015031 1.3758417816887725
Ni 4.25083792916498 7.654430645328787 0.5108724391064641 0.7271295712782058 -0.8056443769556577 -0.43226800454277164
Ni 8.02948094891169 6.554383365651407 5.349329661922609 -1.4496787222745808 -0.5336273189185649 -0.6090346893152866
Ni 3.2819050367056746 0.3256184792440935 1.567176618285502 -0.4347367777982384 -0.43984915932413926 0.39901849846102244
Ni 2.0755106664124057 7.76177739672794 1.137559784134986 -1.070176696579931 -1.322481106679445 0.3561206706562318
Ni 2.2323079273986517 8.56471054342048 3.5616615082958694 -0.5374523490916099 0.24300498707545892 -0.5088912496244655
Ni 2.8071876187688862 9.636075966979899 8.691798259633071 -1.359161492819614 -1.4371271108618153 -2.360178342574432
Ni 4.450153472624467 1.5951970166141651 9.7296731784283 -0.7029321480963959 0.26413739817869997 0.1811758695838041
Ni 7.516711022841852 0.7344376977906365 13.28910553660373 -0.12153424666177133 1.65867778471824 1.1592476805066745
Ni 3.1046380862228635 4.863947638526977 7.324507084879757 -0.5043090295704218 0.6712612993556762 -0.1078904306260916
Ni 9.187265645790704 2.312775949139373 0.7100926877996956 -0.38579685756442594 0.05160281177795629 -1.8822092364501195
Ni 2.0728853890283183 1.2992413690230138 13.315564782438154 -0.8255642558080363 -1.8154770252298928 0.1797314238277937
Ni 7.1914475633151795 8.8931598377798 4.434956760194018 -0.6877911786898994 0.5612299111271818 0.40062158128208425
Ni 4.127683457716449 0.43501967369221584 12.06257313997096 1.085914419030162 0.4202807502739085 0.35785822217262886
Ni 8.443901070631757 1.3385644740394655 5.650017348642017 -0.4240756985399664 -0.4548985974580939 -0.6350817641113257
P 0.31311898240363 0.373943202621997 3.230671954432161 0.12845925591637877 0.29019578582864863 0.6645471205602942
Ni 8.844139088903269 6.659422488887321 10.285679834767949 0.08027986799767466 0.566063070849767 -0.25602633903579136
P 0.05689190971672187 2.610245101841635 11.641445014116464 0.84999719203942 0.08861769843940867 1.4561509602624858
Ni 5.1228037256476275 8.207485966701771 2.489752344011348 0.8060372415187022 0.7507089012600426 0.9086327422944416
P 5.0513326509562875 5.283870565867069 1.7688250149934108 -0.27048776587675993 0.15558799381237076 0.3791718960487405
P 7.977003429102374 5.722600195606335 3.214002844436829 1.8134772211910446 -1.1309629746293683 0.06544948785306148
P 4.223342586313135 1.2810606224413994 4.967910491461656 -0.10455005339894896 -0.051478113274633926 -0.22571946052213382
Ni 3.9473334412665606 6.211929477702241 9.260262371004542 -1.0148879513099553 -1.2808857997361618 -0.183093141211175
Ni 6.562773042131514 4.118116610594367 3.123140219074985 0.8174573104301858 0.5865570770380608 -0.08103474388582818
Ni 0.8290999683913 5.57764938203298 1.7007154164685983 -0.21630613762803394 1.9961065353919232 -0.19323331496897045
Ni 7.56596533732195 2.120103011445317 3.1272696589460405 1.3677620900044314 -2.94136747043236 -0.2049791426509889
Ni 5.381874693123562 0.4666313767413168 0.5083751556731314 -1.114316367211623 0.08742753478604944 -1.2623136931609291
Ni 6.076433399761258 4.580884812252694 5.854455452918923 -1.465193015860096 -0.2932883087110433 -1.4279801542552246
Ni 2.5910273239801858 3.726371037668533 10.040999311258954 0.42298117992420703 0.5527046472649901 -0.5855880282565721
Ni 8.191360597431542 7.720539053762242 2.658433422907056 0.8658966368784959 1.0564261797630579 -1.1554360200700682
Ni 8.676205419938972 9.081759391347656 9.317679336198081 0.35725761247415244 -0.11105057352162809 1.0249350511333122
Ni 1.7358315378336104 5.906220130506154 12.088457814420613 -1.9251695420617294 -0.0799044869361269 -0.6146052414245285
Ni -0.21640507154123848 0.5546416989524071 11.743178716930705 3.0786497239570076 0.5721905239037436 -0.465573817783753
Ni 4.5757743968466595 1.5171113640298213 7.255686512657689 0.1989221378236316 -1.1023491675474175 -0.486052397353079
Ni 0.8284553273254566 6.273488028178221 4.058461152656246 -0.135127926185806 1.2869278921651834 -0.374078283575917
Ni 5.010010224373306 3.7117218030128436 7.915559792903349 0.7957294318347908 -0.21233609723669236 0.7055065936917915
Ni 8.326866017996668 6.121436820256447 7.7690440897861 0.0034643043995166143 -0.25571369289137896 -0.05092712586717035
Ni 7.184552706697898 5.0528648413156825 9.454417983150037 -0.7334251744789304 -0.7500581550499211 0.34167312777233416
Ni 3.4137388059827356 5.139312142507707 -0.1723247023113449 0.29666391005149556 0.5900098114733516 1.6121675569718428
Ni 1.017635992114987 2.323800245627711 4.573596631159005 -1.3190008614403284 0.4228222857488395 -1.5453903514462932
Ni 4.00650027996202 2.3068060123122143 0.7698322293551 0.8102312249953918 1.5781482626036047 -1.834236565225583
Ni 0.4734019764575017 0.20972229249199453 1.05593888257506 -0.5163657036246397 -1.0076585234410516 0.596036734393722
Ni 0.29068173626262017 0.5419422699552908 7.380035905734065 0.008413420874675833 -1.128596788390037 1.6679859494930434
Ni 6.079908855942327 6.457192046695325 3.8931303387780956 -1.000714745133367 0.3356875996128606 -0.07910744495612827
Ni 2.141039832149016 3.5003169039127564 0.9475924703926438 -1.1998307441353595 -0.061793379157712935 1.916212332868442
Ni 7.780500015509828 5.423337259068682 0.8194434320774477 0.45447822209122374 0.01618226618681729 1.1527093651675244
Ni 5.333760178788868 3.5555411552200136 10.462961733449388 -0.2625854803105478 0.6047789993627262 0.5922572127466317
P 1.6321284098500959 8.294456454845784 12.773805627916062 -0.5331190118235787 1.0169216939105326 -0.8693874236405738
Ni 0.6605543575456606 2.3577887122587042 9.48210765258405 -0.2215447603191539 -1.0462443541340498 -0.1764794925493993
P 7.502547604641581 4.003650779598509 7.3799817185140375 -0.4458786533476708 0.2230750809207513 1.7335963884040013
Ni 0.38181716624943 4.489345780902921 13.476259786216717 -0.7113440263091749 -1.0388143802185656 -1.9940424537740433
P 5.628576026234615 7.856595689151786 12.112468358467245 -1.7234207334225804 1.810075137488031 1.6215626250334978
P 5.519370092631074 2.531851142660584 12.50847790505179 0.2546790809792775 -1.2036586025218818 0.24569256120995106
P 5.843017278181067 0.33642228980266425 8.7072360117664 0.6444043270638321 -0.5024406089031154 -0.23074236765802197
Ni 9.101948802119942 7.3316242959516345 13.657685138705428 2.555416089567941 2.830800264305054 2.580352190687988
Ni 9.17484929830511 3.5556719519580104 2.4568401476815893 -0.5931115903271269 1.793057262773796 0.9908591924955258
Ni 8.019615137817041 3.6087941128331695 5.384512115919034 1.61794431155462 0.13330655670635105 -2.2761037834210156
Ni 1.8940675629378256 1.0591546138049632 6.155185181446974 1.5601700808586292 -0.341510891162857 -0.39610518146896945
Ni 7.448126819010593 8.660407042513736 7.062638001473097 0.8350184592424007 0.23425346613507397 0.4881951547276947
Ni 7.579997958784224 8.396356456369766 11.730543752040173 0.0381680264292891 -2.753375349257671 -1.2002624323561393
Ni 4.23042429541327 6.305589284732398 5.590427289072895 -0.5198762878810594 -1.0859987512138523 0.3004976819752889
Ni 3.051814889320269 2.938040412510968 5.887929140959656 0.8047573463650141 1.1274433915118842 -0.8544002062031221
Ni 5.480766369673606 6.1238098467886815 11.047438168338964 1.2865270571823393 -0.8860885384453385 -0.9634103522559538
Ni 6.607655008512848 3.290733816520487 0.7297953478541492 -0.5008089868369633 -0.8919228857389284 0.1248550835048882
Ni 0.3462245710531421 3.2247748900733146 7.037915549466794 -0.4885561376115392 -3.4197896049336913 2.766874669295686
Ni 7.009640097499036 4.1987154290730855 12.137177730799749 1.3334381199115808 0.5040904858017125 -0.3986307761043006
Ni 4.176134306520279 8.423151102410912 9.941863792218786 1.3762475017676232 0.03860717084923674 0.8509577561804764
Ni 2.44203115415306 2.3807902528979303 8.156917145004801 0.7330014566779505 1.2653555653110466 -1.0745557994842334
Ni 6.76464846460609 7.701433387390505 9.3046613237177 -0.7169464600976169 -0.2074592287603653 0.18724418726507108
Ni 4.276558173429721 7.9564683412368105 7.574123316723321 0.19876787163395446 0.7420381129589221 -0.37016969255013027
Ni 5.731111326200297 5.683865675910871 13.4777779626399 -0.4030916400891316 0.4582541441938882 -0.2236785188327051
Ni 0.27193576092037497 4.450274926738322 10.684123134941656 0.08137515794438244 0.8705598466821202 0.12681117878999448
Ni 5.32291339215924 1.6302692276457067 2.5570285804626356 0.6409042843303737 0.010212164646311446 1.3156607413235017
Ni 1.7798072696731064 7.70446974023687 10.267849436591684 -0.39185540505368 0.35276512392043763 -0.41369152709216495
Ni 0.7512777778077793 4.84084332902218 5.877263601238397 0.36294617821849745 2.8127233521986854 -0.7633371315470143
Ni 3.3404178917111476 6.315230872847621 2.7532208846712307 0.2174929588472835 -0.09928340568337095 0.3863938677184765
Ni 6.652854624115032 1.0302391920834337 10.793609347269475 -0.8475718704273791 -0.2767859401806459 0.17409068060224855
Ni 3.408964725045837 7.366874016841887 12.050512746465202 1.5425947909790272 0.24063545840201783 -0.9512598329363489
Ni 0.3788415404599931 7.335968616177971 6.472829730985308 1.153792313819058 0.8720541718394593 0.7972132154691689
P 7.01562871957448 0.23082260911818983 1.7532097530013706 1.0348507675851275 0.14343233228644328 1.7322326752872554
Ni 4.313779188014074 8.455831601661933 4.878373584465655 0.27662987421875584 1.592179029665058 -1.647446177668479
P 2.6797915959595886 4.959606767123661 5.045031050972064 0.4265555275390267 0.35658604032842456 -0.4622324121153459
Ni 6.2123966089093745 2.105948935869189 5.0445928818997725 -0.8674480405260158 0.08908332522191754 0.1251132222622813
P 5.902455052976663 7.769410320652493 6.002106284869507 1.1998191741711337 -1.1753415007447434 -0.47623669681423786
P 8.471620636463026 6.103779260626821 12.354140557002303 -1.259022424004167 -3.322514230819284 -3.04106868037944
P 3.7179159628194265 4.986504182030377 11.373259382526953 -0.6070636816318449 -0.08204338765600064 -0.4234578624503094
Ni 2.532748034578279 3.2246160654628895 12.391661469821637 0.07480933180140666 0.7480372679651505 -1.5813284601037991
