# total energy = -381169.2640336538 ev
CRYSTAL
PRIMVEC
9.25480693564372 0.00000000000000 0.00000000000000
0.00000000000000 9.25480693564372 0.00000000000000
0.00000000000000 0.00000000000000 13.54534544053498
PRIMCOORD
 96 1
Ni 1.2824200486747284 1.0082741659179388 11.047082332421791 -0.674555910946548 -0.2203106308017367 0.6310667294146616
Ni 5.5199183721455 1.1864199392345767 1.435128985898022 0.5489732052470159 -0.56684854286554 -0.1136954673436429
Ni 7.2708074789279165 4.208077293112125 6.110061298837071 -0.03576327364253841 -0.061243163081197746 -0.79118089323216
Ni 9.106100422410822 -0.16868273351112764 5.481340636081648 -1.0280730825416617 -0.8241267520305614 -0.7949665855268373
Ni 7.5223161046047275 7.5485627362804495 12.439245878420467 0.5915316474345168 1.1108559194668481 -1.3894578298103104
Ni 7.556558889231023 4.17476924395806 3.7143777810995164 -0.294915302791505 -0.7297310134567949 -1.0478230114750793
Ni 3.1357876295563254 5.266494001490947 6.3505048776762605 1.603010573062923 1.757305301985167 -1.8724488146292462
Ni 1.4483864964323918 1.0043871471225216 4.123691040544281 -0.6528809970762756 0.5789173011046159 0.5155828027120282
Ni 4.739941776811738 3.36877738711497 11.451572912118241 -0.3240767548468096 0.3664577909161818 1.0782227068128591
Ni 7.940633365444876 1.999463958749353 4.703986852954128 -0.9016689093820986 -0.3790631383850181 -0.8164880045383809
Ni 0.6580963445614556 6.376839430015214 8.676308126798203 0.7658802096838422 0.4807332991330108 0.9693560283164273
Ni 6.237471296586191 8.070395009565225 0.8332352311956382 -0.6621899331820273 2.002146056717784 2.066948655015466
Ni 5.468137728906548 4.32554855399363 9.449747126710339 -0.6332735072579933 -1.1964060347245264 0.3523768873430835
Ni 9.258878770684035 3.1892248831866574 12.137482727122238 -0.3036166872202449 -0.7735696079083 -0.2753651485737193
Ni 8.614253722690696 1.7790144642092571 6.925952096879159 0.5112787760200356 -0.7690930601941851 -0.5549605331787023
Ni 2.600313771260968 5.009127083201042 9.694701498313545 -0.17622932421180618 0.48544356012448653 -0.33110615088976525
Ni 3.8440209636946707 9.39455423625741 5.327925557110521 -0.4127124510083473 0.39549043070310597 -0.8067566361832299
Ni 0.7437551330444663 0.26670316724423093 1.870476941946092 0.0806678474647127 0.4065592869227579 0.4373387341974597
Ni 5.408740379789909 3.577538060848847 2.003938657767411 0.024843027185608827 -0.25400930860576254 1.541176570475262
Ni 8.132837190071607 0.9905789755921344 9.155339695742104 -0.07287457667253901 1.6222246840975287 -0.7517851650433569
Ni 4.410665010806612 5.863956554766554 8.179491595903936 -0.5979138968117766 1.6075220877800314 0.6782341311290835
Ni 6.702330980098134 2.9206874132632556 7.944168701587375 1.3988845224408488 -1.3879622191013903 1.6479375154826008
Ni -0.17522032893275333 4.303475840119653 10.13584666525078 0.6911606093827645 -1.2773857570027032 -1.4011031273587224
Ni 5.706865466591761 1.658840799784272 12.748187983241568 1.0070751401337559 -1.2329275266893283 -1.5655853383369296
P 2.4669890265781538 7.5488033612535 9.326227849679299 -0.7750006839278717 -0.5024886885322314 -0.20536300835296892
Ni 2.720135753033034 8.599955046407555 2.98166918527936 1.1030544211445585 -1.6176308940792594 1.7205138441884305
P 1.8899610863984542 8.148357500833308 5.030172513536231 0.24379328730470917 0.293527678415359 0.37692963698178306
Ni 8.390463242947872 7.061417478341448 7.082278738024187 -0.5304034126646285 0.48624291609733034 -1.4367219050035966
P 5.966647889418818 5.946435391682648 10.678580919367578 0.9568810357778681 1.176883905531199 0.28398682880445936
P 9.429907597682396 6.686662592429941 12.761949880738676 1.0837984011284236 0.07038420615051749 -0.14192849404740718
P 5.5601397618714135 5.863206915427439 6.238741981540026 0.10803158418964619 -0.8217489958270042 -0.4861056191885176
Ni 2.275895778750114 7.365419367369705 11.912426189828908 -0.17274856475205733 1.52997555955312 -0.13886605307199956
Ni 8.072023855536637 1.135453718981331 0.7092060143178653 0.4088820215186636 -2.898273724566679 -1.0443638492818852
Ni 9.17851928449211 4.762255115658764 0.24665170314387103 0.24851691803262366 0.5691172842950586 -0.24746662239123832
Ni 0.22790331582064152 5.314387625934482 2.381014649188182 0.5751943437270738 0.5848982012783991 0.7363261501758093
Ni 2.883353523213938 1.4942255537983486 2.3432633673586896 0.6806810500076793 2.0374673577268974 -0.7769400670424297
Ni 0.412250735077301 8.818886752656107 7.799233801954916 0.15872114012471375 -0.28337953423776363 2.0443571428681957
Ni 1.657924573925352 5.136852669857124 11.923601368865732 -1.1563888709016408 0.040739386700891125 0.9055715868706147
Ni 4.5111074274415275 8.15249439940843 9.722726903828503 0.15915745633118394 -0.960055833961424 -0.09704268927831029
Ni 2.9756054359585087 2.5989162954559486 5.396533289810968 0.3715598880294375 -0.9726771222698605 0.5487644316703195
Ni 6.46090083886944 0.18184121761428082 10.666878216351375 0.7829093972519873 -0.037074022034161956 1.9528423253866498
Ni 7.282218655534462 4.765670139314738 12.301963778411652 -0.1506627885966115 1.1995605211931082 -2.4084006679159295
Ni 4.280995914752823 7.109736823891148 4.7384054789068815 -1.5281495620879746 0.10897157950541234 0.7919841058597457
Ni 0.17213570187439003 7.69360406618945 3.3668986613638516 0.8506068005989609 0.39648081964083326 0.6497151977537844
Ni 5.841800547632676 0.556437846331975 8.525155848054407 -0.7179527898749443 2.0344041454205417 -1.1942128837279498
Ni 1.6866700033981286 0.9259989347482726 6.558994385575124 1.1566518947550404 0.6934841153096186 0.09978014281413138
Ni 4.740978315157182 4.013476473561554 4.798438633240772 0.5869612544550149 -0.2886544094834577 -0.6525040733528311
Ni 7.244190654985964 3.1814693552091344 0.24399649911433477 -0.33774139681809573 0.02189165786676875 0.568410230925705
Ni 0.5460224869215877 2.9034642180768944 2.463654519740085 -0.1688715982951543 -0.4170910396920171 -0.0548449728643378
Ni 1.1861145306149365 1.8245758773755414 0.19269988226347876 1.1774919714288432 0.11787505264262926 -0.1879137025282699
Ni 4.245772120621017 1.1716400130053348 10.64462318278628 0.20292097457037955 0.3820972972256516 0.9764386461948215
Ni 4.85800534531921 3.7425512635209675 7.125407062520672 -0.9134630738035494 0.267030660566095 -0.2039933816989519
Ni 6.694668000187169 7.348011076050228 4.73348840013068 0.10206559641419843 0.9379895981900039 1.422032421312222
Ni 5.573105745996126 1.6269117168219154 5.883895110225715 2.130508382044982 0.29861537735091154 0.09642253919580814
Ni 4.009459887472956 1.4466651023944213 7.407515780924074 -1.7207017918295204 0.15743276033059336 0.9346793028698485
Ni 0.9967426768248676 5.131447862770163 6.696304250003906 -2.7863669736923433 1.0627647203865762 0.8591590610443463
P 7.314138483690163 -0.0459186487031965 6.872312162983064 -0.3761493071723328 -0.5738604554069987 0.1786381907636149
Ni 8.70213736669375 5.919133712048169 5.034140974630218 0.028232769593448153 -0.13088046376336168 0.21072170156172093
P 5.2038111960115145 4.309509974059205 13.626074880109229 -0.3607635687448819 -0.3459100486718172 -1.4706869490951318
Ni 2.8809009994501626 5.597103459654501 2.6346648371251353 1.1335790720959766 -0.2073874949821654 -0.8183746800381324
P 7.704996733182685 6.375395680176916 3.1921364453605583 -0.21958866503404764 0.03114222993075927 -1.1899060288224796
P 8.274176597318304 1.2730634391457596 12.096630159582402 -1.5224985344497843 0.37654628550043534 -1.6938751585549796
P 4.326094587586319 7.285244977310895 1.8807173855106856 0.08641734835398021 -0.6680487059556495 0.6641971934200432
Ni 3.501232179972143 9.002946347425771 0.7014134671137193 1.1472671111060306 0.318295115168026 1.243296528628478
Ni 3.423584352130354 5.780320867018492 0.2232111288461735 -0.45743576205765085 0.7479174545578345 2.1265383416536405
Ni 5.4115538410132595 8.905576526600568 3.3535430498789305 -0.983577314122132 -2.264357184408049 -0.5670182356741847
Ni 2.2688065968518054 3.1180184007772747 11.167161597818888 1.2159615882589512 -0.6047170357765391 0.13472837675454216
Ni 3.029385117435104 8.000317613567844 7.135403179189554 -2.507311006530598 -0.22190445765141784 0.37653137310209994
Ni 2.3491660830437304 3.539232416100675 7.38477301904822 -0.8614956795973228 -1.8096467917013608 0.6573639725482937
Ni 5.20002598008931 7.829862584582139 7.1126604173137 2.3292757394583044 0.9484028231035279 -0.9216026721915482
Ni 8.200499081531834 6.245282353403649 10.38142295986125 -1.573000142743762 1.3258736773007618 0.36747569065773483
Ni 0.38613274521409335 9.130366525462213 12.848383296538772 0.2266049484508807 -3.072096239109206 0.4579080737083791
Ni 0.4168179821619163 3.494596483599966 5.109873057494265 0.11176148354572366 -0.9918884050909885 0.14459112848123484
Ni 5.319616591694983 1.776895113485089 3.6095772760104063 -0.24554909365355126 1.951011185715182 1.0372526921584007
Ni 8.626488577089605 7.700045411621856 1.0957302378534972 -0.6022323216814724 -0.714875179390885 0.3133801943649119
Ni 3.8337573831134377 2.520990823414487 0.32946371309957123 0.5312475058324785 -0.9358530114629755 -0.9833109478346227
Ni 2.5483572866955564 0.7013810752904241 9.181061579880446 0.35330068470893344 -2.227790183917292 -1.626352333112657
Ni 7.638574985814328 0.3474495043543665 3.0112928959037677 0.31645291975296463 -0.9880098959721887 0.06589891668565424
Ni 4.905084546777039 8.331084403444546 12.232922920759716 -0.6784405907129347 0.6537137773902162 -0.3810678275198727
Ni 1.5961024654649054 5.306030535524335 4.3942451328379715 0.8016835925356968 0.44964583369958694 0.5605398270386927
Ni 8.821857545592604 8.562232454478695 10.297604952422072 1.029865398555394 -1.1488005170314217 1.3204440216447582
Ni 5.803448628851226 6.351999528951166 13.16593977539505 -1.4545044257979982 -1.4545098251146371 -0.4536001903616446
Ni 5.38700083895554 5.664876408794599 3.394490941927321 0.8929009333814816 0.7562534852273557 -1.9493538526174172
Ni 1.061257934022139 2.3729139169223994 9.16301933430505 -1.5299686175745846 1.0366981052065114 -1.1748540195853636
Ni 4.052328151902415 5.658499847008782 11.748879874011724 0.6770727638311307 0.03219432534435746 -3.0780915374606925
Ni 6.999715682367526 5.37365540775794 1.4345200196200734 0.46638654349303554 0.3546343159186925 -0.21314676606344582
Ni 1.7921655444670859 7.4826962773114385 1.258595399900817 -0.8540518217247679 -1.6288421894140463 -1.389691285977355
Ni 6.917061004124974 2.6604607597167225 10.509088390274071 0.6417146960468109 -0.28584959304481095 0.6569505391599589
P 3.304012250137993 2.927610008641761 9.098272706941385 1.3170373099560544 -0.6057506192473762 1.7589515793393384
Ni 6.9371531893746194 7.928380001432656 8.804907367202588 1.0642323060710381 -1.5571714032416213 0.7754565405183677
P 2.811758338925013 0.34970027333304626 12.457382523023751 -0.37124544211281224 0.7257252347315114 -2.120104927323471
Ni 2.146272956729603 3.8272234896144743 0.6792204407532176 -1.1633763579630674 1.7280620888493334 0.8026138176594501
P 2.7978668741347246 3.351970658228118 3.512443452754925 -0.4329660590510607 1.3616981431985389 -1.390779119724895
P 7.547535452741661 2.3588928848389297 2.230606456899509 -1.0166334732461524 1.652369068891393 2.815376730661132
P 8.870908020868107 3.6509009132090204 7.791431074463449 0.32059085318073816 1.6319480820328798 1.0774678309247057
Ni 7.011561834886892 5.557233752581506 8.098843359744352 -0.06329464629358778 -0.4537205179895928 0.5787301247944743
