# total energy = -340859.57124824356 ev
CRYSTAL
PRIMVEC
9.38138491913072 0.00000000000000 0.00000000000000

0.00000000000000 9.38138491913072 0.00000000000000

0.00000000000000 0.00000000000000 13.73060511406711

PRIMCOORD
 96 1
Ni 4.823335792303779 9.092353701778492 6.8655497453815375 -0.43840008558243854 0.6193229586151722 0.9754906804592556
Ni 0.19943229218855493 8.301559252657817 4.147988664355181 1.4002567201980272 0.14698482552439204 0.24141321710830685
Ni 3.0073529951932327 7.2439206946944195 12.484538605986474 2.1588679070242818 5.048352058323789 0.7669135360443631
Ni 8.432270086876128 2.028002093265994 5.26852940730629 0.48251327385156895 -1.21707076216273 -0.9497459673949836
Ni 5.778144991631786 7.249099219096093 1.9219005076173712 1.6824597176291864 -0.5631101588690303 0.35015545421173244
Ni 0.8294654553455586 2.263381037537683 0.6853561273763971 1.0174605971331379 -5.593288888717903 2.4455543941480915
Ni 4.000513295524932 5.475585950910134 13.685993792713722 0.9634118949178505 -0.6795443653000749 -0.1246823053724498
Ni 0.43803374213411084 7.555954934049566 1.8085677505759776 2.0387251413933987 -1.2500754992235246 0.7927731774199444
Ni 2.5580597150393976 3.802612983471872 1.9890562124668913 0.5010234168406146 0.6215737023225618 -0.7144653455469759
Ni 2.7003565594679735 1.8399428538530695 10.94489856981411 -0.31687818021584135 3.391756352945559 -0.6588223022613751
Ni 5.200176637758123 2.4299381430219222 10.246765934498153 -0.006050319959137967 0.5929750647492626 1.7246972861421588
Ni 7.1435492588728655 1.0649748008657678 12.029877297458297 0.3916983106505254 -0.43721969212109213 2.249287177448804
Ni 0.9536552889993725 2.493365685557629 9.292008332786468 0.44214798266064503 0.3578091141022483 0.2372863394241268
Ni 1.9943604474246917 6.931595632410918 4.77076720265745 0.46914893672952107 0.22005712003003391 1.712590989796928
Ni 1.578342939105519 2.208199732228553 6.657118828906598 -1.5283544790099293 -2.2547173473254394 0.3357498203093637
Ni 4.67988503754657 2.320016457488587 3.1338459588119205 0.18555060161273207 0.8653222524322646 -0.545886338791576
Ni 6.111240439830692 5.85033474755728 4.1153639606246415 1.1317307060333284 -1.1379013536204146 0.034474893848418044
Ni 6.028834355873638 1.4090089437247304 0.6511572272788276 -1.1203168077694317 0.7084535921352573 -0.964792834425777
Ni 0.3295943153969067 1.1619314126253497 12.334188780857907 0.11509980389033726 0.8385388136908333 -1.5916033596672459
Ni 6.771370961656984 2.7574516672733744 8.593875697470507 -0.6619765316196405 0.3396761519469634 -0.8096866653458313
Ni 4.737439833206466 6.856835377054159 10.446546276062254 0.023053539385353844 0.01642035033955237 0.2565251330490808
Ni 9.208016794800638 0.8813660903951507 2.9078399560795645 1.5496815226224794 0.9376435277044949 -0.47195375316816784
Ni 7.913826619467346 8.78698024562115 8.839598556606843 -0.16837203295091646 -0.6839352952789188 0.38526438209972363
Ni 2.055470787918346 3.2771991471673596 4.276520202887789 -0.16309072994731913 0.11197308533589748 0.3059846732317892
P 2.629470816027683 6.024875411494098 9.894205051007523 0.7690652922800432 0.5243556638086518 -0.04810945391271714
P 7.784241551423312 6.118126376263351 10.362432780074213 -0.5799639972015753 -0.31719365457373117 0.3169141756600994
P 6.124458810993659 6.067748339964469 0.08070054820302598 0.606888075285929 0.07524179135313494 0.5839733754712846
P 5.627592528591847 0.7844986017910326 9.004585218277965 -0.18484303402274618 -1.6602096479817343 0.19786387176244633
P 3.350918068812913 9.424726783348905 11.671220390133959 0.6546365463148017 -3.3328359244602663 -0.47759809593813873
P 0.41302578471103224 8.751725001596716 13.483907506769311 -0.16460896636405845 -1.6658861295412213 -0.535537134346768
P 4.152829458904571 4.187334192146152 4.174200253446257 -0.6014491636585448 0.2144703699708758 -0.3727101995837968
P 1.037402910980774 3.4101521323494395 11.573155836831194 -0.9535689406854997 0.12298100641062691 -1.3333031369956134
Ni 3.5234042094816767 3.057402683024618 8.619826484064543 -1.402695925767139 -1.3648626569694493 1.7133062706963975
Ni 9.179882021828506 3.890798000456881 6.521213521932478 -0.6275114079632355 0.33530270546961605 -0.38688469131196596
Ni 6.817940155732897 5.166047159907967 6.90542344513594 0.8503484047312516 -1.8984192705510787 0.36458937024887533
Ni 5.146956041869191 4.151675548575937 1.8439515195719731 0.5517785359062949 1.0890269965172148 0.6900244388957922
Ni 2.3340134835887607 0.35415102821179606 13.576918308088054 0.5738555703109924 -0.27729630415816114 0.7047357769640379
Ni 5.88871399271533 4.841807738946703 9.307894769782468 0.19736044976346653 0.633524961147167 0.17103543871569254
Ni 1.4193190856041482 7.399548486903389 7.8165454117941815 0.08312633630753426 -0.42047126901815973 -0.12693484885205233
Ni 8.124635716985447 2.7089686707011906 -0.15402451354910382 -0.7950953977952178 -0.482231223834776 0.9592050559253547
Ni 0.6626785059340712 4.139779952667746 13.858161904438253 -1.1351050218221999 6.161141447367925 -1.1912648568432194
Ni 4.3653272056840855 4.687540247531651 11.26122385457021 -0.6411020021634765 -0.8048743315588526 0.09309656014636869
Ni 9.405964013777627 3.586100004004104 2.5112728728364573 0.027060089441585656 -0.21603771445799566 0.8688438924322779
Ni 3.9648640333395027 6.138455837093832 3.1274750604039934 -0.7344669854798834 -0.37670620811706734 0.7019541004538427
Ni 5.548920235779476 3.7905391412527543 13.351447982426956 0.4797030580962835 -0.7057302796668232 -1.0641777986840188
Ni 7.6910937818867 4.854022301937606 12.823080886191926 0.3061929325878533 1.4442364682130868 -0.48407650457363083
Ni 2.07049976634494 5.511891910030558 12.008759800305823 -1.4146520696877507 -4.5226545357752626 -0.6919720495404662
Ni 8.220748004114322 1.5078136882870832 10.100122694498388 -0.4264909928496784 2.236891374887612 -1.222300128882469
Ni 2.833262637726125 3.890816763226452 6.526472726243307 2.280287225374744 2.640345283412169 -2.03488905547676
Ni 4.8353814903685395 0.062404033455593734 2.039365764656839 -0.005381061806255249 0.08246941944982572 -0.3162688287666166
Ni 8.049359485465478 8.082625875915355 0.7238348152131749 -3.3465856699461916 -0.3394630074948928 -0.7814250993969768
Ni 1.4697158846726022 5.669714946279367 3.046945253404066 -0.21077003830115315 -0.8610102553204719 -1.6249392548152146
Ni 8.44014106871128 4.295717330574642 8.799409642323642 -0.7344672425901996 -0.057493980451410666 -0.8895744401114098
Ni 2.136629147698911 1.3465664465915157 2.713620899416389 0.0944985827002179 2.2343930339457905 0.6639719647831146
Ni 3.873676973223089 6.116531540849793 8.009061747118764 0.16636194449942318 0.02573185754846536 -0.19939213548151466
Ni 6.931276665328205 0.8141390870212598 7.3164491186106755 0.2946713051014989 -0.1827360149820724 -2.046718186901204
P 0.9528203457534506 0.9134129008228944 4.81107995121982 0.4932769401259763 0.8152898704652217 0.7265657283549358
P 2.181650413285194 8.792318253564178 2.2847996771417756 -0.19098977035043238 -1.467456872193608 0.40327881639927315
P 9.060991732440101 9.125235455452158 10.592145367935375 1.2459805032185445 -1.1806762826940955 1.0140402585976793
P 3.8282054011670956 7.5224352462104775 5.745214454757234 -0.6829073682350368 -0.27332857775966474 -0.10686687445758368
P 2.159613540423727 6.007576137949379 0.6989966608547165 -2.406072019782753 -0.39411977560782446 0.6555770558512
P 4.9652761441105016 3.7278808722694694 7.379376633337308 1.362834313685511 1.6259121602514452 -0.7331652359493245
P 7.519039184918076 3.608324504561283 3.853233059498224 0.8429593113560321 3.739569017956727 2.320755617802435
P 6.288060780270421 0.8478529695254116 4.987669509593823 -1.0318747156759391 0.06025200281252204 0.6930084612247807
Ni 3.5687256793810995 7.63260084774824 1.307499545928678 -0.5081865102479571 -0.56619702532447 -1.2375789094184106
Ni 1.7335860945382775 4.7399446629442314 8.292200383195663 -0.8993649438392705 0.5495370481702858 0.22496509885461258
Ni 7.227090490388982 9.139982992335183 3.3554849269265623 0.35237791578434796 -0.16708930958375096 -1.1823323302402797
Ni 5.50207898154478 9.308219365696052 11.173403773453362 -1.2393959080224912 -0.8825527573779381 -2.117715344045372
Ni 7.883384025837947 5.269561359632711 1.658464655867271 -0.46553859367044337 1.0251322547457828 0.024721156895763874
Ni 0.4032156706406893 5.263941910146112 10.148605691070573 1.0925473509656476 0.44046802385506084 2.494168298501053
Ni 9.296295625633503 0.1820889261353436 6.877056013821124 0.61115302120987 -0.07932316051136015 -0.24365367640305133
Ni 6.403451813133785 2.916381706926889 5.979842888246072 1.3895868991890068 1.2471377567514392 -0.8048445067621816
Ni 3.5083752310550826 8.487301290028688 9.163270403788575 1.6631054814722908 -0.8275581463096136 -0.5240784988878652
Ni 4.4551352022370105 1.8696067925452609 6.099148772980483 -2.0509975310028485 0.136015728107398 0.09543163603744856
Ni 7.254221455189051 2.09779959607115 2.643814015226447 -2.2884605052141556 -0.1696357301546885 -0.768652887332973
Ni 4.356780764144368 1.6716783363378438 12.562061679162607 1.1552820109907072 0.32462208582731833 1.4648628862141868
Ni 3.9724629550158705 0.5287864441349492 4.096965188783046 -1.1168126512709153 -1.75551992794997 1.7762723300059728
Ni 2.421532422253989 -0.04207269634815636 6.171330085659669 0.1350723903575222 -1.0507592112852677 -0.8036543431088224
Ni 8.999890773331233 5.495061705725121 4.556295612519037 -0.3185882209284126 -0.9608492763969969 -0.03305384513117533
Ni 5.845400139160033 7.050673549495036 6.430206584403949 -2.511340696515281 0.17276322004007666 -2.121967691563823
Ni 8.115451341280306 7.567212595792333 5.758657041016577 -0.6337231932009021 -0.409332735902837 1.212038599055461
Ni 7.740730688787517 8.081865983747717 11.923080551197058 -0.20066997375267376 -1.355468360238743 -0.40571545086522387
Ni 1.1754218439470987 7.447740660547217 10.976423775247772 -0.310093296083524 0.2419518632205962 -0.7884418970344422
Ni 1.7509510377764956 9.51797774811816 9.97444684949453 -2.3799043602484495 -0.14208198890613594 -0.42558390765437676
Ni 5.472255559311232 8.195258781651738 13.277591154425053 0.033747014543458013 -0.4069125564971186 0.41892577890791083
Ni 2.5669157422770406 3.2011161165558257 12.94651833278593 2.1971606319568937 0.5449959657668227 0.8274928402893168
Ni 9.488707827586964 6.50640312977139 12.92507154902748 0.09997143288933107 0.5672372936635264 0.9169263497618015
Ni 5.49123410073258 8.161082396877655 4.364506334515342 -1.0068306282231176 -0.7535440567159924 0.20100190317079578
P 8.756800330765747 2.1964073315530044 7.73675673419232 -0.001706698278461577 -0.8328150238331786 0.43216438908537186
P 2.7034055095233063 0.8298106903056702 8.101248862853327 -0.01289228258163586 1.2152483642420102 0.08976955265566475
P 3.285389096085223 2.0151965030335965 0.9705080086282949 1.7752305190050204 0.31356042869651807 -0.05443565324106109
P 7.900045365217243 0.75355504221408 1.1739076884426967 1.0231956998447025 -0.05242890722367745 -1.1501745145608127
P 7.144834508588497 7.080684599424296 7.879444782366457 1.9689250898811248 -0.44070687933874425 1.6818058860952714
P 6.929428532525434 3.110144828289482 11.737841356050698 -0.9353575598837957 0.5344837533815892 -0.8752832202997184
P 8.001195455976005 7.066940870713335 3.5105582792947008 -1.8031976936419076 -0.6449393736316957 -1.496798558580519
P 0.8659505989153883 5.648541160818179 6.421309279073248 1.426033829162131 1.9251237764254587 0.016263770157030052
