# total energy = -340870.27621958166 ev
CRYSTAL
PRIMVEC
9.23077528307116 0.00000000000000 0.00000000000000
0.00000000000000 9.23077528307116 0.00000000000000
0.00000000000000 0.00000000000000 13.51017268783876
PRIMCOORD
 96 1
Ni 4.155981118091949 7.474869393411703 0.8115780572320663 0.39465662194790097 -0.04510229165527716 -0.10782666726769172
Ni 3.140494315134327 5.778954463208485 10.573479989465756 -0.5816285293881919 -0.004302226919779688 0.38320955645322385
Ni 6.22608397978832 0.9586713820251327 9.69626465950832 1.1749769183164733 1.1134984992960177 0.28156767784000536
Ni 1.1366776496550497 3.5337345664982607 5.12440850635324 -1.5718932828328283 -0.13314920519288034 -2.009573459530107
Ni 8.959879573417435 2.156502916924333 2.601734586137195 -1.4669251680598543 0.3628716162268202 0.5381694297632925
Ni 5.5547573968220805 5.6879574819651895 9.933718965138143 0.3676736656011539 -0.27109634599503635 -0.039504485852525514
Ni 0.34009129431355306 0.5819486796809551 0.8390396132473642 -0.5865293091239189 0.3811745283010661 2.6751713899524185
Ni 7.615371021683585 4.453442846694629 3.050313334412628 0.35572266388686474 -0.5039683584015514 1.0691312860345523
Ni 5.452701946971616 6.847555146270989 6.336419434931464 0.49507105591192163 0.2601717286627326 -1.4484762173260475
Ni 7.8176726894588 3.612823847822318 0.8928125706966132 -0.13196649773868885 -1.0577266437420365 0.7180975429829245
Ni 8.789257925892473 5.948163802138375 4.631692806788009 1.5620248746791807 -1.0128035579771009 1.303682228805387
Ni 4.6141967956043475 5.725462121323224 12.661098246973566 -2.454968745483456 -0.9614444867788345 -1.07343762671939
Ni 3.6654115737447217 3.5326914889084353 1.417919983274711 1.7823614736228466 1.1654324691611475 1.0497788496498694
Ni 4.045184124192246 5.064963237585872 5.602033734733997 1.5026339343153734 -0.21236797891589232 0.17101949787609255
Ni 6.0616007977256 8.391328440761892 7.922121679300783 0.9119299249884747 0.4980267961061358 0.9601483936752303
Ni 3.1395804683963386 8.96758727065198 2.3036063955700437 -1.3297501295370324 0.04266360030679749 0.5430203300976906
Ni 6.736804306246942 1.3528347109021854 4.109388780617255 1.342221779641482 0.30942892302664776 -2.2070920321379925
Ni 7.461420154045556 3.4093406408303095 10.007754397077875 -1.8691583168034325 1.883103466129615 -0.2272310120706538
Ni 0.2342281497214714 3.738916236114408 8.841529959305388 1.3614777996576166 0.031210878385165598 -0.4894393115474409
Ni 0.7744795719798035 4.13539648954939 11.3491937160806 -0.8648196017642331 -0.4319905825116689 -1.3347635235912239
Ni 1.3129946854359584 1.275905430958827 8.978968816388742 -0.3256975782796842 -0.9498310709096223 -0.8620230128557025
Ni 7.650604890359347 1.4852501801591425 13.020252938088058 -0.14525910108253692 -0.608363631390191 1.5718688573527961
Ni 7.192306135870769 0.053417572606698126 2.0218240616052077 0.2673972998768943 1.584173128641446 -2.608987080815862
Ni 5.147707905861883 0.3252546694451873 5.368091739041591 -0.6074053812419796 -1.8433308142173674 0.837072770668268
P 2.5507493227775666 1.9795489576593719 0.6650413481794111 -0.0017244388902744497 -1.2423655321737765 0.02134247023151808
P 1.726025718681169 0.045628644550997854 6.9602656798553895 0.21581171449011866 0.80687285004612 -0.6504171089168154
P 8.401971524488157 1.793198069310857 8.755037596326115 -1.3783077267307617 -0.9757405916865325 -1.184583845278618
P 1.6742503009703098 2.082841331377417 10.803989982964385 1.2831807664179256 0.775103270944007 0.9668854552887476
P 4.409965895826712 3.8365224523516384 11.2969087595825 -0.09864345810652689 0.491830951708069 -0.670569158384658
P 8.05492207188071 2.958278814044586 5.0102884334063065 -0.4459753268265351 0.47079315720116344 0.6823337551197539
P 5.966680737051548 0.7066416824631565 12.071906178047165 -1.4105884411413385 0.8965138475437204 -2.2445602042867794
P 5.61102820202183 5.1474586749333415 7.635490419159532 -0.04831719904814904 -0.2433153192270261 1.0301104246866646
Ni 4.394430501280915 1.4074532073534518 3.4661699079254964 0.5741548467189661 1.3293976312936202 -0.9330834191376381
Ni 6.772065867248097 6.615871921253188 1.6944592369650295 -0.9648252303256093 0.6311680308792162 -0.1119939112715039
Ni 5.404378839159823 3.977457927054686 3.712325142193982 -0.7953486514566044 -0.028839035718879365 -0.7082635876116382
Ni 7.449300146298301 1.0867668485206916 6.383556388138899 -0.9998009750698459 -0.5105989763441916 1.0594863067456206
Ni 4.339341235297958 8.160762139534965 12.086389264228005 -0.805780902533522 0.15865377722188803 -1.4233868784575872
Ni 7.633583341017428 3.4165683377580334 7.38074225632142 -0.1401397775781006 -0.7917354801840494 0.3181153950570521
Ni 8.942285716017382 6.1745208699054785 1.9943172747917668 0.9319781018886013 0.2605373395322674 1.0438290598243376
Ni 0.6219253206191238 6.542293412682453 10.733332091645156 1.4802882196303215 -0.17443495131554476 0.20130914999856944
Ni 2.3674722825477383 8.998131905561097 10.637234184064365 -1.1527078225056275 -1.093742142604697 1.397505639815451
Ni 8.178928304993152 8.125602117060252 3.6329663222360935 1.1945059894883365 0.057401677847920496 1.3817038968965043
Ni 2.0697059383657295 6.147539314197003 5.6403756053964305 -2.4145430333682416 -0.14416843912151944 1.0866302141502642
Ni 6.177253179344311 8.037208214403954 10.54727012655825 0.15789401623772806 -0.11997975769045789 0.16709290912817676
Ni 1.4204870618386956 7.339370845260928 3.8120433597812284 0.05075434773473194 1.128608872574895 -2.4294639163441323
Ni -0.028248018056475418 0.9856990916092645 4.855988642468318 0.6719737520416685 0.13094397001144545 -1.682051426447174
Ni 1.0745545330221238 7.617023330432069 0.7093573765067533 0.40940806922546263 -0.08024053011930697 0.07188573039670845
Ni 0.578193600357586 1.9629797162988813 6.843740066909268 -0.07504355929939979 0.6740977403632068 0.488387473244159
Ni 7.815724995906119 5.527923533515704 8.68023139466293 -1.0724284687285852 0.5179402472006112 0.27387827961554767
Ni 8.518223906490396 8.84744873231951 8.090823325598459 -0.13356212436058287 0.2623738785203739 -2.3187815247952
Ni 2.5601924057367764 0.8447774630689135 4.908677906917165 -0.29513101834673683 -0.9690163855888215 0.6116387025970369
Ni 2.7264663581749478 3.299448262893462 9.164450165719899 -0.2027800781171411 0.8764368742881874 1.021085595480235
Ni 6.7614135527467 5.858523744839365 12.283570621037947 1.8990934137999678 -0.23992583392950292 1.4111062613180214
Ni 9.457852199419879 8.877421059170493 12.378438989371267 -1.0315253027563203 -0.9420637682593775 -1.2688586933682986
Ni 2.0151520573403814 2.3660599739526664 3.1485186279558723 0.9377486858237915 -0.8830975741378146 -0.5232899415482988
Ni 2.4572231091483236 9.281175163408854 13.271379867842203 1.1369765278133 -0.0972712603493486 -0.3525635494325928
P 3.4741960669020684 3.1161804534387656 4.964583173421719 -0.3365332354426075 -1.5581414804643745 -0.4136843280033134
P 7.765195732837971 6.567161120885885 10.63659910673534 -0.07907864860072188 0.7359726234911325 -1.3763639727408297
P 7.933601994331449 3.4712791419606113 12.19293087079223 0.23542923161073 1.0566557792753608 0.08884472684855023
P 5.284987993612979 5.209387945288512 1.0341375841101974 -0.47519668558549766 -0.8839514374976777 1.1067393261953133
P 3.439229890705111 7.337155459229441 4.64250019831161 1.175228372205647 0.640353039812594 -0.013177675032538595
P 2.54899547550264 6.931832123218777 12.655329935594084 0.0087602626911333 -0.22635915098866177 -0.16701114804764786
P 9.12703044949307 5.806443711549177 7.017791870472982 1.058315169255655 0.03929236984171943 -1.6857905817746321
P 8.273876057992599 7.260503102540019 0.16223918062832698 -0.6864292653453661 0.10565074266229546 -0.8371110801053713
Ni 2.4263369355593536 4.074528758334306 12.885961775324441 1.6802269716439255 0.3963885170373432 -0.958905779517381
Ni 3.8313162951776456 8.414903840446959 7.08788206912164 -1.433975452606711 2.854810254066406 -0.1638592326822275
Ni 2.393576914618751 5.898059154726262 1.2703937351279917 0.5953507640702909 -1.3041933641138506 0.2171761989378131
Ni 5.754723678489104 3.1781651084447238 13.334270061888532 -1.1395705137927212 0.6767431484058539 -0.8259252386918808
Ni 3.9084117290733653 1.0391268180686069 9.204480345153828 -0.3050390214890682 -0.30303664634705874 -1.9461322603563256
Ni 6.597290370914097 4.703790699027702 5.81052279107965 1.1493059959129304 0.8891610067230751 -1.4584533831434172
Ni 3.0727496564465047 2.044607460784017 7.059875897373602 0.9695558030320593 -0.7240972122097852 -0.48767964854385687
Ni 5.6189666686346555 2.641460149991796 5.717126731379757 -1.3383219303664435 -0.2777300492614701 1.2539930891103759
Ni 5.145354058203429 3.4521068220131244 8.977334046113008 -0.13991660582370097 -0.782961076425529 0.1879206445068054
Ni 2.73561405632996 4.740224568470519 3.493271463710678 1.3095692837137833 0.51958935276826 0.17741717387232026
Ni 0.33677006142135 8.04042975492474 5.80669940402031 -0.49581256206363644 -0.5153310917125382 0.996088302104949
Ni 6.293459407470895 8.39679305963956 -0.14501455423352172 1.9038923778505084 -2.21207842960899 0.8276694750764971
Ni 3.472442219627142 6.363308682888629 7.64342057807474 -0.3262825042488768 -2.549030497756571 2.160117720270983
Ni 1.1869576817946554 3.588519216901888 1.2120755440041435 -1.2180606368798248 0.30942300948937673 1.0711259478670778
Ni 0.8460448484944262 1.9633120242036042 12.715504435596815 0.8786163984380094 2.0420194958739537 0.04198560040316641
Ni 1.6346687372077562 8.078737471719188 8.722748344917203 0.2890081932784506 -2.0270582465784313 -1.2374097308303982
Ni 4.652772204877601 6.4927056886776855 2.9122800154108277 -1.4741458541780097 -0.6429976765242926 0.4579600099922371
Ni 9.002507292973283 8.676051699683526 10.146693255120043 -0.8070060331898746 -0.3942185059692178 1.4045476342638974
Ni 2.172075234570655 4.190134986077362 6.916492421105762 0.12856595669757212 0.7317508721003011 2.4644975109094975
Ni 3.7886147294207486 1.3179239193560155 11.353030026225126 1.5796551861664345 2.105807793974509 2.558815345057477
Ni 8.587731643228276 1.737776495423177 10.90324943102761 1.1856084298883902 -1.8901881408905383 -0.17159645342548513
Ni 9.179368944486932 5.128600201340315 13.433529509951759 0.4007213400847421 1.3190096031910767 -1.8670615821754037
Ni 4.807083072745747 0.7950992774678615 0.6030963855065172 -0.8238310751670136 0.9259115839795473 0.28153965281554744
Ni 6.659136564293087 6.4593364365784245 4.1655377395852735 -0.9498989480330803 -0.6983787243977585 0.8049594350734911
P 7.329641608272651 8.108940567948451 5.955567806871104 -0.1760971695093161 0.10512366651423186 0.27842527555628177
P 6.2381947567604445 2.0781613283859017 1.8364645585057826 0.05265259319870932 0.8273460302988075 0.4979314081788521
P 0.7028469108067232 4.6824676084746475 3.1125952203778104 -0.44438689929349273 -0.8806005187475738 0.13835003266752946
P 1.5161178921978504 5.417929617052413 8.994437749353594 1.494669428052658 0.6144825998037352 0.05086310539845433
P 5.334132640411448 1.1678407464979557 7.551038057484252 -0.29217553526283874 0.8428844922540386 -0.8720012071143369
P 5.92660994220704 8.25948527956307 3.281891328593934 -1.387811809566455 0.7410425818148721 0.6068633926955807
P 4.086731843057743 7.9671650927084645 9.516781467857411 0.12154607373631325 -0.7292265630165505 -0.3213246460229692
P 0.643538257511298 9.374129068979963 2.897067697994622 1.0541520390169006 -0.40825698634015495 0.7036129762135043
