# total energy = -381167.4548846614 ev
CRYSTAL
PRIMVEC
9.31529343331407 0.00000000000000 0.00000000000000

0.00000000000000 9.31529343331407 0.00000000000000

0.00000000000000 0.00000000000000 13.63387354394386

PRIMCOORD
 96 1
Ni 0.5466111580479716 5.348813408527956 2.8237662523453086 0.011706232693334678 -1.3220797574759682 0.055158390339698556
Ni 5.407201666294286 7.232701043759524 12.801770833841685 1.7266199570861682 0.49285270810436405 -0.5789684660575255
Ni 5.414532802041271 3.6614132527260637 10.014706836697293 -0.2557586871967015 1.5906505088356735 -0.22356744717613758
Ni 5.342898197347099 0.04379305638338694 7.981432639034121 0.6427310531264673 0.09806881654997948 0.10894304026032205
Ni 7.7178042523490875 0.7265677181681158 4.030009157756396 1.006075752334964 -0.827359400035246 -0.5217249110540241
Ni 3.4471708244606174 7.546663685711721 6.786750944011322 0.7616733706913462 1.2551896805216383 1.4258386824321896
Ni 8.89081391774627 7.4454996015792485 8.939785345618537 0.24774198753981203 -0.04345755696300258 -1.183216018396814
Ni 6.5698434103618695 5.112363321277997 4.432617992841323 -0.24372952394630926 0.242019483233738 0.4730372160403337
Ni 1.522519466193719 4.488098947600494 0.5497737000887611 1.0159583015559985 1.1019095089068376 0.24013023663082517
Ni 1.2903730444013286 0.3159225796410997 0.316583965458172 0.9702795685719612 -1.1759608794962975 0.49665074169421564
Ni 8.437410651910186 5.860018068658883 13.200602317534742 0.4855425475961961 2.8848456240862315 0.06374921733250312
Ni 5.161892735212837 0.576553304974952 3.5327411077793003 -0.019734245204133756 -0.5856445925261204 -0.16271894843019719
Ni 2.805319177224909 3.377781205427211 5.938028991547225 -0.40204442977153987 -0.25204241468737887 -1.0376550698031421
Ni 7.392942717354993 5.31859459739299 8.136041354832638 0.17764214539893278 0.35811019028243485 -1.963626046265715
Ni 1.4715182359335632 7.160451629714269 0.33012281259243875 -0.4163544186363088 -0.6349665786897 1.1253415146775327
Ni 6.45187453729984 0.14307358823118352 12.106906784544329 -0.9056525766201949 1.3243821803568996 -0.5706771725830108
Ni 5.977437339422218 7.242221273408085 7.118762898064356 0.05245693224813546 -0.6106228597380129 0.6251210533541879
Ni 3.0323049265854958 8.346362976190962 12.780979099423298 0.9984156646865451 -0.21390447016507677 0.012409172297630241
Ni 1.115972125144592 3.2341207537245404 9.404604503269015 0.5884540369504575 0.8526055761965446 -0.16629329604501683
Ni 6.660239015557222 6.419196488760549 9.897060272779921 -1.2474478317926903 -0.25761039569345956 0.10213321642734025
Ni 7.560357166713078 2.5248636449066435 11.9499804237981 2.0484850489936397 -0.6640380421343596 -0.35370280524335856
Ni 4.72193143746176 8.624182280534136 1.0460748226318837 -1.5764441354283045 -1.1031984029215904 0.44621855318559284
Ni 7.220572532015464 4.8202823030483755 11.69898078010187 0.007321216251761585 0.5759361069891049 -2.3536685664803723
Ni 2.443457297647557 0.5806343349250843 11.120768421408318 -0.33881406105698425 2.3959835251984996 0.39705777519022584
P 1.5783553336237413 4.854618473776947 5.13322119427809 -0.603245079216703 0.8280397139317222 -0.6462550071193257
Ni 6.578115390721873 2.44406279170544 0.6237278127892862 0.8122621393824914 0.05022675736603608 0.26672161396610844
P 4.141821553543734 9.343797995388433 5.664178933635804 0.4293752563760089 0.06670135798229157 0.02101336902687349
Ni 8.729519616019402 7.325537255772804 3.9289279797333867 -1.4217115476376936 -0.8556991275202038 0.1983043017339746
P 7.170474885195534 2.9862408017203874 5.449731568919996 -0.1502987203889734 0.18682046946409114 0.8346171100389239
P 1.5947968261185677 2.2873795601116833 7.5247662259907075 0.35466465493599564 0.08497624503207946 -0.4189710303235495
P 8.287685944335486 2.525171049582184 2.0614827685259667 1.1944679371615492 -0.9495132825588875 0.10601866752467547
Ni 8.422068364012748 0.9178442225827151 0.07440963053791723 0.07581180492399202 1.820193971089588 -0.18892723139444884
Ni 3.6773889805609796 5.391617180773694 4.062062150122089 -0.9254179321725804 -1.4149156077617826 0.7484478731400077
Ni 2.729008295345239 5.505561847174101 7.174403144337216 -1.1358809807562762 -0.7667399865809763 -0.264867334366189
Ni 7.7813159213744285 3.784002511214401 9.69060263504021 -0.5205144356856906 -0.8586175867185794 1.6349285048174422
Ni 2.4535737060608045 5.57104835835746 9.63973461347279 -0.6518664397688322 -1.6577033366201128 -0.8850765522410564
Ni 0.4884678924927546 4.9024059278837235 7.654001946175963 -0.2696637273135678 -0.38762876856684214 0.209524081709194
Ni 2.8594037695336696 3.489555408512436 11.096486246628563 0.595880925542148 -0.35481172203682115 0.2332263104221403
Ni 3.1659607533932967 8.33207331642492 2.9503424563224767 -0.5776170942359536 -0.2036172293064558 -0.24284352179693014
Ni 0.4144886285005942 4.084495239201999 11.993786521591966 0.32102485539436326 -0.3457262147957852 -0.7200520956061341
Ni 5.300662657986451 4.7114610479069805 2.537427180843059 -1.0238184210303658 -1.3534819259363335 -0.8657326004968059
Ni 6.142970099554266 4.776239596807277 -0.11240764302270274 -0.9548020417616524 0.41162230326796206 2.220654858424092
Ni 2.4980542310822185 7.79140438390808 10.352281883848294 2.154708890550586 0.41956238405064517 -0.05060702352359026
Ni 4.044830720764055 1.7732126367437293 9.4665437508025 0.3622123853762665 -1.278344778481863 0.7718459403489739
Ni 7.890584310589336 7.659313526357577 11.225531003303256 0.5946624797540147 0.02025977869030059 0.9139628962581035
Ni 6.20512173577267 1.0325257286750988 5.817559893790798 -0.5273625689557756 0.7793049677301804 -0.259854711642946
Ni 4.166833115780906 1.3139314208995814 -0.09301879175996525 -1.1734977626677856 -1.1231370508270462 0.7205413765377269
Ni 5.890758536212949 3.543211497334079 7.290195964908146 0.5058084969340838 -0.2430983181202136 0.2204276159955752
Ni 6.448968165822001 1.5843171212705907 9.890393317437969 0.36278934092565907 -1.3299902705722966 -0.38549141050886515
Ni 0.8964246374027696 9.035983446947048 3.9499376920126115 0.299074319265201 -0.8759337093995236 0.12858961084665596
Ni 6.721813103597337 9.215787236258743 1.613596019321859 -0.29479420383260846 2.11929143028324 0.2985724399281181
Ni 3.5568025101102556 3.5017584426020805 8.191803631446394 -1.1092363815855544 2.0378849048802903 1.1522151991399254
Ni 0.44954393986406777 1.84843362931921 5.321218715486923 -0.22203224147853373 0.20122147538076957 3.8302412849323195
Ni 9.243537494696186 5.458882912957911 10.030440366909056 0.0404460238301884 0.3818815816704197 0.5192332549804219
Ni 1.9137245193454075 9.216560405594192 6.127553289311242 0.5681286951295441 0.15640251929386612 -1.3014024316322748
Ni 9.028782725304838 6.82447694993472 6.460656064197786 0.4244392525269723 -0.8405265335448235 -0.21554251998913201
P 7.890090600049832 0.030688301912156456 8.617357896737133 -1.629105213267446 0.32808690444746724 -0.06769097558907052
Ni 1.7673440020288622 7.077079755590362 5.038765984306964 0.16247572207113953 -1.0438943658446345 -0.6041254249391272
P 2.3489536481517983 5.4896233805119765 11.834883455629077 -0.49691119444445386 -0.9030218238655674 0.43866028122236067
Ni 7.812568730054396 8.728839599615934 6.296217851016526 0.8519080359088878 2.3513697431438665 1.0216203849377825
P 4.944166387291262 2.1124476691426493 1.8464895276287452 -1.5030147146935597 0.1458748802896649 1.4665307608349132
P 0.4157499191996308 1.4701488878334275 11.842777235085233 -0.060236576193554325 0.36770966104541186 0.7763060330028566
P 7.695792214521736 8.331607551765009 13.288622522964552 0.25193828500934673 -2.4288249972085523 0.9090068378044087
Ni 3.753681231854254 3.628968086516726 0.3144069814377523 0.4798287850408704 -1.1695765732365082 1.244785711579495
Ni 4.5925326996455365 2.8856822116457974 4.1643170550880715 -1.4844423510080111 0.47795625060850594 0.9171369231107108
Ni 2.7670798986462906 0.07210036935408298 8.3726842686518 0.5961981996722506 0.2300995918677005 0.6148610661890765
Ni 3.818739239550496 5.73673016318068 13.405806116809972 -1.1826552607973373 0.8625588307545144 -1.114456492333913
Ni 1.805341082984328 2.3798245298106395 13.297089192952399 0.22541247080467627 0.352875938466689 -0.6907021816891072
Ni 8.686687897894071 8.3425343906865 1.6053063399047791 2.2744582773977924 -1.459778272602428 0.24350480953001288
Ni 6.619000212568781 2.700997208698246 3.300937488776604 0.8959924278226117 0.4142090901585318 -0.5026709797463665
Ni 5.400736852814735 2.840707976084879 12.317386765887022 -1.3058918348621962 0.5965283293181598 -1.7978559697140197
Ni 0.6418209067681538 1.7388857813083554 3.2871815953108183 -0.32087058920468614 2.027541099752121 -4.377358153696887
Ni 8.716142854986785 3.9253714007903135 0.5590144709413775 -1.2159983550341573 -1.3801077560539778 0.31505346830227676
Ni 2.336676091716568 3.6128526292838368 3.1671354118655906 -0.2354253749559881 0.10965986382168856 0.04752915592921492
Ni 4.36601271494486 5.871485194585869 11.02392756484913 0.9384135731013 0.07485586876862592 0.007381637176051803
Ni 0.5185628102281855 0.4032180552600897 7.689177424821693 -1.8454527456563765 0.2234754016829635 1.121758682422281
Ni 8.903268464752266 1.6227333904199752 9.782481234912717 -1.3933970169637164 0.9704016959721223 0.26817917234824135
Ni 4.357684842825667 7.325006284060506 4.75088709483905 1.8811450568516637 1.3445468282302329 -0.4529255328921232
Ni 2.835454150721093 1.0997169385137293 4.2438836319405135 -0.03477545580797237 0.6908047687052425 1.5053387348410463
Ni 4.8474736438939265 5.354365323274085 6.146327331222898 0.21286805848076243 -0.2450847524226231 0.31144801033920555
Ni 8.248748018767003 2.795165507638869 7.825639017940793 0.6312305086860355 -0.6885928486555882 -2.5117009080681774
Ni 2.816599997287932 1.5440284781883673 2.104810991778763 0.4813873877772419 -0.19573551256553384 -2.3105393393910663
Ni 8.754829267638916 4.391741554758293 4.89771008858251 0.715085238519162 -0.03742163518156781 0.34283038130522897
Ni 7.456500962846325 5.466493507500841 1.957524096434033 0.4818810395842088 0.3757374164458948 0.11293622058011517
Ni 0.9779753717064283 7.049758000640035 11.67509450528304 -2.1179819674431974 -0.6484916097593284 0.9858177734168764
Ni 2.952230666253752 5.896729639152997 1.897644460226671 -0.0709364791095617 0.29733059710121695 1.0660343922767834
Ni 6.201181366749831 7.411163430850676 3.0798101273083662 0.04698691027249972 -0.14026601874331973 0.10867924507597412
Ni 0.43291148385867817 9.055415148558499 10.450145559600642 -0.11200239591193614 -1.2807047940736072 0.09857995185844314
P 5.1973281105387965 6.390421548071303 1.2969580251631374 0.610263162405749 1.3169133827836803 0.07580949093114685
Ni 4.689141605404088 5.721415821162836 8.642907882921161 0.49739276206656274 -0.24965745939497005 -0.39218990557496325
P 1.1718545690406053 7.289058567608645 2.548020532268054 0.9997274415194332 1.4056812336477083 -0.5047170636421179
Ni 4.2484816606631455 1.884875056310576 6.846740500678423 -0.1449117450454472 -1.5121498442256087 -0.10663624650401635
P 7.03134166598719 7.136325020330926 5.289219751821779 -0.7645087832576124 -1.6315873562593515 -1.2231025701791065
P 1.9108554090403613 7.31291503348924 8.438753917189368 -1.1061636561975012 -0.1780139269160547 -1.714702636823292
P 4.4841958397504476 0.8707805667574394 11.48967359417283 0.9305089735422426 0.03304176094631729 -1.2586717255329678
Ni 4.943262803851038 8.379776932892911 10.141883877085743 -0.009541878052164212 -0.010922046229142482 0.5908248511754791
