# total energy = -340891.5888407435 ev
CRYSTAL
PRIMVEC
9.08746924350227 0.00000000000000 0.00000000000000
0.00000000000000 9.08746924350227 0.00000000000000
0.00000000000000 0.00000000000000 13.30042981333069
PRIMCOORD
 96 1
Ni 6.178561208404122 2.3406049120257557 11.713622366687165 0.6652012092045253 -0.5912598818303688 0.38309822768634016
Ni 4.571651295610492 0.05722197593624798 6.062761406129883 0.10160896849275404 0.5761911604227045 -0.8217042586319978
Ni 2.6873009487338924 1.599330963497029 4.642448133008683 0.47043037454510594 -1.3465180930239908 1.27915853263241
Ni 3.4436691835715547 4.289803438974943 5.217385954403073 -0.0015843137679843681 0.18401719568734115 -0.4986664865726637
Ni 5.232028593493735 4.762370011303231 2.561356804613378 -0.31386356175923363 -0.2936184383569524 0.21388081601599296
Ni 7.513628568130014 6.203833460195301 2.7095497995286957 -0.42611304068496936 -0.38992347813828976 -0.7629913181718215
Ni 5.030404914784306 4.839386312608608 11.30481983935822 -0.6040575478156693 -0.2399101502002191 0.48021599317696007
Ni 5.78362888528549 8.302984316093164 12.349727943136008 -0.5276057953148333 -1.7350076669292311 -0.24736969180205784
Ni 2.1208880821778004 6.815756372407717 0.12927197533444107 -0.8132324737155606 -0.26412608532479026 0.29780779384795164
Ni 2.6449715172907715 1.4060677564337292 0.250883214149657 0.5783213193918297 0.28375980039531773 -0.2365818571579345
Ni 0.424066749311557 0.2213244031459989 4.85474958800529 0.25324234853275096 -0.7786544786303751 -0.7443063401678085
Ni 8.621354711365449 2.433233485383362 1.375197623627314 0.5746559547251007 -1.1736684839176947 1.409832022591288
Ni 6.812275871711556 0.6938446293814666 4.814742004937806 0.041535400239625236 0.011085568390200263 -0.10614876534463655
Ni 0.7490646358572338 7.246320662183384 2.439258477450083 -0.2116205592269065 -0.5270411810606148 0.48417394938344355
Ni 7.82336586768075 3.8571672062261024 3.7848364040302296 -1.1297396437452287 -0.6586765207121301 -0.09400981598925745
Ni 7.698140542372419 3.6787620112730437 12.95179913000976 -0.2648809612129438 1.1536856130378648 -1.8367351632777207
Ni 7.903826319805566 8.738801163055207 6.998885233840838 -0.21934235335119642 0.5270632925478019 -0.7279803493142754
Ni 6.822353875032814 0.717456600553356 0.4719431719425011 -0.14474282356775073 0.9536033934678609 0.16611357593404294
Ni 1.7240201281237058 6.229414685938622 9.449304032191586 1.0724793765711789 1.8075269171448807 -1.4117670348304718
Ni 0.11070264081085303 4.806371537075577 1.3588647152690656 0.8401830341624755 0.4977028371078138 0.43070657359292275
Ni 6.25796751410399 2.030913049820922 6.914108233855249 0.6873659182270226 -0.2580618814085814 0.760736974920006
Ni 3.4466953108086864 4.735134866169046 0.30079977361164023 0.3500680367042487 -0.06743900747926451 0.4735632637471328
Ni 6.019494147867326 5.6574312007748375 4.7276913201632365 0.2358681189203615 -0.3214945959419302 1.0612248867032819
Ni 5.66521007439341 2.8386800103439196 9.593679381304144 -1.0470254552744485 0.3528237450725149 -1.33901484266841
P 0.4328407008054027 5.5944186894767265 12.58977435028783 -0.6635464472099217 -0.7933650453676724 0.2770366227388713
P 4.099593621556316 6.534735475467598 12.379294932861928 0.07497388240372894 -0.7295170976737759 0.8442224943391718
P 2.388377737508041 8.356709433888728 1.6434542613563954 1.2048672781180025 0.8590713864265463 -0.0685594942369529
P 6.245635818425949 7.699294650958352 5.955586520854929 0.45840301106692666 -0.1901086532970597 -0.8842334875144707
P 4.731908814609942 1.2042623283406884 12.756203169607808 -0.9747969968263406 -0.5377035458704675 0.4792181480400651
P 4.115732966821018 5.94091480186289 8.255364160093112 -1.2517474876093089 1.481976148855706 0.3973781346441221
P 4.776310189026233 1.0713308291672297 3.9041548743711862 -0.018514770974735854 -0.254034248306427 0.046842928495467714
P 0.25478173842812385 5.396702622514945 3.7225645214703356 0.489535470805673 1.2393038625293171 -0.4742263512524284
Ni 1.7678489919816214 1.274063179116689 2.5072109369947553 -0.6168948087896537 -0.5281943208284516 -0.1194925336413942
Ni 1.8801610235843544 6.284221212566672 4.8736497064070505 -0.21650077013734328 1.2775659913343094 0.15453075619245
Ni 6.197145082878398 5.584567872884983 9.105753168566846 -0.6541287534404476 1.4003893891211496 1.2666256902727218
Ni 8.685730343040644 2.474526945339897 10.546070687595245 -0.7262553962033685 0.03148521509247481 0.07926428224896671
Ni 2.2468494924897575 5.2716590465902256 7.263045240463316 -0.028762159734356918 -0.5752887032130931 -0.4522048526760148
Ni 0.27486504531719574 9.462327284274268 9.18659347690341 1.2458498911779512 0.04347555468513158 -0.0002681660597221188
Ni 1.156380453228236 0.7629075776600045 11.524901985467235 1.237453953804772 0.6450095647479988 0.03457619531297271
Ni 4.180408484979174 6.78376848089209 1.6592819064282038 0.325992998032916 0.9506016305270597 -0.2068560479587276
Ni 5.681094970521055 7.914549533438644 8.131257502240912 -0.3411959310255995 0.2914584545911561 -0.5627908278563986
Ni 5.409125192884791 3.035814479278144 4.679849429915179 0.5406780551177592 0.11502318501613093 0.29923424188183306
Ni 0.8816735298747822 7.5473430787899485 7.272302645317568 0.4169285459722239 -0.27085543362882386 -0.558033001456439
Ni 5.223813521354495 4.706545688126956 7.067250264486308 -0.42231474998480173 -2.0033642453956015 -0.7906766999022318
Ni 8.128877494062518 7.519980709087236 9.000706568573984 0.5315269847461105 -1.9021540550031626 0.4550412936835453
Ni 4.883033427082912 0.5045735475291937 10.511356555325447 -0.24087817054044325 -0.003735555783032277 -0.5145638745292106
Ni 8.265116832017707 7.182971914525592 4.9174349504129 0.05551088858311085 -0.09525371569868757 -0.26227900481372246
Ni 7.324527421951418 6.009625156337222 6.9555261921395575 0.3198953697756104 0.12315249899148467 -0.16359646593914406
Ni 2.4116870959562173 5.3252751147556205 2.608786123760638 -0.5476028072620505 -0.934242986663378 -0.36559235759209296
Ni 2.294867679639919 5.05036099710485 11.425667730762267 0.08540690481159485 0.38772852736950003 0.39166077254437065
Ni 1.0795277263681087 3.2285597005981512 3.713519763394909 0.2434808982706129 0.6076807463905535 0.04123715227291608
Ni 3.7473451411788474 2.871340374578908 2.8980575339698 -0.37345659083151816 0.19451603833613598 -0.9649684407716929
Ni 1.145611802249254 3.255558571533641 8.460869096889567 -0.6001520421136761 0.10577646960688236 -1.0613169321964562
Ni 3.9453792695619487 2.4127866797270667 6.674806999176235 -1.2543080492476333 0.19661071608163558 1.0150486452575356
Ni 3.9351558667338016 6.7196200359464076 6.148895165264133 0.5255550834333916 0.4101632022239323 -0.2934749708005526
Ni 0.40228499443263555 7.18814268448934 11.238942957774391 0.5073583579197068 1.4443781359972736 -0.21845043766454633
P 0.09989127872672232 5.5039711087224585 7.971692448393022 0.8245784948559993 0.3321518185454603 1.2749514365295977
P 8.340206589856802 1.6478580489213022 7.75670382875972 0.7706856014922856 0.9387221054806543 0.5862791407863258
P 1.7844517981745331 2.9308632977116775 10.492163820416073 0.2149938465745136 0.18614941153899556 0.2591839108281665
P 3.978693931577939 6.001010235554037 3.9782913566932394 0.28706392506788625 0.6834151611093907 -0.7951468198584434
P 6.960310744663132 4.2054353751024784 10.680883292889085 1.7454255198284454 -0.7632689973132403 -0.1871192316514326
P 6.394670312987388 7.801973965229675 10.133225145227863 -0.3505506327676221 0.10670463784810656 1.764163205447265
P 2.3030100520257144 8.482361870248546 5.770005860236889 0.42128913693376474 -0.11657895953902504 0.10816322467150404
P 7.054584149942422 4.074457681802843 1.6539611932229767 -0.6018404855596926 0.15140069520390054 0.1646824999144712
Ni 5.139045608838087 3.0982453925486984 0.6017740266315477 -0.08357627936075929 -0.23331167104709494 -0.40325181981607966
Ni 1.4190083125468689 1.1450392916908778 6.974027370644292 0.20124744352269858 -0.17260998229166402 -0.039658237821570415
Ni 7.071595892248459 0.8775096514962425 9.292517926419116 -1.702757291535958 -0.12240970728818917 -0.6982367995032555
Ni 2.630785977899893 1.2171937969846474 9.119492513220958 -0.21493214009864275 1.6315781002879706 0.9454051739277848
Ni 6.171273058121299 2.024297372257463 2.440229927905487 1.3981409594066052 0.1277516883263929 1.1292076825011585
Ni 4.180572059424424 6.8728802036768135 10.176996758029942 -0.21167609505519028 1.3014479401582297 0.14787185611503567
Ni 8.008468527419893 7.294229799703379 0.012821510266874014 0.3860477972329674 0.5508287703985159 1.503620980818991
Ni 7.6043578604288795 3.8903273812660224 8.458833503793118 1.1214275243351073 -1.1543569280732764 -0.9495770459172873
Ni 3.2142287617003835 8.540485323127507 12.089878123145876 0.12712896714072944 0.17265574792793492 -0.21539905243273227
Ni 0.14846380149689853 4.8075074707231495 10.232525738457849 -1.2389958443705953 -0.24547324611029334 0.546636329583723
Ni 8.593247169189928 2.244568537725433 5.703929054331088 -0.21955575491358315 0.817167804214225 -0.35846577384964073
Ni 3.5488384643983553 3.0109148137233674 11.790617766813426 0.21390292750318002 -1.1197861320769424 -0.23976976796761287
Ni 0.9598184948523873 3.194054580119506 12.718003992907258 1.3098004258879832 0.49940336473868824 -0.38624242974227674
Ni 3.3145907713306597 8.35232018627451 7.952459728619251 -1.0068036316399243 -0.7233269097026639 0.7299369588200139
Ni 5.893787186692426 7.8123427675647115 3.673126871634169 -0.40367296651389833 0.2797571069938279 -0.3950775115354035
Ni 3.4877888464432485 8.268651857528951 3.6674871882607034 -1.3528041831430186 -0.36273560486958817 1.132653474957914
Ni 3.4872708606999563 4.1273194900262515 9.250183042494488 -0.23629595048639948 -0.4962843594937324 0.24701179424200684
Ni 7.256962088593838 6.123818294060334 11.511188994473747 -0.16184451624504387 0.2438794192606122 -0.9918562663014724
Ni 0.6094811092435937 9.087423743229625 0.6607971389593856 -0.7468977550440685 -0.136399593809378 -0.7270395826675609
Ni 4.433885262832967 0.35376154399603443 1.7904640677844017 0.24987883137715677 0.03220358131573808 -0.967672212856101
Ni 6.049092034988462 5.54600065368262 0.31890746470085507 -0.4216380356327513 1.1735586978127077 -0.05293104367107659
Ni 7.9334151194575195 9.232505188697514 11.319198033095725 -1.031828435819036 -1.9602537873593724 -0.36569905837328637
Ni 0.24345420809453647 4.674794070810025 5.910338194311008 -0.8396328180859605 -0.3088190573567907 -0.26293155079605685
Ni 7.970864579950671 -0.346885964814011 2.480782759123805 -0.25802948550874916 -0.22345123331324743 0.26569522958412306
P 8.445548532598034 1.5274127324019542 3.3553526143401315 0.4189589461386914 0.5160859676006919 1.2998368869173678
P 2.0881459307201866 3.331257189807835 1.4426448198855457 -0.420393878813005 -0.2931260721015661 0.14718922822571426
P 4.66446161835171 1.264176012648223 8.462651149595876 0.6517869926811485 -0.6328392479340521 -1.6309903461053008
P 8.54098513393244 1.527612656723927 12.664483343168257 0.036003157567486385 1.1285906177424498 0.9659745134387042
P 6.2312412672439175 7.865722561531412 1.3524807681697113 0.208370427720725 -1.034873650403263 0.18440311827185016
P 1.8061617620469281 3.1052609187561027 5.968488000850592 -0.26833523831013145 -0.028432801419396195 0.7823738364634913
P 6.927995704257005 3.9298669596707065 6.020559199255291 1.2701146772625866 0.33014198720428306 -0.8657714241545412
P 2.0790493740704306 8.45430885288811 10.089892457187208 0.4157026439849228 -1.7648643452793478 -0.0859738330586584
