# total energy = -340862.6969148723 ev
CRYSTAL
PRIMVEC
9.32403441593618 0.00000000000000 0.00000000000000
0.00000000000000 9.32403441593618 0.00000000000000
0.00000000000000 0.00000000000000 13.64666685556814
PRIMCOORD
 96 1
Ni 4.185176643336181 2.603149121490487 2.9220655882555016 -2.1129294926209545 -2.162824320568869 1.4574041159432964
Ni 1.770606112475434 8.303574554109188 9.997097943885235 -0.6076414085121857 0.3866100974943406 1.1435595803474563
Ni 7.681251218979827 7.0718509951786634 7.2564239807387105 -0.7628841031699958 -0.10276982157007462 0.773505587439584
Ni 0.22182529918887242 4.033483931793277 4.862525765986009 0.9117630603933071 -0.7029966827857442 0.2412003297665523
Ni 5.370923389886224 8.006315021458175 4.562939886815236 0.36822696700146257 -1.6071780741770514 -1.5626547949536957
Ni 1.0564596890631712 6.2707486293084065 4.883773375000942 -0.05183652505531718 -1.0692631836267263 -0.5944863591874665
Ni 0.14659060005748525 8.198529985405374 4.013334694000898 1.7933190010756148 0.34321553255878956 -0.06960516189264787
Ni 3.4968391464437265 3.9195162624104682 0.8320861313418337 -3.5471754252802326 0.030251599795689837 1.3973768275470708
Ni 3.3141253732926574 8.055797670678054 8.277263062148839 -0.5395007469802064 0.5056750566800129 -0.9747291197028827
Ni 3.325519343020694 5.442289547249883 12.72641709824714 1.9644048334132682 -0.37765340252168506 -1.5168601052170845
Ni 7.906976761652527 3.711357200071337 0.5359454827885008 -0.21082480279848853 0.07469671748294232 -0.09300502887382692
Ni 1.485104186884204 5.320349828671108 7.114335024367556 0.31397540474674956 -0.3745719353828839 -0.7399316081388805
Ni 3.427776025514457 1.4990715900369036 6.247539243508874 0.456410149006614 -1.8979503013344603 0.0890694412648466
Ni 7.284979767718323 3.356587024799596 4.796244004442886 -0.5791677265525251 0.47154571909647175 -0.17090251268225404
Ni 8.901077310338358 7.099021230683983 9.583439966149204 -0.847259738503599 -0.44385056717404847 0.5222548154155651
Ni 4.666996107899434 0.9157087315921586 8.254363234282998 0.008234729204966464 0.05698670179768896 0.6531550766732687
Ni 2.1160895497364347 0.07744542762771899 2.683917634888314 -1.6782626488287031 0.3464857186696291 0.10930659424732787
Ni 5.036600821499577 7.269520519102049 12.649190785421883 0.7155328675795418 -1.2818692466953536 0.10222243370703685
Ni 2.935961196345267 2.5831770403469068 8.555709491100785 -0.11735620402468176 0.9482099903664315 0.12165431717940339
Ni 6.74306690307553 6.0856106072790315 1.4819601225697243 -1.6422569201580555 -0.36668404799437493 -1.9478883238154838
Ni 1.7180185598844955 0.4564422408244662 12.830173085431793 -1.5642442509280026 -0.669927411035601 -0.2610716147691826
Ni 3.4653518831281946 8.4257380495075 0.017282097292075266 0.20164313629922045 2.0203216991855464 2.598420103933293
Ni 6.90154751147769 0.19819353464246575 8.266631798414055 1.3388304945717457 -0.29838217829418284 -0.3701398677534593
Ni 5.326317210525399 8.202334191337485 6.8678485872624115 -0.5275278908890463 -0.5916589170410004 0.8882793754490702
P 8.627006650611754 6.175466324356846 13.548287817777158 0.4229235872133942 -0.7772856233073066 -0.10741220543809242
P 1.520666053122119 6.797109004993452 2.5460990861566364 0.29853824425607295 -0.5482427548388945 -0.25745047307682756
P 6.894004367852501 8.690475351052626 12.38095137665102 0.9467285207248985 0.8885447132953149 2.9975620153460567
P 0.3068651526295913 1.3764139208287838 3.1107989578520865 -0.250991090604729 -0.9625860565824454 -0.02615197580501948
P 9.068238594531683 0.16614682927809418 9.787253096172266 -0.05121791763471179 0.8286866034871019 -2.085849348574711
P 1.0998444199506956 7.349530056120285 8.14905199820257 0.704384050051574 -0.25817552416831024 -2.24590771945361
P 2.6100955269302473 7.7177175165300325 11.936384225716592 0.23550225094051055 -0.30227251448752457 -0.8472998477129149
P 4.007143535327072 1.1030985078681135 10.427881375139664 -0.8559202423920743 -1.6891206745891298 -1.8863338001414545
Ni 4.421568881073426 3.6813338101169357 6.926215176217865 2.3050500341417206 -0.2897155037581204 1.3021189980833254
Ni 5.659875208111965 3.9670781605959964 2.230124352165104 1.7982061539645868 3.7026202086465196 0.46739775836636926
Ni 6.586814738834582 4.787742350107352 8.093387514343013 -1.1355919887609474 1.0692043053643328 0.7444868316097307
Ni 5.127864467733637 0.47651408913342247 12.33437596127828 -0.6336954252867603 0.19918773278019244 0.26853064215038913
Ni 9.30392220567373 8.584200009841366 6.405663673806606 -1.6032250030665745 0.10706767761448013 1.42486372011343
Ni 1.9576648855391587 6.694460713065502 0.16527503208531888 -2.4421109156841814 1.838793074248014 2.8725945746330206
Ni 1.7641165847088927 0.6231289316796907 7.683673603051303 -0.845566409961576 -0.01516770887937388 0.6047913406579004
Ni 1.1028467589461357 4.62703329754398 -0.2500454209391799 -0.7268670616454386 -0.3049413195689394 1.480004884061948
Ni 4.296272510201613 0.12211687522757472 2.233235782360068 1.422044248386764 0.45140009738653225 0.09713602032306497
Ni 3.7980520695732065 6.341797769511057 1.5942578574367463 0.4202033600687537 0.839627932989954 -0.9096784099501365
Ni 4.931714761376266 5.854132135537429 3.5075477996619346 1.0085964618742889 0.2992491542801685 1.323374822138308
Ni 0.7123916401857352 6.4973319831226615 11.8570292358955 -0.48493808124297777 0.12398322242289615 -1.4368370904252223
Ni 2.6953544951734285 4.7738868353644195 3.2145810523323526 0.1442856814256741 2.121594110274488 0.37306758292321557
Ni 8.600255996643066 4.282202542673292 11.801091557835425 -0.5839805745601363 0.9366883628800772 0.7623439143958097
Ni 8.962065817696041 8.793263503492787 11.706792938486409 0.019569951712127588 -0.6051826625590481 -0.06705976976297483
Ni 7.39360476553471 6.894414625354983 3.8810574187629783 -0.5781143455873463 -0.4730053343611338 0.3993460570037703
Ni 8.748470843449017 2.034149937649703 10.871302602277384 -0.6870005644678039 -0.3768126517879446 -1.1211359612366176
Ni 5.280620119169337 2.620902082507002 0.5351594667098809 2.4006634471726715 -2.037648106279136 -2.5569698072083065
Ni 4.923267186438786 2.8185716064303876 11.159629710215256 1.2582096982948847 0.2724405187277566 -1.1520354790289515
Ni 0.5054279190242913 3.833427455128175 9.371043130290111 2.019186042919206 -1.7414428810316136 -0.18521918641524232
Ni 4.128290711003324 5.988985641410256 10.315678745420946 0.17244543168934173 -1.5987340571747561 1.321301227438731
Ni 6.665043385330677 7.267543823862816 11.007742126358673 0.5682626496042472 -1.965377995959815 -2.938752401407016
Ni 2.9906186845169125 3.4127736545714034 5.33884871241941 -2.069289901554133 1.410281708534197 -2.222231201772276
Ni 5.653562836994223 5.649833223335292 5.99130919071977 0.40630371926852604 0.5677538282886286 -0.9873671201818673
P 7.648775608044677 8.973608971970435 5.06254494651452 0.9067216413146578 -1.2942691630216032 -0.777506481068861
P 5.21130524931809 3.9120383870243103 4.508994754852447 -1.204884761619499 -0.1522710136239958 0.3785615161582513
P 6.90853121305404 2.781079665123976 12.092543149616066 0.6240203640908414 -0.3276374756148745 0.9136690191667686
P 8.148208173112236 5.757423253361327 5.652081247968213 0.6844903964514406 -1.35539019870264 -0.2934662290498043
P 5.197645539292251 4.898744976631309 13.96681760335517 1.0160863424934308 1.6634340684563031 -1.5110625246987008
P 3.4761770867732444 1.5687873933564866 0.6573910275574678 1.515523645793848 -2.7790334161454076 1.809386853171755
P 7.71370818184668 4.623685969285089 2.6390466529577052 0.6897907256184314 -1.1518017657515907 1.7181908524822087
P 4.029586485519693 0.3017369338485601 4.5156549124438845 -1.8027855458051534 0.596856659191856 -0.7272452709204636
Ni 1.1627070581719912 0.8614661629400691 5.131310630754491 0.5451533172802934 1.4243001343004762 -0.21778477905608945
Ni 2.0550823943104577 7.986921030431731 6.063814745056233 1.5935224310668297 1.0097879110792285 0.6458575145705909
Ni 5.958356189236278 0.6487849440394827 5.428370629074751 -0.5923615995349798 3.8705273861458758 1.3651853304161907
Ni 9.250066584438756 8.38205494952726 0.2886198826100969 -0.12119871769922352 0.3774495140409951 0.4428642920013792
Ni 0.41146589730799277 4.3585290862033315 2.242816227446449 0.7770619373322747 0.6078311559254888 -0.46555504873067555
Ni 1.6503074239065885 2.273059664606727 0.8337280937551784 -3.338525518645876 0.6591778858285808 -0.10143284792620595
Ni 8.169522915173031 1.516143896560664 6.260039976090199 0.33168413488042237 0.3577816032984225 0.21584411038995086
Ni 6.409620793898732 0.39991621620969575 0.872625167007593 0.4814172125739128 -0.6069045303461612 -0.2649439532403953
Ni 6.189946549387648 4.594865379735693 11.035253621513784 1.1183920799428932 2.4851676376643392 -0.5454541363501639
Ni 6.358953992342144 1.9935437689380828 2.8853279613116087 1.5439315075125797 -1.9746820469695605 0.5425989262895559
Ni 1.0728513410941767 2.815690479878863 12.082867599381384 1.5665764986056052 -0.16553327795054074 0.6720148896922491
Ni 1.9206298219059659 2.7686693756738805 3.107864684305922 -1.2466942414561175 -1.7189552414520588 0.7555376901072536
Ni 8.742410221253252 6.922144302909142 1.9813320814153252 2.0840945706671334 -0.4328722137856739 0.4022493466934943
Ni 7.985624989685252 9.270206498196986 2.7406739631465236 -1.252475881134901 0.8431791406763222 -0.7286974299859579
Ni 4.096561022799961 5.950682509133026 7.938538617241237 0.7045655699347607 -0.3442642855382781 -1.2899221989068173
Ni 8.362138812588565 1.4022414954168865 13.11383258187551 -0.14199817094307804 -0.06532324668784234 0.7285706746001065
Ni 6.954284248614986 2.7184967479271003 9.29348861146287 0.24500016312861675 0.08176468007331726 1.6772576046029566
Ni 8.513458562765576 3.9017633013939528 7.2453973779560785 0.6296886181202124 -0.31298501580902227 -0.739470609342062
Ni 6.862806149595536 0.5950682509133026 10.594425408272434 -0.3955140848521898 0.11605239761159367 -0.2725148236091178
Ni 3.116353284993651 7.466173723303377 3.8308652105444887 -0.16028719906025296 0.46383729470862056 0.17038109296114526
Ni 2.022494894965541 5.581124415703621 9.351678043769523 0.010302667477588708 1.3956369620378286 -0.25136030101868967
Ni 3.3408573791930514 1.953851355572901 12.30605886957284 -2.0509155128120033 1.3276122572584232 0.20184188257358787
Ni 1.753766906805357 1.4849363542695522 10.356550649105763 0.28351965936005363 -0.9918750353545499 -0.9463351419412218
Ni 4.409596821228256 8.14246456807748 10.308460078184083 0.5177435578087728 2.776088988805103 0.574996625893971
P 5.795316128136075 7.8955827919244905 2.026066000043968 0.035033594565365464 0.44368833056457135 0.820165196279652
P 2.0849193035819122 4.609793158405568 11.180782214081887 -0.8816037632011076 -0.743799318624403 0.8940571584731118
P 6.448371479815034 2.5299741015022446 7.362977178167562 -0.22504068928755439 -1.044887068775207 -2.559123620326515
P 4.670790989797397 4.188486675458483 9.146760015700002 -0.4953561912525081 -0.8303310810690604 0.6535767375917195
P 5.896360686190684 7.208392151232157 8.738424196655268 0.11573100971643295 0.30718614973905806 0.1262041413336149
P 3.3841954899098385 6.367839796884549 5.761554732892009 0.6443292508515226 -1.2146973768345468 0.11893923224108548
P 0.9203213312848425 2.5798390361221633 6.810887130252961 0.6692506966835506 -0.032193296903092944 -0.4373243360197565
P 8.123331650007161 4.724618638929931 9.7981976474544 -2.310057771768957 1.7845145154101074 -0.9001139061901531
