# total energy = -340872.989667759 ev
CRYSTAL
PRIMVEC
9.22607377463389 0.00000000000000 0.00000000000000

0.00000000000000 9.22607377463389 0.00000000000000

0.00000000000000 0.00000000000000 13.50329155500529

PRIMCOORD
 96 1
Ni 8.464978178844989 0.21309924238737635 5.229149563835739 -2.0461085783416637 -0.2939092301244938 0.6425132806887064
Ni 0.20537240547864477 3.480093535101337 8.550135763742043 -0.9005221973721652 -0.842559247704136 1.0463834508150753
Ni 4.085167141053986 2.591336608229669 11.374646628603518 -1.534764753411647 0.08945999183504592 0.9189112414023143
Ni 5.021447574692073 3.2684658515043403 7.530610310330698 0.5793898698656602 1.3403505307606982 0.5654133530809101
Ni 1.2003860256970131 5.121393633476897 4.23159416025217 0.053562506607488396 0.7243874897566944 -1.2124116661241635
Ni 7.505162030634753 2.956550744387448 0.004895354822415495 0.16646427440524234 1.316761173476532 -0.09455360430786941
Ni 1.9819636518298935 2.2026697921650302 6.909553453917528 0.06095211420334019 -0.1463682749863157 -1.17460256569619
Ni 1.336609007138711 5.517044587499637 12.483185243203453 0.0901117664864319 -1.2382463677990805 0.051213546759337605
Ni 2.1101322707386685 6.777667649826033 6.2255037325948095 -0.8903599121271827 -0.42521135480630634 0.5409328514410426
Ni 6.282255158496887 3.7949425337250675 11.373539499733013 0.4107573841645055 0.06350213431870354 0.18263111397309192
Ni 7.833647166513534 7.206034261972192 8.978217290204046 0.6012889839315967 1.4338620669572986 -0.29823793940683474
Ni 2.910069783974087 3.6751788681582083 1.711407188885493 1.3974310778237737 -0.059352116706071975 -0.4980982727740196
Ni 5.701233927255957 1.9613802809124246 9.844493965360114 0.5847737598853928 -0.34149057944788286 -0.8615139344297679
Ni 4.300586741032462 1.8964656248051583 5.554592863142807 0.6994909836253308 0.7509942937109454 -0.5340281539014093
Ni 4.954078782921855 2.4342442475789556 0.6246384183092532 0.5426290081965429 0.1623168278957721 0.0547182174784864
Ni 5.784425435800473 9.111218526632575 11.564610568026913 -1.0632102925644271 -1.131578239615864 -2.3299473116040326
Ni 1.543992696732106 1.0785557195718782 11.02323654424615 0.11681113015448914 0.7697479201693646 0.7526379999619554
Ni 7.704389870882096 4.9033446024309715 9.654475592100587 0.39958671225966663 -0.8876656531244712 0.14738437495565584
Ni 0.09993314228133372 8.47449948713133 0.9537924445472976 1.000194868074155 0.5956942634526387 0.4259145515209181
Ni 6.057129728753652 8.756614375483801 9.226691145218837 -1.9612475187312095 -0.5994030797627935 -1.3191211890682766
Ni 7.526382000652762 9.180912289030854 2.7754669011128947 -0.44621443942053474 -2.5091640005789366 0.7455898348659223
Ni 3.816402381665019 4.787372853245591 3.5560518016918894 -0.971666421617159 0.9227650679307656 1.1442694619302873
Ni 8.781460192552714 1.8856803443916574 6.949280005613418 -0.09931580158320315 0.35944973502946487 -0.8566918304507761
Ni 3.1678278371754516 9.151804025810497 6.28386510839608 -0.1385040417468905 0.014257024139646414 -0.9861121647288437
P 6.891397463048641 1.534083893341088 12.01956395739085 0.8739472750971142 1.6297407899689158 -0.8234639216355817
P 0.8292312205415842 1.3433809453966319 8.873296532361088 0.6166839783304283 0.111240320934931 -0.6606495852781009
P 6.706054864052214 1.549832801524019 4.552512992908443 0.6931020493798515 0.7034376269779047 -0.08078174733475764
P 2.9416137307095536 1.89035796386954 0.2077997855272266 -0.27027359298342485 -0.0912368812298106 -0.6030123943806066
P 4.340304989261822 7.430587675132332 10.884111962556338 1.7982308365549355 0.8510968528615019 -0.4393344244712498
P 1.348722842196818 0.8584197506050516 5.1733807148062345 0.6487749453277021 0.4343079177909359 1.3135588644891507
P 6.217128302689441 7.450082369327138 1.1953615058397054 0.7831076293057222 0.45521355759535154 2.1974542519379123
P 1.271085430152667 6.434817516852452 8.847572393054909 -0.5724504624333496 1.0032197709434076 -0.611618647992379
Ni 3.150086097025612 9.06280009069583 1.1906054647334952 0.6450244771463343 1.231920939801685 0.28516259428011537
Ni 3.443401439118023 6.1184093117360945 9.385881515079157 1.3391860781389517 -2.4652140773605478 -0.3634205467517547
Ni 3.106742001745348 0.6333441416609894 3.659445644300942 -1.2105694707091021 -1.3119467828070244 0.822110750041797
Ni -0.11624299575865395 2.427730639390819 3.8281831554545827 -1.149779593115239 0.30169967270319004 -0.40919723876623726
Ni 1.723024661166657 5.7161340366381665 1.86927453974556 0.19629961259912 -0.1830463471336396 -0.302443235737434
Ni -0.07888569984564495 6.6034793741999405 10.764256958857663 -0.024813716609570168 -0.208644250207402 0.5968893122020043
Ni 7.996496597290873 0.6913198675723665 8.768578748144389 0.5692000738168519 -0.3574237057383715 0.07288151865107448
Ni 2.1596117051763133 2.783635666962436 4.359240583377024 0.6072022640922382 0.5514556053492373 0.24448748515825636
Ni 8.711009892092923 3.2847314198268402 11.189570663143403 0.7290224174255445 -1.360971035224527 0.018992224831786645
Ni 1.9715935447428317 4.6546281016720625 7.7852554861911605 1.475829669638336 0.536688731452708 -0.6450972393657987
Ni 1.66348880615526 4.64361216941054 10.193837409159206 -0.30285358380197525 1.325120344074505 -1.069464501004255
Ni 7.607755972634867 7.864720583479036 13.139364840425994 0.33050811229445015 -1.1991607146515284 -1.796366529652687
Ni 8.683008757743073 5.916598170790907 0.8056189295558924 -0.44820035950231196 -0.7156593658550772 -0.5351460695559365
Ni 6.947445862117948 1.9925551846910563 2.1215698345783753 -2.040571193463202 2.198347453176143 1.1870883568680266
Ni 4.20709893399225 5.633311571050485 6.91573769126669 -2.522873122634913 0.14050384578573866 0.10093405391291649
Ni 5.943169263683023 5.9095402242414385 3.0825715332874437 0.5352370866078461 -0.43559784024695297 -0.9799330325013254
Ni 0.9635619342221107 3.492013622607106 0.22041828682880532 -0.49693150615942805 -0.5764690966744395 -0.17305786846236001
Ni 3.2301499665109525 7.964860389816198 8.28830716672679 -0.48098115347775866 0.981654386067806 -0.7768382513572428
Ni 6.086293348417534 0.21120143898185267 0.16737851046509547 -0.569617878080561 1.7762993265891667 2.9347247683048616
Ni 2.3019331214797085 7.370479803537841 -0.08325332323978647 -0.48860370302002293 0.46707148537520204 1.2200637833527825
Ni 5.073759413823426 0.49999969528260424 2.4623653208897784 0.6344865537294879 0.13649112508191977 -1.0532143576939796
Ni 7.102010278514342 7.250319416792384 4.658662663797661 0.027674840207449113 0.1632673647344995 1.0315970365345202
Ni 7.817400050338875 8.774226950598749 10.760435519039637 2.24970780992599 0.4029669415858092 1.5022384986491677
Ni 3.6252750343202034 0.1110588648225151 12.224300686376349 -1.9061557199633878 1.0780342449511369 2.359700374496749
P 2.70604438528789 4.475568459015749 5.667858604847196 0.03151941076451991 0.19572857058699838 0.797439215437046
P 8.797467430805428 1.3984329284824843 1.6558680690966185 0.6318468021137956 -1.09455152587987 -1.4608712485562905
P 9.008855236480484 6.501457448782921 5.352353632367692 0.9117090672269201 -0.8664108575107531 0.17277761821777984
P 4.225661794721048 2.3980688117352105 3.3428750602835775 -0.27335351746032927 1.0112233579741745 -1.328715003404299
P 1.744908908506969 7.811237032959732 2.230163492449233 0.14595149916387123 0.18180836096148043 -0.3498456362807975
P 7.421333922989696 8.256192126015621 7.11564088012504 0.028467511312073552 1.0916875740685135 -0.08963482685001337
P 6.255730195974376 3.9941611478984895 1.617923994882242 -0.4359945614647394 1.2363416945771997 0.4869864791315742
P 0.6546895862843224 8.28671197854587 12.170300475717475 -0.6842538549606022 1.0600802315758775 -0.16701011960638334
Ni 2.2499626470834277 7.1676076640917525 11.057413612478635 0.8358401838127475 -0.45435918001485626 1.2092073002542527
Ni 0.7731975831905508 8.818724305119122 6.937154176659213 0.03423655258536684 -0.12257888587620179 1.2173049896607229
Ni 9.061480762125147 1.2296419061001032 12.849394872737292 -0.3019868649263057 -0.8615650993826774 -0.051688429513227115
Ni 2.7921328810435604 7.303147916063306 4.005414190259779 0.7333956067925755 -0.05681238100335377 0.02526340255247907
Ni 7.883375704947042 4.702179286660244 3.8320313508869788 0.7992037635366365 0.46147342246213424 0.36567489000357023
Ni 0.3312686423807087 4.040420682537749 6.078520381139198 -0.539453952902671 -0.25308165458517057 -0.36253223060953044
Ni 5.237762103840875 7.847947581090888 6.782851780762172 0.7405317036167246 0.182037446253151 0.5735853473687412
Ni 1.5517149206038772 1.826974836033139 1.9859022627867142 0.7990474404644303 -0.2527458685123066 -0.16971054925668194
Ni 5.462832177140584 9.041939937560736 4.638907794318286 -0.7101042403648028 -0.11458943991282201 0.28382407797434994
Ni 0.6435555602766122 0.09843021483962343 3.3534075462716464 0.3477234477314721 -0.8211892666687921 -1.1518123072745519
Ni 5.904023032036757 5.989391894026599 8.765027632292247 -1.5733819515632128 -0.20419007109079026 -0.6774669139457559
Ni 5.766942025720417 3.690863193823693 4.23405198634469 0.7272064472627282 -1.2464165623146988 0.19085427321383258
Ni 8.890521612371359 7.014768523518562 3.075591085758911 0.4751357504405752 -0.26559058568545874 0.09200769795756411
Ni 6.599106215161447 6.530934754960112 11.129331781299234 -0.5068819325039206 0.15376893832576097 0.2260552465949978
Ni 6.211343554341053 5.227761039710648 6.3003659416035624 2.305820593759158 -0.20192621475727804 -1.260389736665339
Ni 1.1810850790545457 8.517751321672385 9.766471826033463 -1.8760380746424015 0.6145623040017352 -3.018043166018544
Ni 6.124000312532144 5.62946429822548 13.456462233264242 1.2580808860265043 -1.7048478555163995 0.49701429568122135
Ni 4.402442597118905 5.2268292062446395 11.635516636538394 -0.8559636940355001 0.2744732328870692 -0.07430796668495589
Ni 3.6851061236970675 0.31126835933503905 10.06566417721347 0.5740517454821984 -0.32263667996617335 -2.231329821639435
Ni 4.233264079631848 6.748651647344886 1.7130272874659982 -2.031903490485875 -0.4119863714756002 0.8803503504099807
Ni 8.476639936280973 5.686444530760796 7.489411277237037 1.0371187376836977 0.15098083405766255 -1.402943523001571
Ni 2.8869307905805366 2.389137972179805 9.025789695162247 0.38918582864131684 0.8618510060542125 1.2759711360433639
Ni 4.732809852077546 7.47005681936583 13.122620438867001 -0.5010506705341242 -0.0910119097031981 -1.8167438077574583
Ni 6.445261432530881 1.2491827306645131 6.989533366130188 -0.41762737181146137 -0.5381516891514797 -0.771668020010213
P 0.044393099885067164 4.289819912766803 2.19870073516427 0.7764834391209853 -0.03387736947373521 0.9777339679674775
P 4.319361801461439 1.2771008303490765 7.6782551712864375 -0.7171650038663262 -1.8159786474566597 1.3777590533161435
P 1.793557996291735 3.142031734492689 11.473679306070174 0.4084652456962191 -1.3102657955601758 2.1657214396110054
P 8.45357475147879 5.098992725997016 12.218021420465801 -2.192716994363243 0.4388466862015539 0.3106995622089552
P 7.50417484072522 3.73857122206853 7.3278581098455815 -0.0855017785182463 -0.6801817417737577 0.08083445494956401
P 4.654037632941127 4.213252725297473 9.56207277135347 0.5570567535860987 -0.7309803124828635 0.4764290153307021
P 3.2898057604833206 5.340614375910772 0.04375926860670315 0.3631822054887036 -0.039912262813905454 1.1337202256595313
P 4.836612409761293 6.877835134384957 4.839296274664876 -0.1279640614475151 -1.0620347841990871 -0.050539146400132316
