# total energy = -340891.89604597463 ev
CRYSTAL
PRIMVEC
9.05339393884282 0.00000000000000 0.00000000000000
0.00000000000000 9.05339393884282 0.00000000000000
0.00000000000000 0.00000000000000 13.25055716058307
PRIMCOORD
 96 1
Ni 6.391650807084838 2.0834484785071092 11.391318767433663 0.5754483687194089 -0.4972202410444405 0.12433289245283101
Ni 4.668183375739971 0.42805894772663045 5.890627842120779 -0.2697107785014194 -0.767894926121026 0.5451358337787967
Ni 2.3194161364025043 1.400704886392875 4.771670910418865 1.3009560881234756 1.2711397760929914 0.7897613871768141
Ni 3.5026222884000844 4.4718333694310655 4.996891284448099 -0.740778272409892 -0.4661523159950424 -0.3440292867093365
Ni 5.189396314379311 4.598318335225132 2.5951481108651238 0.18632758898807264 0.5329809435838175 0.00647815152517594
Ni 7.240822938759042 6.18650995532564 2.700317766125546 -0.1706063215980739 -0.32681240861041777 -0.5352098329143364
Ni 4.9649626802776075 4.621042353845353 11.685918014726775 -0.5077571360200223 -0.3939457119238054 -0.5891420641564176
Ni 5.908498336285899 7.992951741512868 12.502828377335977 -1.4998725695201525 0.2327254595263218 -0.4723113936179027
Ni 1.8482503590908854 6.375390911689652 0.27329570617150367 -0.9104361140517675 0.781371620451222 -0.5197467042817306
Ni 2.9972256288561727 1.82024821184294 0.3344414230476434 -0.37070525333862603 -0.8953316543101613 -0.15243325023347298
Ni 0.5910345228635909 -0.27020487750339867 4.593292796286453 0.5520950387054491 1.2865710230463971 -0.15702086960415537
Ni 8.477362634060098 2.4896833149644553 1.5121403955525223 0.7945446674980703 -0.255795711082224 -0.5227052726894224
Ni 7.087920169644733 0.784280120413583 4.959352292094758 -0.37205996759430765 -0.6323227133089497 -1.1750795053326084
Ni 0.7744264065226473 7.258884459534875 2.2835873301516973 0.05374839736604937 0.6449236899024119 0.13680942765328696
Ni 7.776430773655814 3.7704941063025146 3.589443430298912 -0.405037965182225 0.2780306112210244 0.288221178600781
Ni 7.582235475088585 3.8719735982204657 12.595343198641281 0.8180540634739202 -0.8882791183387541 -0.2784867249218365
Ni 7.884301961647818 8.61714703545301 7.150159536500683 0.27761357828826383 0.45464508668639125 -0.47027019481815785
Ni 6.873019759290875 0.7542228527565575 0.6978183982514973 -0.08845469049898315 0.16789843574860763 -1.3208469135101315
Ni 1.9247153237388483 6.425510500168355 9.202247058633112 -0.8871298352256592 0.07889867137943185 0.26878003915703386
Ni 8.841227587193684 4.979620124957343 1.1871588637623567 0.6397238908690273 0.16015118770302095 0.2677667674011711
Ni 6.444432093362085 1.9420254128232557 6.856355177189583 0.06856540777422385 0.49539424357929523 0.5832051298466924
Ni 3.455399785960613 4.577540796287519 0.5181872944071182 0.8216034713880753 -0.40423038167926506 0.3948558824429006
Ni 5.815194059034904 5.597849232335443 4.720974620750477 0.5895606397510751 0.8101250384348305 0.21270916430539497
Ni 5.706517118988239 2.6958834138067473 9.001222785067785 -1.185179826991404 0.2598328572660751 1.0078215313814771
P 0.19347374307558143 5.490331126704469 12.231615857094557 -0.24277564467347224 0.8438612543450112 0.9169528321243627
P 3.836493347633754 6.417299071925909 12.632776266286314 0.8088723969746522 -0.5318632850396066 -0.7938491840929425
P 2.4567923350253067 8.682648340121258 1.3111496195445227 -1.3749622072972965 0.45946076290747967 -0.10711832834675744
P 6.294743279072549 7.886022106483612 5.722398582519549 0.0847463884094605 -1.022287071987504 0.792124745202668
P 4.9529035596393065 0.949682910447787 12.512726452856889 -0.9293825732472834 0.35204392948369695 0.7187529171787364
P 4.279204308003798 5.988050508244418 8.102251555057968 -0.7762831501847212 -0.3386595377569909 1.4428043637522507
P 4.636215841975828 1.2292426598397412 3.8844401215830335 -0.5174869617132766 -0.9393939347366983 -1.4502176254971864
P 0.14158693211294768 5.565972232510026 3.554104412656613 0.3421382403342108 0.2169615118238457 0.17583594542812944
Ni 1.4779303361261362 1.3124524029227898 2.496815578657288 0.08200996331490391 -0.2119810278901188 -0.21218723036365392
Ni 1.8686204953042311 6.62154363769172 4.82968234233631 0.2262244251830104 -0.9053450726821053 -0.6244700500337503
Ni 6.085944856188822 5.9083263218023205 9.368647532672076 0.07834614131007152 -1.0038088106776581 -0.7445025153390146
Ni 8.485293407092493 2.2502934741852183 10.136981005118468 0.4983975491819932 0.48598246334709205 -0.23718786617304954
Ni 2.3917799136261797 5.225483142355487 7.051880419316696 0.01816407250353646 0.033163374125846114 0.14154874211048524
Ni 0.37800001698687424 0.04802372779719619 9.268645554634134 0.061207681857572006 -0.3525828327063024 -0.061400257484352315
Ni 1.4230305556827016 1.152107744045206 11.55233880949414 -0.6041128265336371 1.685944590853993 0.23537343867213015
Ni 3.932604176985255 6.998427371214102 1.6341249192525207 0.4204591848333017 -0.13286689806577115 -0.34007775826075626
Ni 5.637503097497423 7.784959070683801 7.9092440617668265 -0.580001278197414 0.9510353756303686 -0.12098917279157871
Ni 5.3228342866675336 2.980123767830835 4.82336216807385 0.32765341645447443 0.14085814380136386 -0.054938046798776355
Ni 1.0042839288934255 7.6127906794086035 6.974178761065736 -0.25019893372073687 -1.3574229128619526 0.11631953523005127
Ni 5.085535779872867 4.2247843574356105 7.019243839745367 -0.2073748965766751 0.507278910832023 0.5026157010283989
Ni 8.337261363881643 6.811203185928775 9.179628059381814 0.24779983736094097 1.182168808079222 0.38767736241659034
Ni 4.62054441718236 0.03412405218459645 10.379783975387673 0.27372041388144475 0.1705970656266933 -0.030423606597179863
Ni 8.143464414644809 7.203206087218397 4.8487496951713895 -0.4990138426097535 -1.339258326137784 0.33789694855935354
Ni 7.228781924908486 6.175826950555974 7.11529763271547 0.13040712367136897 -0.7085235261412443 -1.4983695026120645
Ni 2.185163358665748 5.327433410754814 2.5579142178852905 0.39540249897498997 0.08964074038728434 -0.2160613686070795
Ni 2.391852340777161 5.3142426158824385 11.187856414898443 -0.5216336368917983 0.0747154865360197 1.2859799264296174
Ni 1.2671854335597996 3.5507229700451974 3.786598283323092 -0.5966332303271403 -0.9258287944577539 0.9627814604227032
Ni 3.750096809907551 2.8582288727301752 2.611737549797273 -0.3923889089596468 -1.079585905708973 0.9165872212548278
Ni 1.3756631989412689 3.2294813952638024 8.365712559465669 -1.5503057864700396 -0.11892457695306616 -0.6231587874214946
Ni 3.477653028099459 2.260225047263458 7.405683430500277 0.24732161217294174 1.5701343911601926 -1.8903871442752218
Ni 4.152655968452622 6.709859494918914 6.1151456727854985 0.009623124912060847 1.2548626361995228 -1.2158600296840802
Ni 0.6672704366465771 7.488116392389057 11.321805903940467 0.6708077567580253 -1.5174584009227157 0.17816073690656412
P 0.4047953468316026 5.543456441948876 7.831529728764444 -0.9898461778499792 -0.254994041116535 0.2979237506005256
P 8.349347644701561 1.7123589170631892 7.899955279653541 0.6694859526228083 -0.2946556213722151 0.7943086402278643
P 1.8155042334536984 3.271760744648835 10.509559849854428 0.2966659669340245 -1.6517340064105552 0.46359175435671773
P 3.9120439195005847 6.123027557490983 3.6568088287655267 -0.13169833167896672 0.8655644503500578 0.560406386784622
P 6.748789088571084 4.074706247209553 10.46934467427235 0.37951693809298515 -0.4264326288079172 -0.7496413792274768
P 6.6684130577701595 7.842774043954212 10.38776092072882 -1.3702558029605625 -2.2241456451861694 -0.03991200570358933
P 2.6368371789696634 8.507800144259772 5.69591106806649 -1.275065336399643 -0.1699892568393653 1.177814130654952
P 6.771839029370719 3.9460937338554256 1.348350014967028 1.0380908717889799 0.43407266185167825 1.1892912780566163
Ni 5.167903557325764 2.886321553916847 0.41733158132698905 0.3634364875913547 -0.3001040460812961 -0.5993290319917485
Ni 1.2585394424114684 0.8678375138213391 7.126957498683989 0.043227186119751355 1.0705525918621113 -0.588198983516858
Ni 6.850105619399329 0.4035939614647089 9.158851425783588 0.24998347527582107 1.880532362968329 -0.3864835992188054
Ni 2.6336775445081266 1.1924949341108657 9.217444990927042 0.08981428985067112 0.6846886285051755 0.9592623915258511
Ni 6.268832465809173 2.068428898072469 2.6395903160463203 0.23869298996366636 -0.11554769006103327 0.3408300630457485
Ni 4.118687634642634 6.675954534866034 10.397327642033993 -0.1406941074196738 0.7934228951888013 0.17948176971083282
Ni 8.106291179403922 7.375311104736485 0.18305238138883384 -0.006972574663091217 -1.5746209661766366 0.3077427935734765
Ni 7.536045059550591 4.059170623324175 8.302560610507362 1.0267206822788253 -0.26990926766547063 -0.48434209953019164
Ni 3.0438506073000524 8.54347956951168 12.463845368659957 1.3622571010258022 -0.4378868933914458 0.6041004852384628
Ni 0.1815314112182374 4.724223883811353 10.137219109377314 -0.6433794853437436 -0.09456286027925005 0.1921915039680174
Ni 8.687519066024715 2.522230265936445 5.770100914834269 0.6256342455451805 -1.0063670583231377 -0.042354296596494805
Ni 3.999056088010124 2.4675296601582075 11.10553028305736 -0.9890159686391998 -0.3101390617197949 0.3706661725705745
Ni 1.5309107970685798 3.7107235999556223 12.705495841889181 -1.6212728617072207 -0.9059348837473042 0.2427494194212271
Ni 3.12632702547942 8.023787601042937 8.144826045083247 1.1001896980022536 1.1883690233526631 -0.5841209567927425
Ni 5.560250487582544 8.086636261306511 3.635740675884604 -0.24933478594822867 -0.13558532543819876 0.4205923679770563
Ni 2.9834463633820785 8.457970264384992 3.3790642848450285 0.28419945903589766 -0.3221522841305871 1.052117782195691
Ni 3.4447801549480555 4.06009406949918 9.36734837065136 1.4560391172749698 0.8741491066952752 -1.090131285324987
Ni 7.029697793650056 5.956580911143268 11.609024824548639 1.4034610860679377 0.9350122607292348 -0.7952743465752433
Ni 0.29528096785172064 9.216083360488605 0.5242793231439895 1.744588882859763 0.6105863500731226 0.21308068871220076
Ni 4.679862253835623 0.33490133545637135 1.7082088413119902 -0.5177906089966243 0.5237056889294787 -0.4764675818781213
Ni 5.768985536709164 5.805959597284855 0.3502893890216262 0.48823834926080434 0.08277383806412196 1.548217022261811
Ni 8.054080256940649 8.947233776047934 11.493413890134951 -0.42352651090471577 1.1973614566592605 0.2397473993701097
Ni -0.09382032070173327 4.813997337452035 5.683097799718602 0.7988960024882307 1.517647119894754 0.6303414212128629
Ni 7.964017094696044 8.616214535884133 2.6796597319870523 0.01719810904584135 1.1220235060478936 0.35528017703280745
P 8.630192976023423 1.517729055590077 3.6174283760984998 -0.04823029576129758 0.7618057825041525 -0.21411015841797962
P 1.9127105234637836 3.316077107655202 1.6496152761685359 -1.111165737397783 -0.10089831557897463 -0.8460546624519041
P 4.801349746212015 0.844510539169203 8.197377375156131 0.26318403312649513 -0.8050216557699942 0.6071464711536383
P 8.509773784123997 1.7228427471676577 12.45610652757766 -0.23406500427335172 1.1237628573365033 0.8315806372054452
P 6.326638385685712 7.7900470780402005 1.5038855110194875 -0.4807726370113784 -0.4062602676251003 -0.34928385024005654
P 1.8620748915343426 3.2918411722582572 6.186605921300689 -0.10709287442546071 -0.8998411121447406 -1.616160737291636
P 6.904244914757466 4.109100090531553 5.85781924806587 0.6475364449349106 -0.6423369030118422 0.46470041403986423
P 2.2937135511981985 8.594803259375439 10.472988665306069 0.6018618257159312 -1.7765325256458953 -2.160107692968654
