# total energy = -381174.007076911 ev
CRYSTAL
PRIMVEC
9.09222765077641 0.00000000000000 0.00000000000000

0.00000000000000 9.09222765077641 0.00000000000000

0.00000000000000 0.00000000000000 13.30739422336192

PRIMCOORD
 96 1
Ni 4.134835950380198 1.2794582597148898 5.625687591224602 2.228448386326581 -0.817899540173927 0.8235613664453946
Ni 4.264409285081712 3.671614233796241 6.254342387935851 -0.9829815895196619 -1.6556698511298518 -1.8393438045451613
Ni 6.4246134423382575 1.873126164844395 2.1768638457818135 0.6999756365712332 0.7970736045675111 -1.64394947736913
Ni 8.42004825207808 7.702225979862114 6.833679124013603 -2.0813036381855574 -0.31550341135550175 2.098960946256004
Ni 2.672269320196305 5.801977700259835 12.162412745269899 -0.11433284381732567 -0.33864899623402966 -1.2144076135082698
Ni 0.20269939315382202 4.6139326962525455 10.831912538579543 0.8000280592101447 1.3639028641593414 0.3845832968722989
Ni 1.402294253807756 3.6742509797834306 12.736773305213896 1.7036029273657047 0.08205367206864579 -0.5033502652015783
Ni 8.595564612549486 6.280692572575416 8.758753730919405 0.07153503192550906 -0.3867090849660501 1.5402836263473474
Ni 1.8916106634373484 4.790985643178554 6.48360199618546 0.09652949708731763 -1.9976101165206435 -0.07143167357842536
Ni 6.541775886444896 2.0699365222192423 6.595130896107054 -2.4296397798003637 0.2942630139194868 1.979429846067191
Ni 1.503245256206949 7.532464999424816 0.7881542891446089 -1.5847182025116384 0.28481241002954816 -1.1342606715440335
Ni 1.761682731861696 6.136898993998164 9.534388931961388 0.7044213310474127 -0.11870449052246008 1.7389519962889601
Ni 0.13489865237288162 5.453127113927111 -0.004606122472793938 0.9166664112321955 0.5789581816448803 1.6504222295776672
Ni 8.195524785155117 1.4574477060777284 9.059740103802604 1.3830910070520182 0.6507966037434212 -0.23839037112158296
Ni 7.428604484212172 3.76870103949007 9.59948837193959 0.21830825565972725 -0.7106341447263439 0.10098830418961963
Ni 4.115242200027117 2.2007009387287617 1.9420679801818606 -1.4409559976896023 1.3367602423062783 0.05800845819398397
Ni 5.292467453259388 8.0577957223484 4.840671029804748 -0.37923334541429526 0.34958749752340434 0.6951597032398286
Ni 8.458071947658864 1.0561440590550162 6.361200610569102 1.2172047166374327 -0.3532209805109336 0.7619860168357586
Ni 5.581554827958328 6.774445989245521 2.3816244469194148 -1.0673963056213165 -0.7289157166443512 0.4045170596817485
Ni 2.183543905356945 8.950834311526886 12.094291958079477 -1.8618828661879419 -0.32414360352900307 1.3483111803686716
Ni 4.500243483066964 0.4070926682987248 11.073907629947277 -1.3933733628146325 -0.4824096583941692 -0.5580962505942065
Ni 5.457745965518464 7.24621439971899 10.755647843179725 -0.4634557429994857 -0.06973474549197667 1.2234005610354994
Ni 6.888680736083624 1.50955526212112 4.486455119999471 -1.0972846085403167 -1.0266533193759997 -0.7322198413169195
Ni 4.897391982102968 0.6227575779274859 3.1981655796730046 -0.3715092372971601 -1.0658960669267064 0.8528048366915443
P 7.858985074914306 3.906602854620085 1.329011809041724 0.9570214180104742 -0.1252507762814101 -0.15363421252010961
Ni 8.275600033117803 0.14246429491060733 1.7165470958975357 0.6321242241448984 -0.09691156301708471 0.7784763011812981
P 4.885581178525867 2.8591600573227947 4.169286400536961 0.3309102328288753 -0.20223217603347107 -0.4226279103498463
Ni 4.760817632194089 5.570307742488833 4.765537407511158 -0.530760281783415 0.36181823526164136 0.19912731185590224
P 6.49479634673521 2.383100115449486 11.552720698320314 -0.7966997661678602 -0.23100976238679571 -1.1774917143185268
P 5.628488906530302 9.191605589067464 7.037801450777753 -0.5294947848074301 0.046380644147068516 0.27934290227454467
P 2.612169696143467 3.842575388269088 10.493438911540542 -2.267153001985631 0.3163197366092101 0.8507240429031157
Ni 6.952971877033339 5.740477873165523 0.20186018055169236 -1.215419342602236 0.9143351919958576 1.1946288882194458
Ni 3.086511207011331 6.94711648249627 3.174052992231533 1.0592420519452983 -0.8097918234651279 1.385624572107149
Ni 8.703071111006485 4.791012919861181 3.4024879354430797 2.071701082098787 0.6126838560320997 -0.49994226796129376
Ni 0.7046121748201468 6.97707537224727 11.649332889736447 1.4481422310253964 -1.629833349682722 0.52114075641578
Ni 1.8474133453555257 3.2021188802082805 2.159723178419573 1.1853693172943907 1.611904018897811 0.4675653942924851
Ni 0.3559570713795768 2.157058246527003 11.375226778358517 -0.9539034412067829 -1.6601373999829023 -0.7405448162428472
Ni 4.876843547857973 1.2878867546463542 13.298265635517655 0.4115076320669687 0.3707412487828841 -1.1040728351067437
Ni 1.7272686506151012 2.054134230751189 6.8096729156343745 0.6058328945485373 -0.8907355502990466 1.335941860170041
Ni 0.610168479672787 3.2129113543006738 5.199531249438497 -2.293756463505772 0.9486596763093402 -0.8452398798600926
Ni 7.346447116142362 1.329701909112164 13.176037002224597 -0.3866764319559018 0.23138797166182087 0.39338598276559344
Ni 4.2390056013292705 4.452536565153917 2.708094515157424 -0.6153146087867274 -0.33287249876156866 -0.5984661697708209
Ni 5.855658211667998 3.6786243412311483 0.47023273324161907 0.5872461326852854 -1.342873811403184 -0.208842225150821
Ni 1.141210939938277 8.585408594385036 6.10136020420462 2.4352758950402187 1.8922581360456896 -1.0116311349355545
Ni 6.505261500636091 4.487196136544147 2.7865149777074585 -0.6949506725528161 0.7461086834838698 0.2931039606143791
Ni 8.160510616890749 5.359731752615348 6.731238814743025 -0.20098107723518935 -0.39105399219830717 -0.7690310966079982
Ni 4.080664458684765 7.861294500709982 12.875608892112478 0.7105017329135377 -0.9637458812185016 -0.8831636514890596
Ni 2.636718710506956 1.6008503188706735 0.22606823638235535 -1.5558413715762882 0.30828606767145617 1.6042004796059663
Ni 2.714411794853628 1.8207640264298266 11.262579534449252 1.602622336485569 2.5663839014333543 0.9116396474415653
Ni 5.470011380472666 3.5337578798039355 8.221401264739743 0.6303028546654436 -0.020685810484125662 0.7046463025740252
Ni 8.080653582389072 6.856530619494995 2.1330420366974767 -0.7450267632736007 -0.628628295176498 -0.17198263312031026
Ni 3.706082868408088 3.868060902069407 0.13476499662801375 -1.634087754083702 -0.0005556153931538818 0.0039615557509093055
Ni 6.0766084331669425 7.022972936879452 6.99406056251854 0.06801159215328287 0.690997858552655 -0.8884164152475666
Ni 6.423831510769642 5.146891798083897 11.287730454276023 -0.15565355694298352 -0.24263114867580796 0.15813929947931474
Ni 3.9995799734649147 5.472093500579792 7.613439468691407 -0.328018513103377 0.9777496516967612 -0.6703025349868327
Ni 7.981193705306772 3.6435465273739847 12.421441215714879 -0.5052958189637233 -0.009218947495106704 0.6671567902689994
P 2.335684148817784 6.696816550491643 5.474369285133563 4.516076625447429 0.4644569305704904 -0.5606272445461764
Ni 0.8822888485555398 7.804177127290931 2.983038929914732 0.026690879027625004 -0.24409539192616025 1.3195811594238307
P 0.6776046221292918 0.9667583700892893 4.5714092572612115 0.455040522352597 1.0871966281766954 -0.8300369468674093
Ni 3.0658172971256636 3.338938720260794 8.445817443377711 0.5031306929916044 0.8518077628855975 -0.432028634838456
P 4.7986049298587785 5.677759687580579 12.745422741274632 0.650274412691364 0.31860159066485133 0.041871443422805306
P 6.016136027784881 4.934906512941397 6.539772868717386 0.30503850726843595 -0.5176155168713409 -0.05870805536416985
P 1.418469326605033 5.445153230372748 2.088901999649169 -0.9866238142579394 1.0350975934886109 -0.987118494506171
Ni 6.702962896310057 9.19387864595297 11.209017221999135 2.6185032478364128 -1.4896004981701831 3.3004986457801415
Ni 3.40998538627424 8.167838952289626 6.725729834075308 0.8384243996001561 -0.07593958875110791 -1.1012150539429744
Ni 8.117822608580903 8.536074167741965 4.703192003255438 0.2586599200038964 -0.3769386358428476 -1.5679615518785897
Ni 2.5584528158251354 2.375280799763338 4.592355021849793 0.5276309921258139 0.6351151884524223 -2.1050230932896845
Ni 8.48287554439353 2.364261019982394 3.0872085808638046 1.3910238887458495 0.25786004981042043 0.47158814229863305
Ni 0.27135207565545094 2.293296184016826 0.9018007688607426 -0.7944531362255286 -0.22266627551810686 -0.022883846576708975
Ni 6.11755982601626 0.941882035534287 9.436060127985316 -3.4395436476321666 3.9985716660120225 -3.259743061129334
Ni 3.9710940245757254 5.371287973821271 9.947902531350296 0.5057107950139549 0.7521338066320273 0.5545077619119999
Ni 1.6629047718450491 0.8539056418375751 2.5896991649960865 -0.4827145912290977 0.8560961058483063 -0.7803586058056754
Ni 0.4551823689912917 6.5215820490740395 5.0804303424198975 -3.2131790973268664 -1.264854714415228 -1.332506095015615
Ni 3.020792586337516 8.914610876999427 4.174010721967802 -1.4409027758541635 0.13361483197538923 1.4514052180473842
Ni 1.7904232631220627 1.5890031463834047 9.37073429154132 -1.2205628344763881 -0.13538066562656043 -1.6489849829105085
Ni 3.253944577197869 6.141126879805209 1.1283327088477417 1.486799281275962 -1.0738909122067248 -0.6273188323364551
Ni 6.99622360345079 6.406492632846986 4.599514241816389 0.7936576369074266 -0.7999812651326094 -0.23473220554370539
Ni 3.424496581431325 8.613558130855171 1.602596026558744 0.5879228470373359 1.1272806406817746 0.18688860369786522
Ni 3.918222721418803 1.202792597080467 8.011609934103136 0.5038554869727709 -0.3479466194858717 0.5240412178920265
Ni 0.1556171112729123 8.621504737726907 10.367923437991038 0.26783875828968706 2.6667911363085235 -1.7769521296818171
Ni 1.567436382653702 6.766272076685233 7.490985348155307 -0.6888666711422653 0.8862278922366801 0.33095574135483
Ni 8.077307642653604 7.728657085326804 12.955559576557837 -0.38896034289407205 1.1165156888557868 0.07005176251176322
Ni 4.757935396063265 3.2761932579932243 10.639767403156513 0.8252906904316755 -1.0457039082495474 -0.0397220011799703
Ni 7.217292023907782 3.7895222405613254 4.873034813740616 -0.801448079486123 0.326504904672328 1.5821866943390364
Ni 6.100057287997846 5.7956676943456635 9.038581581089538 1.0727565414919655 -0.9525826655128303 -0.9585725645476784
Ni 4.466329474335181 7.5157807618851855 8.640757529547162 -1.0564462343677161 1.5571377217902087 1.7177005431093517
Ni 2.24215240409289 4.95102703237342 3.9455494112963834 -0.5768365073161872 -1.2331540408778374 1.9088175830662675
Ni 8.463309070723074 3.169932394709484 7.274806727670421 -0.4639730489555365 0.27401377675214744 0.12737630726484517
P 7.852311379898453 7.017426678078811 10.74061111727071 -1.811551207812925 -0.7953789904739076 0.231524240129369
Ni 0.8120477539023176 4.0412223756074255 8.742997809811815 0.3517731923208135 -0.2589383704762637 -0.4635652719941564
P 2.7388426102590713 7.811814598426239 10.550488093253028 1.4726175904589414 -1.6106014980363035 -1.5792818619874156
Ni 5.950899295170794 8.527136508068146 0.8096965038599478 1.249284885001429 -0.17837825223400894 0.5738123757778828
P 6.65159181069757 8.506233476949012 3.111388450789087 0.5159401860514469 -0.28946893496495313 -0.49465633697200617
P 0.2731614289363155 0.5704390822051194 13.022242882573861 0.8899014844335256 -1.585630944133895 -0.744001664443196
P 0.6517636022320797 0.2257791035465187 8.252407579103584 -0.24116973363893301 -0.8369326455459779 -1.455855540509254
Ni 6.989531723979854 8.13497964195272 8.98639037655276 0.8948662846379684 -1.3730441643389772 -0.660289630835521
