# total energy = -340859.2231732826 ev
CRYSTAL
PRIMVEC
9.38094698886434 0.00000000000000 0.00000000000000

0.00000000000000 9.38094698886434 0.00000000000000

0.00000000000000 0.00000000000000 13.72996415885460

PRIMCOORD
 96 1
Ni 5.679337979661513 7.719412557695959 11.931901549579928 -1.4087683572134642 0.453456979915561 0.8009063480500399
Ni 1.3933802239352104 7.65660711648595 10.501610112869658 1.3772672012813894 1.8566421866142928 0.9245036478884271
Ni 6.986685537228243 3.411634718884595 7.081132913195735 -1.3651745317829134 2.002845139667338 0.5242674749702197
Ni 3.0439672569960403 7.541258990254693 4.591066495315054 -0.022556030923645023 -0.5825209592954742 1.3447967394575098
Ni 6.723868921703282 1.2732759574958166 7.96873374264217 0.586317450223429 -0.5120706757937117 1.2159271354765897
Ni 7.864704667249448 2.1695973154185513 2.774619626061012 -0.20979918974745157 0.27003628016163816 1.0553272902719244
Ni 0.2917587136909223 3.467113640365699 4.211721630406601 -0.14064679912150618 1.1735815806308434 -0.19744683882968575
Ni 6.658924624541685 3.5232679900420414 11.769627111389774 -1.4252925801207323 0.043010699233571086 1.0852778138874277
Ni 5.07028936649966 0.9946524460128485 6.33975572135539 -0.6344315321218365 -0.1842064288800118 0.26172750318562665
Ni 3.992662442891214 5.38859428445288 10.587889498148346 -1.8715219319396028 -3.6054859880956682 -0.3345113199165723
Ni 3.2121582585575412 0.44485952365714004 3.6760057573533187 0.2885752195060901 0.8650162911560715 -0.3511224461106921
Ni 5.246904458607328 6.301013347695462 5.353436370701294 -0.022027412113684645 0.46229823235627476 0.34699196888208633
Ni 8.552778379254187 4.438426289854201 12.986253405199404 -0.07654379799401011 3.4780639151945523 0.32737753708526846
Ni 2.164343985011142 0.06738521961161091 6.105852123060208 0.7974083621991106 0.9316037492683182 1.6202626752751514
Ni 4.64191779556406 3.144212058305996 8.177978583242858 -1.0792416349956768 0.09617005686536985 -1.1075289119761442
Ni 0.8326115934068791 1.0677675481473978 8.500811684388323 -0.04017143001256307 0.30666730112111057 -1.6639485461988763
Ni 2.9203451353731134 5.129848999993663 5.57715319847968 1.1950659757568645 2.732065274925985 -2.0478330172319374
Ni 7.187841187096236 0.5186106540088723 0.3118967929508963 -0.0643966211085149 0.2752520200346227 -0.7663023848229255
Ni 8.248610548665193 5.525462303460204 6.4162592216027186 -0.8980979042013888 -0.24307260708860073 1.354644578785867
Ni 1.966068285920067 4.67342839706136 1.930281848709023 -1.5853944026430569 -0.020095485198294422 0.7966285466102926
Ni 1.341906966889756 2.072288750568451 2.5607340309022066 2.023932042244624 -1.4375138047772724 2.491952778906973
Ni 0.31048589849862074 7.624467991529192 6.036447185525891 -1.154873976919011 -0.2616987068302203 -1.7560079233299821
Ni 8.012857965685546 7.899048314787887 12.264208469258325 1.4665253615182743 2.0677811782190907 -1.296392380012193
Ni 6.57062176896143 5.5155466423162185 0.9726278582797853 -0.4762019869215605 -0.4806242843589723 -1.54297582846753
P 4.9820052728137165 8.665058935765405 4.97094701230612 0.6740476038515617 -0.20299090857636654 0.5801043794341816
P 2.2649921670488093 7.230890353595523 6.729522818554256 0.7987124257225148 -0.6917355080496281 0.8003437906783506
P 6.624534072267467 8.422167451999975 8.628459170435928 1.8446497901391068 0.8797723664193235 0.047176143465170364
P 3.082644902120591 5.9464041642481815 3.14904981275439 0.8898922284621448 0.44934552885034873 0.9434128260881042
P 3.357272130115065 1.4249283492211342 7.716802778197136 -0.7256753553301825 -1.2581364218547881 0.23825770219846065
P 5.700351301291151 5.24148227115111 8.040033631502016 0.004394272412953723 -0.25061108155749096 0.24600263625120214
P 7.054209594857762 6.212100730550061 12.756523390293967 -1.413146945897134 -3.0113742386388007 -0.5680443629458539
P 6.948120463469564 1.9595766704880544 5.483487255410288 -0.07579072187806947 0.036718952687588374 -0.3079379403034181
Ni 2.948957024199182 6.932791995816517 12.21624931501754 0.18678190291667188 -0.7052319998741662 -0.5762808919230334
Ni 6.18800107730607 5.775305069068294 10.672369617762497 1.4697829492236234 -0.4314161980654377 -0.32476169672897615
Ni 6.893476446285352 7.978176604049489 6.619064980075468 -0.35881415832799496 -0.55535982549965 -2.0055725659008297
Ni 1.052317128181321 4.879011853987027 6.634044476494309 -2.8858907775212943 1.1434508226837339 0.5136850714686831
Ni 8.436632872514663 2.3652932540417018 12.650061835303672 1.1276979307248514 -3.3897609197820846 -0.8812952308217532
Ni 8.563885420686995 4.3511741003554265 10.264274026010066 -1.1406727457179646 -0.40535575353296 0.27013938139840576
Ni 8.975624572314851 2.6617687079627053 6.366543015959599 1.4812778372371005 -0.7051427825944694 0.10597058789555942
Ni 1.2821221906640075 3.5784185783726827 8.840545499930194 -0.43838517318410314 -0.04240160489466246 -2.1225004241388414
Ni 4.663062450453883 2.1239777693984956 10.729966757111445 -0.5417098388163832 2.2179531432222124 -0.7700094013608675
Ni 1.753542928098895 8.950962062241496 13.157534490754122 0.5611730897473175 -2.5583425191861164 2.9464304867775644
Ni 3.119042977086212 3.1448968674483906 0.7672151345923587 0.6112697492933925 -1.0778871778503112 -0.9766862434292535
Ni 2.493615230189829 3.2324680091504714 6.63787471721814 0.8720549431704079 -2.8950313063699817 0.21521727543922936
Ni 8.60224411360824 7.799347608412984 3.4232924219154657 -0.3771690066860988 -1.9109104610395538 0.8994145661302831
Ni 5.215365714268561 1.5744887897306443 3.973589101133456 2.3168472838869647 -0.7433899990011262 1.593352738258185
Ni 3.9061794910592393 0.2184090878774707 0.2873918827897634 -0.1916662275921667 0.742715855752237 0.38897988327809785
Ni 2.840372560867464 5.414382508184966 8.006066159944538 1.0676246195820387 0.7559516377162206 1.1124695438108714
Ni 2.689592597227662 1.5986072048689466 12.28117860266369 0.21502495692276516 1.617436775790582 0.10715766622512514
Ni 5.4451707767512465 9.346284556346198 10.093569868705448 -0.42764130440403775 -0.37361625633783396 -0.8507960337916315
Ni 7.252841769940769 3.0797837132379837 0.6708643644468951 0.17618227302395462 0.8543228159979673 0.3765480852726482
Ni 4.136659981737164 7.178760430249143 0.4539327757465083 0.915437681031417 0.8510832260147472 1.37699286457408
Ni 6.415498426788359 4.1914540940758735 4.73999559808096 1.5137868656083995 -0.39085036082793334 -1.101492733084393
Ni 6.423763041232873 3.528324320559173 9.485442464554323 0.9690765494027955 -0.077861231253853 -0.09724657775900025
Ni 4.771431152001011 7.933945438208535 2.993996827684991 0.1684543082520776 -1.1352104370518128 -0.9894772245463347
Ni 8.754862742890634 9.443705692562173 1.875622822009361 2.46948956480745 0.2227593494525454 -0.6945760628222167
P 8.959526866995004 6.81705925075186 10.095010782188623 -2.375501603195064 -0.16208645705252084 1.7610010056691994
P 9.393142387390858 3.3555460358383455 1.643819617782428 -1.5268221015258028 1.5651621347565818 -0.3352515405167065
P 4.2566610577578405 7.313574021829282 10.274873558201728 0.13028756737436917 2.335270266478843 -0.704380193396832
P 2.202186725838801 -0.016653057391487317 1.7029552324649753 -0.1456473376598911 2.1529610546215436 0.058958737922395234
P 2.6320592483193748 3.4916729600203373 10.419395491993704 0.6044738094174815 -0.042460226046739775 1.6754354637925533
P 8.495986125171232 0.35828745282718244 4.95305754607946 0.41150866050823326 -1.362728384235266 0.1280447940867795
P 2.400443663035563 5.8552776435739435 0.2266418071016535 -0.39757096738121855 -0.7849179430415837 -0.7866482954691292
P 4.695201575410639 2.5612706210795353 13.120106387790761 0.2534596067498796 1.2431098665389688 -0.029122371287253073
Ni 1.159841544484401 5.4670846693078685 10.163963558070016 2.5925060524417027 -1.289735793927624 0.4847290505559652
Ni 6.862857034767881 9.377279205749913 3.2292465918970708 -1.0227940935309094 -0.4792718840961359 0.20608343145876123
Ni 0.4600604104288649 7.409747492073496 8.273456925302806 1.1624003672030434 -0.376429557416913 -0.34604040360209437
Ni 7.735350786914153 6.006076369108057 8.573003701322714 -1.2683735262017641 0.40521228597656017 0.3964026581047302
Ni 1.4170764964514886 3.780850037053904 12.540880743732826 0.5410590926062617 0.9081064374773263 -0.07938229588406974
Ni 4.874096237677237 7.522534619731141 7.81817141697639 -0.5328433895646888 -1.5602261309075454 -0.125082626134662
Ni 1.5298261003205096 7.444203710977806 1.9548449207425236 -0.6158421991554233 -1.663240207277942 -0.0607507968258115
Ni 8.639974283070025 9.265402029966408 7.410130234717464 -0.39041481595241145 0.37913435794258576 -0.7154701326624064
Ni 0.46687848282190964 2.3556777832067115 10.768960540155156 0.10557618067061816 -0.5709448244221006 -0.37839722266624515
Ni 2.5553137196354196 1.3297023546396856 9.753849186489596 1.5840443163730655 0.9901583097737592 0.6251382797453685
Ni 3.006265230375723 8.489653985840873 8.910266575383671 -0.7614643400043337 0.15526840568942293 -1.7716682555750585
Ni 5.4232287413531575 0.784091458526161 12.293878528923601 -1.005961338244287 -0.9651679583770088 1.8505389019300325
Ni 1.1946917631692677 8.853437735606807 4.121502247322357 -2.035014268200715 0.9502815281834793 -1.5552466754150829
Ni 5.484064183660387 2.103349066602258 1.6821126440735787 -1.5185737454740813 -3.0402492698019383 -1.5694761887509034
Ni 7.372936655433007 0.5924903033366429 11.488588944108827 1.6666173512802913 0.6721408737471521 -1.0774464907684669
Ni 3.845709905691096 3.0809281887910265 3.329008274428488 -1.9266600105643275 1.9364075768693942 -0.3914067475520356
Ni 8.956965868421392 9.099987788763109 9.870005012270992 -0.9051162445007508 -0.08384367408953303 0.6624796965083042
Ni 6.715463593051427 6.127916110771327 3.03949817377088 -0.4780498387635767 0.2921662792914581 2.110607272245681
Ni 0.9092436126302459 1.8581123460478073 0.4150234212272023 -0.005815578240512565 -1.196448457926688 -2.275910436463287
Ni 0.5079107456826383 6.546296972985694 12.47061088287072 0.7448017917469882 -0.9231671884651907 1.0001377895839743
Ni 1.0217633832939428 5.956132206449045 4.193625783342508 0.3468919529691123 0.3712318152660574 -0.39337724101484506
Ni 8.83472274603041 5.578567845310817 1.8398701562080786 0.85078883470278 0.12546443495411297 -0.03955076570942866
Ni 4.692265338950785 5.2286397544944245 13.014825894047418 0.300058023334709 -0.8950735155527682 -0.41179173896629084
Ni 3.1189679295089636 8.983823520129272 11.2116146031359 1.9232224456376878 0.7589706270482025 0.3909647749186106
P 5.70366277563725 8.772536447332703 1.240108680730752 -0.7273614847833538 -0.16616756910042996 0.33125373221122306
P 0.6722030256060689 0.4768476153646843 11.836410074193962 -2.529779105726127 1.7270393040117742 -2.2968181331502313
P 8.497074315041338 7.569045355731026 0.5921929273117947 1.1285533367466114 -0.2138900719873736 1.7390640963867918
P 1.8987506091279802 2.0205153032140015 4.783643269008806 -0.07605657394494643 -0.16714587385329924 -0.3304649177613405
P 5.866722399104371 3.9025678264041455 2.4263181914814855 0.607905717917166 2.217000806611272 1.217410662000652
P 4.493398640188876 3.8055219280744157 5.4654458178397 -0.32828693627341526 -0.6695376317963502 0.19141965879899936
P 8.653876846755347 2.570998663280398 8.64807848331817 -1.0182627813194591 0.46787366956152326 0.25178736125377926
P 8.312363465537967 5.684441214914426 4.465039098841307 -0.3789906332758699 0.31367715678004043 -2.989274321415968
