# total energy = -381160.40125694865 ev
CRYSTAL
PRIMVEC
9.33335580136880 0.00000000000000 0.00000000000000

0.00000000000000 9.33335580136880 0.00000000000000

0.00000000000000 0.00000000000000 13.66030964537495

PRIMCOORD
 96 1
Ni 3.1775035819099062 2.5449634059254675 6.306254380823077 1.803057054298985 0.6570893787306684 2.192013540538315
Ni 2.855698814044601 4.449238616424331 8.812429294194484 0.9170819015030593 -1.7266623802883296 1.0597048505143298
Ni 5.393372869243458 8.439565471162732 3.165476619878779 1.3154594239459731 -0.6795276531295265 1.1291436620324427
Ni 6.951940588175544 7.808583965564138 5.393923537224085 -0.33408605945369557 0.9581820139774787 2.532592663915522
Ni 8.941177334736297 8.245963675871975 8.81467023287497 0.6354792566600604 -1.1736250322742692 1.9007101234677846
Ni 8.167507488665972 6.920925847503936 0.8068377918797432 -0.08494642023540855 1.9404434375016644 2.4319144347671537
Ni 3.970428140590983 4.803682128836316 6.316977473076346 -0.06587449120562203 0.066150370574828 0.2755307276173061
Ni 0.622333218296063 5.613892062095732 1.6902856332270464 -0.7450439896647814 0.11294239122770226 -2.526328171063049
Ni 3.3089638955901988 0.9504902679853515 4.900922627530637 1.3501099241403072 -2.392879175241563 -1.7773696768352099
Ni 0.5033842678027373 2.932334996907852 11.62245066591382 -1.5417779515046866 -0.8376168160971962 -1.219860409092725
Ni 2.3108081805359615 4.794199439542799 2.708115128558649 1.2622699844071874 -1.4790849433508397 0.738908823301321
Ni 1.770929558986592 7.350008204679946 9.560154278357215 0.26600016241905156 -1.8441432828163338 -0.7689580772782176
Ni 6.562422325404275 2.678570391394647 10.056405995807486 -0.27726287981706443 -1.2941362369881648 1.018681871134749
Ni 5.8413552715172745 3.7253155557225517 13.214314197627099 0.12456763417145643 -1.181440671663946 -0.2026715775637348
Ni 7.71912375210119 3.087959368246524 2.6570803401167717 -0.05391809017469423 -2.9899716045933085 1.641726244465566
Ni 4.083725744266175 6.265117615999087 2.6865457437581406 0.7302562898326456 0.7191709785527615 1.6119685535871593
Ni 4.6107056683710175 8.035235173048145 7.147197187414865 -0.01593878271744352 0.551155043389683 -1.6978310578789342
Ni 8.111535355109655 5.995168971868798 7.451534580267556 0.35641943284357325 1.1877840973834706 0.9393186014140725
Ni 6.517043550458332 5.85238729784103 13.292437184038043 -0.8507857493789864 0.9963035034395485 -1.397539064156548
Ni 3.0748553369787124 3.643583360699596 11.414705103540982 -0.22419222524433002 -3.4930801860977265 -1.9974537934484373
Ni 1.2940604211188456 0.8460640188116235 6.163299106381077 0.31964417299675274 1.2340732102579972 -2.8267392068618022
Ni 8.401672047411083 4.437581255275116 5.68768810484873 -0.6938926636019469 -1.869723188167967 2.649210704222599
Ni 7.790383922136622 4.262767504814919 11.804091765998239 -0.04163747303512829 -0.3713076628093154 -0.2735813172004191
Ni 1.8581964338826333 5.626930759874317 11.308414049917603 -0.6210440550713369 0.3805926876556671 -0.5232799142459698
P 0.4411755860319251 6.936913885653339 3.239966130953143 0.4618999684765916 0.5861364445608744 0.3794539460655336
Ni 5.161812316711824 6.61660245468465 4.978746013226697 -1.432807400440539 -0.6600361200638181 -0.1744300662195383
P 3.3528120002171082 4.349073044083763 0.47573513516187815 0.9635720746447987 -0.39381792809668953 1.0987784194770238
Ni 3.9325347168393328 3.7150488645583115 4.2848838242538125 1.5986062733476403 0.8853462609626752 -0.5457102182250279
P 6.1722413943851295 6.408580624985937 1.7700484902175884 1.0499590839814754 0.4617945532469789 0.8582789724322379
P 5.413224916612857 1.6725373242107562 7.0991808061752755 -0.5030211639969338 -0.28790570424289125 -0.29271752380923777
P 6.396745930080249 7.45897513135495 10.662527175419653 -1.2024321863139484 -1.628445725306576 -1.76954760968763
Ni 5.209095096200951 4.646779087779915 10.389689857729971 -0.560048746334887 0.4920672360885912 0.5945694058195761
Ni 7.6423009021258625 8.422812097853813 11.834854506068544 2.1047649545322913 -1.6507983819701635 0.7824041754807946
Ni 5.528837192477804 6.276998977682794 8.297804866238025 0.04820689872252988 0.2511314728373353 1.099344319282823
Ni 1.098171953705144 3.1102287547173213 6.768219083127028 -1.5188858773978613 1.3986114712851203 0.06426678039886996
Ni 2.3651563102172073 6.630397154267147 5.541591222910472 0.07495742734349671 0.5050569634800398 -0.5410441802079263
Ni 6.561106322264131 4.788674093025318 3.7091977839302555 0.06493423877953979 1.5520626212601463 0.6393811628176278
Ni 5.669724195317991 0.363654601057429 5.394374338299751 -0.32062170641867366 0.8386658261870008 0.035020224828926784
Ni 7.6306342076210445 0.2761077254932722 3.6298857280153793 -0.6598304318109153 0.6054634270242605 -1.300652697950444
Ni 2.174569188786495 7.574419406819028 2.230988390076236 1.1205680045482898 0.2926429618175605 -0.6904838950307141
Ni 7.14955572637596 2.8188600594761866 7.360175028939225 1.450910537799153 0.2596441382940367 -0.36869465066650053
Ni 1.7820735855775947 0.815868746762033 1.2241153208879985 0.8046527024663497 0.524096239499678 0.06245723799395695
Ni 8.740864856766368 2.791839995003027 8.986516909588703 -0.10304827204244188 2.414324232489216 0.76946664148352
Ni 6.229744198260478 1.4608288190485208 1.3004547030430464 -0.9242645352944275 0.5520155916177655 0.4647634060673157
Ni 3.3218625930347256 8.241763665850241 11.233159203683725 -0.5874261099065754 -1.1191001617535115 1.0542908785876102
Ni 0.6477199455385477 3.0284685596275547 1.6400432466759363 -0.3071748368851484 -0.3499477090763005 0.2736538223095674
Ni 7.187374483282779 4.672268481934043 9.237470308394027 1.8985588814527365 1.238959334705705 -0.3780598939314844
Ni 1.9945287591881384 6.48316346961634 13.575779193459864 1.0631033346729175 -0.7709416833671496 -0.6151881105111922
Ni 1.8389417212718813 8.402474715993014 7.316720791918799 0.09001509300756756 -2.074442906509982 0.5875420666591494
Ni 2.996389816417106 6.2966830246513235 7.724017230444292 0.16117448676121277 1.803581045123255 0.6509740098615499
Ni 3.6243753148668634 8.858437137308126 9.078464462320078 1.0707135429200076 -0.8951547624126648 -0.4328591011595513
Ni 8.812769028338465 6.37042586727738 12.505657706686543 1.0000112913084391 -1.1232843750381882 -1.003538330625091
Ni 7.888953490668929 4.646517753823007 1.2161101017865723 -0.32221450482709024 -0.14178399804974293 -1.5278651980783364
Ni 5.309895336722581 3.7502542818960514 8.261987180772673 -1.4473945542260944 0.6536171039113517 -1.2686908003318669
Ni 9.146053823596512 6.052083774341105 10.046255971588293 -1.4107270236017317 0.7518849238460147 0.9553905672752708
Ni 3.690763473277082 2.645894313425552 2.1136186433510824 -0.4648662501937671 -1.1401693237189847 -0.2075492173710103
P 5.142146936454501 1.4255020680879311 3.4484359617208407 0.45912857637904153 0.5563437866794742 -0.5556794136225979
Ni 2.0288848411659273 2.609727560460615 3.9846848412758713 -2.6340265402829925 0.05535327995932403 -0.29751545941851343
P 3.7373835845183354 6.277474978818591 9.94568906495676 -0.33031090868197954 -0.08650270897893489 0.1750784984368146
Ni 4.198927352484553 2.026280834952452 13.42496990027722 -0.46698123965424093 1.2859752984439272 0.23578764339141328
P 4.715444584957474 1.580333104200276 11.117155860218976 -0.45565964399383463 0.7490585101408133 1.7168232827107204
P 8.922239956216076 8.636256607158366 6.729041389644288 0.01458432557207811 -2.717255206496346 -2.618095470875033
P 0.12392082902349917 1.4205273895510764 3.8746781787865983 0.6301581015574631 0.1398171041313592 -0.7618109247104752
Ni 4.80010745364004 9.283552818352499 12.762362319214962 -1.1184404166823254 -0.3973781346441221 -1.6001862162402505
Ni 7.795843935164876 7.292981401940394 3.5098251748696345 -2.4449519846774024 -0.6211407285502013 -4.2518168427582514
Ni 1.4871208817845796 0.20213714899048243 9.931809431838266 -0.3958082190538409 1.4344683330827295 -0.024015131967674772
Ni 5.214601776007226 4.396729157797045 1.862514977520537 0.36853318538797175 -0.5503569729684199 -0.8424605173427426
Ni 1.6194305308248231 2.56022344233777 9.644547413062828 0.9364636484637807 -0.13258870470372003 -0.8934652905253838
Ni 6.356453833938409 8.482834907742204 0.38266664642248094 2.244858966474121 -0.39462782559249454 1.191424522349535
Ni 1.4017020112981016 8.737495515393377 4.140754413676848 -0.016991649461990093 0.25832619081356156 0.6299470139879216
Ni 8.373261312952948 0.5557322593780769 1.015866690648112 0.5795029984047568 0.6534013883561198 -0.10296856784444201
Ni 6.716833360514446 0.9540556098260241 12.216510350079126 0.5881426763576258 4.079771988941438 1.649954031691997
Ni 8.146414105001261 1.416131379061661 5.582476920468717 -0.11711246344499186 0.31360388033994374 0.48175608397057035
Ni 6.0778718358745545 0.22003572503199456 10.133149512260182 0.013155306435035409 -1.0917356536976295 -1.4851668878788615
Ni 6.281786989107571 5.187749711934936 6.367931061324469 0.11643420643104464 -0.7754267157216969 -0.39537730216400935
Ni 6.998308698815494 8.616721893879497 7.669839901170596 -1.8944147773773763 0.4982566527287548 0.3167884487155125
Ni 8.58309381363881 1.028358453788311 10.195030593249298 -0.9504291095049373 -1.4090136404550508 0.5993783971724451
Ni 6.1880147653556445 2.9733644281423968 5.1563840370926215 -0.5144530599829591 -0.9404334317448061 -0.3143692977510586
Ni 9.147127159490955 4.7797607384236365 3.7690292600287654 0.8958427896186247 0.39508831016868085 -2.570556544753805
Ni 4.290888905249333 9.223511341752902 1.451448796666647 -1.064080353874206 2.3743489776478595 0.21415412428203762
Ni 9.081103001949286 1.0215824376199125 7.715725477325827 -0.4015939724976826 1.8620625862989157 2.4189930987197954
Ni 8.88028652277675 6.763341471488453 5.289326487642807 3.1352211925941487 -0.34576992354952707 1.8251767690161598
Ni 0.6973015305129049 8.068489919064678 11.484563403564714 0.30722111674205155 -1.0730792149387067 0.48832139589291385
Ni 4.033437624272606 5.274083251270591 12.296191073540356 1.4349951521204771 2.609240334477248 1.7446336200547694
Ni 4.499312069239012 7.049744821548337 0.5084774799557608 -0.7738334030926479 -1.0181131431154724 -0.9554566446265158
Ni 0.7407473675132878 8.312482501260646 0.43568010625237547 -1.0299186203908328 -0.14353543352321085 -0.9800641587625508
Ni 9.324059581673227 0.6888996437983149 12.338264907266971 0.2645541740011444 1.3230781168334955 1.5421057671577507
Ni 2.400763061845913 1.2944804221210193 12.009351855773769 0.21071861623792743 -0.6477202788109425 -0.26692293134363704
P 3.001364494953961 8.523248337506892 13.625420511910084 -2.7677791833878267 0.2281697218348393 -0.6848706626089948
Ni 1.5436436833215235 3.96792680128915 13.136914546275452 -0.16404640899236908 1.1344347352280526 2.281495386750232
P 1.5712517491977254 4.712467244519844 5.088738675682564 0.11158459164822719 -1.7817613781450026 0.41041697010595124
Ni 4.310862286241582 1.7821202523556139 9.018905520205198 -0.5552628949104695 0.5172115965647028 -0.3899291345652446
P 3.6427713587620607 8.059548564396186 4.488736444004283 -0.487399912519909 0.6658493843114855 -0.6113275991145214
P 8.38323867009347 2.625883599010887 13.660855529795679 -0.12642217088169194 0.17310646231210833 -0.2155219511638417
P 2.435651145093122 0.9993690512827385 8.097790122311858 -0.49621108305363576 1.6071186816940257 -0.5603541933904478
Ni 0.5810760531847838 4.703917890786714 8.533704495789891 0.10323879078669318 -0.0896062876049231 -0.7071202180358144
