# total energy = -340888.4000952698 ev
CRYSTAL
PRIMVEC
9.11418130751266 0.00000000000000 0.00000000000000
0.00000000000000 9.11418130751266 0.00000000000000
0.00000000000000 0.00000000000000 13.33952561911380
PRIMCOORD
 96 1
Ni 6.540919964127301 1.9878667881012748 11.117680949115027 -0.32036639587475796 -0.1321125363982499 2.241599836106875
Ni 4.996439878459011 0.45982504021682147 5.905675183673319 -1.2694225362915685 -0.7203971376503786 -0.08030403636739074
Ni 3.0786338036779615 2.0029598726932214 4.457575744709689 -0.2985261600712149 -2.0130989561848622 0.5849187701036894
Ni 3.160388011884339 4.420213980417559 4.572509219310102 0.7748186498240527 0.6117436036060174 0.3650290288894552
Ni 3.8783303183316957 2.676853339869517 2.166392641399387 0.40988140931745537 -0.13395061804825317 1.0581213080772938
Ni 5.265426717566572 4.622120443560913 2.708310937375014 -0.40184902593128213 -0.15687328828269756 -1.7627501271498223
Ni 5.1078880900473695 4.99075262919248 11.432841143205234 0.40226271642993305 -0.8797312287687429 0.04495265345129032
Ni 5.483374140179628 8.019304005435208 12.062240087634292 1.128769052301843 -0.11416109412615179 1.64228185985872
Ni 1.993371753737468 6.696079790270598 0.2531400117041692 0.3210654788243116 1.1113963653513506 -0.3910923016354103
Ni 2.8555824394154548 1.8337824353769692 0.15290862330862875 -0.2568627188941576 -0.5858505378893395 0.1829908113053558
Ni 8.246283581931488 8.716511548931672 6.911328503736507 -0.6664633637464006 1.2560617987139466 -0.2099385435387933
Ni 8.8802751624269 2.5441599711653184 1.137902828127514 -0.0707953255460071 -0.17784757654151953 0.6217971311872775
Ni 7.075721907174551 0.9535438986586015 4.846075934629894 -1.7240776502802888 -1.2543095919095302 -1.1403914670321198
Ni 0.7854155036349415 7.387044119428002 2.37862456078321 -0.1954416354741989 0.2776837694045669 0.4915108493644889
Ni 7.598648071705313 4.059994184326069 3.482856868132929 1.4119801792825426 -1.002578537814983 0.6898246641801603
Ni 7.735889416986431 3.9229715794013544 12.568581176058792 0.17219294935890345 0.3148015001924707 -0.4287484214252874
Ni 8.269643229159241 7.1358755051859335 8.75689193014219 -0.5630929324778496 1.2587527152825482 1.4747721749080989
Ni 7.34209297618677 0.6538322422394991 0.29761448325206913 -0.27110457352515244 0.5806448253186839 -0.676371623999048
Ni 1.9788528625810846 6.747574915840948 9.492472912079156 0.5688979691954009 -0.9474011213118909 -1.9131532343271438
Ni 0.1299782540303204 5.0911909095084535 1.217381225209128 0.36755179531130894 -0.41240520418057364 0.23287278373746348
Ni 6.331685699044379 2.386302347293026 6.900710482269347 0.6439410142741684 -1.2416602785766357 0.09767646620756726
Ni 3.696994562871931 4.2798555850576685 0.44863373673224943 -0.36528048277862896 0.7713492032182135 -0.689138179636097
Ni 6.057403520475512 5.605121376882058 4.607978879519329 0.0840637605201391 0.906944041738109 1.1743536829101775
Ni 5.618637708071585 2.956941252064633 9.146032847023033 -1.0009620852574825 0.04945594063828257 -0.49106553429695426
P 0.4006612423181726 5.701786386050045 12.382507869046554 -0.47513806443342044 0.21290199704249138 1.564346580833822
P 4.1146245883382235 6.358344679981242 12.857848891877707 -0.061691306362209875 -0.3935361351902126 -1.1979109014048273
P 2.540040361119691 8.806896887034531 1.177368145513739 -0.5904438136869766 -0.34828780487537436 0.13112677544621287
P 6.50194772396114 7.919157378927774 5.56487679697614 -1.754506141973475 0.7007654794623802 1.5939960282691388
P 4.770371720114418 1.1384706416360155 12.476872458799685 0.8172796472017408 -0.012494018701952677 -0.7669515883711501
P 4.159019766506926 6.161861154840428 8.304561481386697 -1.1347520093581553 0.21802183476755999 -1.996818988077916
P 4.893613682585616 1.0380597038645927 3.3980311807553645 -0.4520657559949892 0.7707010281112533 1.76191014774703
P 0.2531199605048321 5.616614359774838 3.844291584620619 -0.37903331358834724 0.7000216593178202 -2.1908411174967686
Ni 0.5332798747339319 0.42492592777055155 4.7703343519702 0.7531185391427997 -1.2847329413963937 -0.6858762210553736
Ni 2.106770400170439 6.6027961424453725 4.695153291473792 -0.5579288717784069 0.712256253710799 -0.17891175613997573
Ni 6.136605757857165 5.570286975124557 9.012356969551314 0.20613459641167078 1.219512024614371 0.5382293364669505
Ni 8.486943544884598 2.6991466278597955 9.914295461043213 1.427442793694516 -1.3082518504539404 0.6232636884304751
Ni 2.426614372142169 5.4513651346923595 7.0061187257664725 3.010455326368957 -0.1372791682008539 0.8326664140704563
Ni 0.6989474407480355 0.013078850476717068 8.966549093247496 -1.292091181533678 0.5638411234977837 -0.5578535384557811
Ni 1.6246939971983168 1.3620870851525684 11.176348024121006 -1.2421935253722864 0.5279606075510908 0.6142144337440132
Ni 4.434614387214223 6.890521738751631 1.585429191805463 1.1117313800932662 1.753957725669173 -1.2457041096287063
Ni 5.675182090202283 7.9489516383064425 7.983999311911437 -0.16390139877407256 0.016839440154841963 -0.5058817733741803
Ni 5.1377188061521055 3.1119005662145587 4.62279945008392 1.6811798224754984 -0.5126057223615753 0.2598822224467718
Ni 1.2950613942774623 7.640290767055919 6.885996547628502 -0.8843299038830189 0.06929020175539036 -0.08781834246656489
Ni 5.089267817208393 4.610162637410772 7.062851771454571 -0.02771289253423614 -0.029593140276084513 -1.0378167921919867
Ni 0.9002797104558264 7.636444582455798 11.358206022181689 0.7450900124113684 -1.1447474300079703 0.7369038770561502
Ni 4.686174911261518 0.2738446978560565 10.337932643547278 -0.7014992723046112 0.9526826814258046 -0.9683664107096485
Ni 8.313026733179571 7.327783711205274 4.871488095535247 2.8294339800851462 -0.1677284858296466 -1.769071955602792
Ni 7.436123986896379 6.295311000610527 6.654382409830891 -0.9511179080418459 -2.161905408299025 1.5035253357813914
Ni 2.5167809698886234 5.712987715134286 2.2434685402331525 -1.5763508043835497 -2.444810059782899 0.749441861622161
Ni 2.505771038616237 5.348803250082954 11.590834568382128 1.1257001835685323 -0.08297078456627646 -0.15059928234852774
Ni 1.1048757685648107 3.447138390768292 3.9609458166914187 -0.9597241616536181 0.1441437565311711 -0.9908764188867064
Ni 1.8027304189489726 1.2274888525113434 2.60007365193505 -1.4699094474991588 0.7218917199180341 -0.7391384228136239
Ni 1.1570818002934764 3.819379792280542 8.336349923681256 -0.14329169294352095 -1.175472627005969 -0.5211865220520507
Ni 3.8694895622603265 2.5034651506924672 6.744010359449698 -1.098584301188347 0.8432889267813091 0.2648799327716793
Ni 4.389353361801417 6.970425768110084 5.749882833332752 -0.36326988010650335 0.6141894940433487 0.36203729325098294
Ni 0.780836538840863 0.079297024869428 13.178690866725534 -0.12881612503516524 0.7928479965219378 0.735025686196831
P 0.4897341382826018 5.8411331072615615 7.989281891518619 0.35443839785780246 -0.9482824954755797 0.1785793125012215
P 8.381137011655186 1.6435238962121825 7.835877456735472 0.5166253850439296 0.41248825081268314 0.06280587958262732
P 1.9555752429869833 3.4354266675191063 10.46645900846196 -0.6080589556655785 -0.7439998646709832 0.07311574614906761
P 4.029051538076274 6.305008489744482 3.5304119330335335 0.8985146800238332 -0.38049087197048015 2.9575173407193454
P 6.978090794765777 4.16469790159194 10.351539205133824 0.3241199493799192 0.11439377896224816 1.3737244782354534
P 6.592570030783437 7.631677865522471 10.012848017203346 -1.2201835967600987 1.3604403595320376 0.3732953826633055
P 2.581418745206308 8.808236671717511 5.551097065940776 0.5362961239999796 -0.06684996774501391 0.10912378881256045
P 7.09186312264094 4.397246242995031 1.397955946512234 -0.2172762148507871 -1.234526495745332 -0.3327987081008398
Ni 5.704493297960557 2.732750615112517 0.3162037678738894 -0.10219749400637239 0.6329014686305552 -0.901945302971937
Ni 1.4583146136077454 1.2122317126520932 6.817831584063787 0.09408386376030248 0.48221913964991786 0.8616967398645354
Ni 6.934060183857748 0.658354699108173 9.220546749432403 0.021755132288904466 -0.2980931862988544 -1.3490025500087413
Ni 2.8164826007080572 1.7820867978132486 9.090860149210624 -0.03600572867064767 -0.2634419147735721 -0.45960911555988593
Ni 6.472226378034606 2.095824268168671 2.4143074928399315 1.2495875038435125 -0.012175459020269353 0.5944840451946213
Ni 4.370113324619291 6.960026486999328 10.20184241939174 -0.30370230495551565 0.3964047149872592 0.7885005181865195
Ni 8.510895613910948 7.2997211463148135 0.30941552548012013 -0.42808584814062406 0.3388893943796099 -0.016139328764023818
Ni 7.724761001354326 4.057815894943535 8.147715531662778 0.5689301079849169 0.06948252027185452 -1.3411905101634902
Ni 3.1069880223769624 8.7663205509214 12.276979318353407 0.14079977975960267 -0.6982285719731395 0.16882120467319311
Ni 0.4479857184263995 5.036332650958377 10.417889535158528 -1.591919348245768 -0.4071082174476924 -1.4574326551883867
Ni 8.548190844678006 2.3571278522575065 5.56973192147018 1.3345650344271727 2.462480737589785 1.3738319503475953
Ni 3.932505013268007 2.7019446815854766 11.264589706731094 0.1874627310337804 0.5601173947892935 0.020808709215235133
Ni 1.2325472232532098 3.422284017771771 12.640975119847338 -0.6016245128941444 0.5440186894552179 -0.09317857833721373
Ni 3.1907291221540195 8.593561240269015 8.008810848254829 0.5142098336239016 -0.19053519931151702 -0.14070439183231898
Ni 5.772020268819091 8.01906703671577 3.4890062064023657 -1.8253875994753852 0.3826254018149798 0.4402247974960032
Ni 3.0646253066865228 8.404651599968727 3.3583990738473806 0.8563966678078606 0.44308412132166913 -0.053527539604494905
Ni 3.4589139132880957 4.194829385686733 9.21917324227781 1.2676240496302493 1.1825701572826988 -0.5347963995260016
Ni 7.416291527915658 6.396861211071559 11.51273150129141 0.929028275231658 -1.176942012462644 -0.6362127923919753
Ni 7.94484114244233 8.819191917900797 3.0104907141488866 1.284631639931839 0.5042324106962155 -0.6028259894014134
Ni 4.808459884673443 0.4746857131800878 1.256490178098043 -0.1917425893560569 -1.057595774591127 -0.2080582957969449
Ni 6.35452583792567 5.991507988108499 0.20982395262706433 -1.037668953760213 0.5135431465741801 0.36159814883103536
Ni 8.204650000762397 8.81911900444866 11.124430911946424 -1.368442661011224 1.4627653802552099 0.40711747341907306
Ni 0.5158544710918167 5.20034234735456 5.911904726740104 -1.748423426114505 -1.6356946935595058 -0.4698896715502875
Ni 7.364340693269464 6.354735464100558 2.6237914864964162 0.6645028975859201 -0.12880378373999107 -0.6737555265324396
P 8.703788151534113 1.7190257758979834 3.2758537546853383 -0.4093450771980111 0.814200751166101 0.05487531188164098
P 1.8528766456548245 3.3802129558898715 1.6748839719754496 0.28629387967108116 0.572389270178111 -0.7594416531473501
P 4.725119808883129 1.1101073087554976 8.138804596393728 1.2622211334471227 -0.47432353895192503 0.13595505007279168
P 8.569782340691486 1.7378374465488156 12.224035037921874 0.9561439005015275 0.3886029595546533 -0.5443701592573658
P 6.66725163413272 8.226852146937508 1.451794328150572 -0.7803241530233141 -2.85302616558279 -0.5781459701562301
P 1.8169941130228837 3.2728843543471395 6.097390169044503 0.4318077770769015 0.15576694259239626 -0.07565933850652776
P 7.0273802884090415 4.041802278018384 5.762782134433586 -0.20233373460834184 0.9751451241943787 0.30437233443934675
P 2.374043773152828 8.751026954336082 10.09883485130616 1.8122878288686337 0.10420012625869797 0.7886627547959966
