# total energy = -381177.09363425034 ev
CRYSTAL
PRIMVEC
9.18588900102748 0.00000000000000 0.00000000000000
0.00000000000000 9.18588900102748 0.00000000000000
0.00000000000000 0.00000000000000 13.44447707689293
PRIMCOORD
 96 1
Ni 4.818788626809995 6.331070674787554 9.27254840715406 -0.62860027015204 -1.4265436789190142 -0.7285611615184098
Ni 7.291795219689966 5.772311434945854 8.615529552714827 -0.45104579937090705 -0.12325585733856838 0.906808287491193
Ni 2.918816144862569 5.8959810549561915 7.65383314078448 0.17578400914427145 0.24836830826990128 0.8214736306784304
Ni 0.8026804106648828 8.57550479832806 13.260798578539063 0.8997243840612181 0.6433884842048081 -0.029095888924691827
Ni 4.582830702929318 4.621604339270672 11.49032232582522 -0.962707155541342 2.0259873821117558 0.3048045368807589
Ni 1.3325050195869843 0.44895296310697774 5.139325621198372 0.2241991672228655 -0.7751588067722909 -0.023677546122597933
Ni 1.6270872853606988 5.207461950874275 2.9275344718589156 -0.10133051802038678 0.2660901510296966 0.26561346850359413
Ni 2.7969837025988014 0.9421139343296615 0.6847822845453939 0.46567563346894 0.6477624449027877 -0.6995508903289888
Ni 4.744814664844367 2.965067094632461 8.438654346574959 -1.7098792472927198 0.34405551196158163 0.8754526559980471
Ni 3.700856782133615 8.178591732070416 1.4109176029883246 0.5875117276418463 -1.2228683426811133 -0.6111206253100379
Ni 6.61791842224821 7.891303061950583 9.358108530578429 -0.10947474439407598 0.9128532081336924 0.05020516009948128
Ni 7.498771664618506 3.3692186412115905 0.3940498247396163 1.0233977885531793 0.35366835246099737 -1.4190257732754143
Ni 3.5458724674329973 7.133871420594837 11.101910799589827 0.905924085114027 -1.2261768382290559 0.0639623617845737
Ni 0.3955122182258858 1.3426462407480488 10.47248084337083 -0.13454377154756184 0.5720691678345309 0.4731305470850884
Ni 5.666636970963166 2.457528370365123 5.5852389737236505 -0.3696950669065569 -0.5569225420010796 0.40899874960218596
Ni 8.409221840486039 1.14128237383528 12.720249444521361 -0.5216434070838113 0.03577561493771258 -0.560776368529531
Ni 5.050860919756675 8.180493211038115 3.4027168216536685 0.03026522664244465 1.270209293858922 -1.7922802753984552
Ni 2.834682589958411 7.98549516501721 3.687322293674636 -1.0782666726769172 -0.3485176614979933 0.021520133459962936
Ni 8.37342443209413 5.7712734295190415 10.687713565092455 1.1687355653924518 1.336767184284814 0.6533947034879005
Ni 1.440053404871173 0.7229845586075637 7.544717642882467 0.3190345644372118 2.3330632315251947 0.5669197624231075
Ni 1.3086951959914415 3.2257166874270333 4.109653632644946 -0.04881804994396754 -0.5160890529244855 0.7983092767468252
Ni 8.550776385859233 3.643040798449068 2.5241866905439103 1.2968834607159987 -0.002108818812886691 -0.16990698153820416
Ni 7.00033615608542 1.860124096624329 10.978692206716273 0.4503294900301728 -0.9510173779082395 -0.6046049356787072
Ni 1.8770628754477015 4.6330958860754645 11.885333913115167 1.3965044522444467 -0.21819435578968227 0.9514336395100517
P 0.8253061732027617 1.0560924417268442 1.531971081887547 -0.3914298874804872 1.0955462856929712 -0.44048293625339624
Ni 2.727327108337612 7.950230538171805 6.184338043935655 -0.6315886633564026 -0.6555063505142646 -0.38281154968385683
P 5.634091367182685 5.6077186806306765 7.237605824877147 -0.3359508805765763 0.22547751971465685 -0.03344182459821338
Ni 8.947266901235167 3.728193987002572 11.70088953465943 -1.868909691127736 -0.7549193397969644 0.044614810495897356
P 6.330326617800194 9.003089547064686 11.800539892811116 1.1044857542744462 -0.41833159696733757 -0.3808631677082344
P 3.5831855474658276 0.6711127635220423 7.056588701507637 0.9127678475087377 -0.8158783959788402 1.8554358250110172
P 8.216354920651154 5.058834271176789 4.033034134724258 -0.2304096669089516 1.383201050267321 0.8016139156400258
Ni 7.672182872117218 5.876010932850979 6.376324955629932 0.6497838462081906 -0.602973056502239 -1.9743881698782253
Ni 2.4219054938591364 6.819015898387727 12.952139856871131 -0.9167664271451695 -0.13676186224480316 -0.2097343979477872
Ni 4.696882697436363 6.338162180889313 13.405703217533125 0.6178949679193939 0.2807996893257293 -0.33553950407077054
Ni 6.765241705745632 2.2832445034367908 3.381756460743055 -1.2003904732935715 0.45832382108955905 -0.1200797736034319
Ni 1.1445801078903726 2.429088858848224 13.050742105118399 0.6614448274858867 -0.5599340751338937 -0.8379078649750539
Ni 8.117193251780057 0.39014582202815573 8.680439798267754 0.629382142623387 1.1572764157129165 0.5517875347673594
Ni 7.767183333392335 7.9462254906842835 0.17002437032291032 -0.18511197141341668 1.2496155288679704 -0.8729322035690386
Ni 7.982923116172012 1.285877448379046 6.58167641684163 0.30826986972154 -0.901911364410208 -0.20850772462953768
Ni 0.48002974327907705 5.817579494621331 8.185871548891198 -0.05372397188601716 0.3017888899828867 -0.6168212752392409
Ni 8.7256573355552 6.355569440038061 1.9025950531806533 -1.5596352914010816 0.09441219363399869 0.8915757868121548
Ni 2.5980357244227714 1.1625293344743581 3.2587528176658496 -0.07050376244751728 0.5667374712089723 -0.633285077222219
Ni 1.4525370276591139 4.915607894054216 6.033276103723963 0.02843228719876394 -0.024910904309066777 -0.7667656976125891
Ni 6.253872465876697 7.1238496159873 1.5339478851428558 -1.0873503801457403 0.2377743348041389 0.7463092295304502
Ni 4.320224515834649 8.818526670644296 9.89629137965855 1.222813578183778 0.8004931717720213 -0.41898799960441396
Ni 1.2514303656308647 3.506814068540926 9.90832397530971 -0.38853482532087924 0.41893014978328497 -0.9158709119140936
Ni 6.787747133141111 3.549115086155693 7.69088626016617 -1.630187390588031 -0.3558972417915161 -0.07186181913730849
Ni 0.32161725490336035 8.087936196165934 6.866040299988924 -0.9681401536314551 -1.5307363489785444 -0.1755749784572589
Ni 8.442483943587684 8.389150673604766 11.09643876567167 -0.05508562812023416 -0.2840500779422269 0.3569200266290756
Ni 4.873848843874688 9.20159660258154 5.3341362750891275 -0.024755866788441237 1.4348262306427806 0.9807717263525367
Ni 5.912184962680936 4.709972588880673 4.430344949964035 0.4061409684384167 -0.7560832781980785 0.5713983670197514
Ni 7.862101121668858 3.161360350964698 5.4829403238502845 0.5435363505021606 2.371576814219361 -2.6970275665955614
Ni 4.161271897201441 4.229302589156916 6.462571264942645 0.9701846948653098 0.9211678986469749 -1.2934338116045014
Ni 4.32696695816456 2.9413215722580475 1.7444342581562169 1.0179241670331178 -0.22199650314459185 1.045773070924586
Ni 1.8947365253697017 3.1856202831081504 1.6738912256323077 -0.10955701969523714 -1.8562722048693838 1.5198631537094665
Ni 3.291037542206318 2.140018126314219 5.627212973699527 -1.0805593253658359 0.09292635311709158 -0.877333675070844
P 3.2146844350588824 4.416024149429525 9.725089378400089 0.5703701828655532 0.1982269115288199 -0.47161462466119425
Ni 7.284657784144544 8.932082627159769 2.85067246647568 0.3328125920579107 -0.522576717531358 1.14688195985247
P 2.807455615754248 1.306536512139222 11.728033835864998 -0.657296609645468 1.3113901389726061 0.23565651713018768
Ni 6.495442967773143 4.838391313365893 2.0805459268911384 -0.20933459140620722 0.1323843020023978 0.419254108781607
P 9.012624499569382 7.719931121750564 9.091814209157523 0.7526559976840844 -1.3565263691896121 0.10491540715816769
P 0.9615420889996359 2.362886158750586 6.094098628790772 -0.6405145050911227 1.2620020754577814 0.4236352685684382
P 0.07134220484366685 6.477043632641247 12.749934562550434 0.36689539267423266 0.25162898129904404 -0.2508944171258647
Ni 6.619323863224336 4.21103185646728 10.50981596953662 0.5218215845328884 -0.6598322315831281 -0.8314394836418907
Ni 4.2736612458478405 -0.08507970144364159 12.373866115005367 -0.2670316890073595 -1.1416232825566919 0.8939049491659636
Ni 0.7797698855762858 6.818529046284886 4.663969658106567 -0.9943962591145069 0.3136509315277953 -0.06620256396900212
Ni 4.642318518363244 7.980874662984587 7.537954991597345 0.8950966554812196 -0.01840241376658766 0.9186484746592309
Ni 4.251587555222806 6.036029114577198 2.660729415024462 -0.0602111222722576 -0.4410565493686791 0.472263828209419
Ni 6.036718056232162 6.546773714012299 11.223435514581045 -0.007246397149768166 1.2448353338705078 0.14425071442268061
Ni 4.99066579089032 6.8069823841476955 5.396062025392752 -1.498038087414575 -1.0972540124126975 1.187259078117936
Ni 5.883598476944312 0.8924338922957977 8.187618704928186 -0.7650826534832114 0.09861851840586242 -0.5894613951690493
Ni 0.4889382181721934 8.589871528306235 2.777414085242341 0.15762225063358018 -0.8437293567528372 0.7436165131896355
Ni 2.8809335397283027 1.501846878377044 9.540805752997178 -0.3793289904518951 0.40717635168146643 -0.7296623650023886
Ni 5.882964650621745 1.5572745309910512 13.179607263796035 0.57054373232894 1.0374478388883421 -0.8512364637631598
Ni 7.177247187191347 5.680691380724425 12.980023622119694 0.49273006648357076 -0.8506942181064446 0.76623964990579
Ni 7.039890592969066 8.235764703543664 6.781192082941351 -0.3805577206526736 -0.05646682473847695 -0.6353417026409316
Ni 6.692590511757535 6.908762031307655 3.961253762988034 3.2780434021004186 -1.379390161161663 -0.08817418314408684
Ni 1.6786936082618409 7.1074344328217 1.5989518267608576 0.7226676788521104 -0.7608318486266574 0.38285860087170837
Ni 8.900960836132878 3.6620004727936664 7.432375142268604 2.9421552564409783 -0.08043850506272598 1.3098896431676794
Ni 1.7010153178826626 6.082748544672464 10.139716512490159 -0.08798006485540977 0.6953077987819186 -0.42452872691698507
Ni 3.7785602149247794 2.988913661782935 12.959413243569802 -1.0321228271310032 -0.5277124960960267 -0.16020363820751118
Ni 1.811898180776875 8.80231357703082 10.851857129448595 0.35317547198497884 -1.3062466470984537 0.8197443066921495
Ni 3.1232389127233766 4.866059210229232 0.8474138516161079 -0.12763547446350276 0.7496498638679089 -0.2130578058940653
Ni 8.9737865620069 1.4609237440722045 3.661751535209006 -0.5532198963385118 0.7213949827872738 -0.05117600865318283
Ni 5.378567500301041 0.5741630566578141 1.6565344888715907 -0.15241011030502138 0.04351617811507989 0.5817930799905142
Ni 0.5919726577330605 4.713160092270971 0.5342255682140091 -0.5157141860835699 0.5068299962200626 -0.555657559245727
Ni 7.806599981944988 1.4479165256264912 1.4289458282154128 0.5400746172058054 -0.7777810748864863 0.42398802392216656
Ni 2.3234786960866662 8.113032044184077 8.67529018904412 0.03805155545608285 -0.9329834032246641 -0.013466152807234873
P 4.699647649944951 1.5733590221622684 3.5037386329931683 0.31633259212501647 -0.03926228793473238 1.3673075189655162
Ni 4.77588134053886 2.4642524409175675 10.938143856671733 -0.2893223820847598 -1.5717341315471447 -1.1913635872046129
P 5.586875899095844 4.180690865982682 0.24175330108223012 -1.8418668280773312 0.25323514944389935 -0.6420720793862297
Ni 2.3256373799388856 3.4769874878253675 7.682093527471088 -0.2874040820161244 -1.0821204992053686 0.7572256193326379
P 2.9409449508200014 6.00214237104172 4.635036864364716 -0.0012626687625075029 -0.6990878346496412 0.3081300017095661
P 8.417617742787863 8.921647457559253 4.956723013433572 -0.6249400476916334 -1.2258387381633469 -0.13057244560463965
P 8.317032261163174 2.780761423096591 9.493843815439362 -0.5237532543379625 0.906244187457607 -0.6564517451466695
Ni 3.6440145026547497 3.8714571076800754 3.9623560696359763 -0.0668139723007559 0.40013332879175606 -0.48072404316163014
