# total energy = -381159.3930328627 ev
CRYSTAL
PRIMVEC
9.36599969176786 0.00000000000000 0.00000000000000

0.00000000000000 9.36599969176786 0.00000000000000

0.00000000000000 0.00000000000000 13.70808727867089

PRIMCOORD
 96 1
Ni 6.605277478552921 8.67100486151435 12.5825019392735 -0.05697024673745672 0.9713422055085206 0.9870817277309646
Ni 0.7661265822768232 0.5880920444190428 8.238464273183382 -0.13002994283760833 0.855334030871301 -0.8380870708653952
Ni 2.6313775560085118 2.8528647118885235 2.806415910630246 -0.4229536691203813 -0.7450326768108717 -0.4432111338178367
Ni 9.083221230957477 0.3088981558967985 12.418279440859914 0.3459095344511849 -0.008604196729243245 1.440318106995287
Ni 8.248214278649852 6.348283818615859 4.927097358984536 -0.8674364705617901 -0.6981969474042556 0.070671141263317
Ni 1.8652856279297925 8.922659901743545 12.95002937876205 1.0152803016523677 -0.7036988510590914 1.1463955071343546
Ni 8.641352107136976 0.7409086286567736 1.3552367108401555 -2.644636968808987 4.871339576089055 0.1293491147204998
Ni 7.451813976229636 -0.05808043602178318 8.432967984539953 0.8802248805757099 -0.6354224352801959 -1.3308593034408112
Ni 3.373370767405936 0.03436572531947476 2.5674424337071033 -1.2244462286911946 0.15618526107673747 -0.37778247190038167
Ni 2.6277997442042933 2.469195908883246 6.96782033311423 0.0374925976288193 1.4724638384898963 -1.3921515745923894
Ni 4.811829066692127 1.266142640715468 5.920591071619614 0.20370438970362337 2.6431133330756094 -0.8388357761059617
Ni 6.29773551938191 3.7737204154984223 0.33787562171112395 -1.0151502038324067 -0.26490538669297603 -0.5174573940269217
Ni 1.004213099048502 4.964803936321196 11.732820338968887 -0.014401005916678424 1.4733745232296238 -0.5038290046102097
Ni 1.286832133583319 6.439311967634712 5.635640839812361 -0.2665976867937344 0.958404157290614 0.40472531903781267
Ni 4.848759202671275 1.5549057709140741 3.176629518771805 1.2016608553655628 0.7002805694061617 0.3699424070306726
Ni 7.157103436356478 4.994447324699082 2.15902397705615 0.038248501958237355 2.297138492604127 0.9372298372058441
Ni 7.433288029243394 6.469011552009523 12.316853159210055 1.5358510444972904 -0.11996715928496758 1.0098647870637512
Ni 0.3236421122899952 2.00501697428356 2.796203224789094 0.6266050940988822 -0.20870775645548573 0.6616865111830476
Ni 0.167703840423086 4.270071558337614 2.205686323102742 0.4084043105512966 0.23873258495235017 -0.639329483644086
Ni 8.661601398028916 3.862931560616703 4.3634758614264415 -0.37805063796010374 0.7686312900664182 -0.20737001148066866
Ni 0.5425620477104875 4.388476523858382 6.340442603844937 -1.5794677527459766 -1.0115678857977868 2.194170696090634
Ni 7.793832179514075 4.326024039275842 11.319686101575988 -0.16055793622313638 -1.1047927439919036 0.583222356237873
Ni 0.9130491430370806 2.312652593449446 4.988578589420225 -0.3943072090282822 -0.04365810300958287 1.0889130966471698
Ni 3.2720681169493138 6.98934901953616 7.386931951380043 0.7210651102516806 -2.0459990493469924 -1.6119888653021337
P 4.406337484881013 0.23431670197796672 13.077391986192646 -0.8476400046611532 -2.849651592683602 3.7264589629373304
Ni 2.5570770820743047 5.276326445274388 2.635654071374497 -0.19458417256991004 0.6704424029988066 -0.45488522772165535
P 7.647853711502155 1.9589081588066786 12.547313879199026 -0.1440159727040552 0.4637678749232658 0.7131062604159203
Ni 1.0782887889950097 6.501848746212639 0.6379884700886628 -0.9736400004037619 -3.5395611032680847 -2.1768751422349797
P 2.4434019462947165 4.886466716607884 7.25455291462395 0.516056399914337 -0.009926257974776453 0.19603144653939786
P 8.770256358083213 1.0301756496278065 5.587471504448233 -0.016535021540545716 -0.5052785925725427 0.9310640747147644
P 1.7099973564273148 3.641285182745404 0.8746757065369116 0.13260953063932648 1.7965889300761384 0.7670960843688144
Ni 2.8899915338569087 3.817553293099845 10.42283451805256 0.770512309139215 0.08789290445824219 0.7993462026517717
Ni 7.358004125363001 7.562913462150167 2.2465913892643776 -1.098655006525282 0.30007062174019933 0.4102117960736806
Ni 5.3153826631371945 8.798719630525676 6.917827437649889 0.11041988191616467 -1.1775287382040494 3.0512525628909772
Ni 2.2965524403304616 6.091421282671621 9.858883337312507 -2.811222342173126 -0.8814847211247399 -0.4710122151905049
Ni 5.17217653097357 5.367598110279915 7.88509728831996 -1.1427275713644645 -1.0486509066930134 -0.3292367017811943
Ni 9.013650586764449 8.280339656891922 6.5674069962252295 0.5924991535541086 0.35057531535797043 0.8296636226883904
Ni 6.167885302487438 6.761745865990821 6.167761671294202 0.020312229194790823 -0.5620025276271482 -0.5424906828464656
Ni 8.937711062919933 6.350437998497981 10.098404725205668 -0.08644177383401241 1.032872560812834 0.3340994291901343
Ni 4.66893201251159 8.384939139168138 4.822285268519954 -0.5233120530354858 0.08571055209494272 -1.4338998621737693
Ni 2.7375598921981137 1.111472525179164 4.674375531413715 1.21358408916571 -0.3733635168970796 -0.23817774089014465
Ni 4.369285590908528 6.125466690808625 10.147123844739712 0.6523570062520055 0.10842316320111006 0.3452569884688506
Ni 4.89455894016507 7.431826933323347 2.54075308156757 -0.16797788283629134 -0.8114573840930089 1.1137083013139786
Ni 7.099380781515117 8.993260805880197 5.4918296640818465 -0.45731029222338015 0.5726810903869168 -0.859059045131372
Ni 3.2980774975260556 0.4521576742575011 7.637145564288115 0.19278028659195184 -0.0336948211492839 1.45356854424729
Ni 3.0053150855462945 6.707282578971104 12.673578791489689 -0.006092228940666927 -0.31420526136936855 -0.6455494964118689
Ni 2.283112231065923 8.58442556225205 6.027144301388919 -0.8674326139070481 0.17108994610271178 -0.5430964347512647
Ni 1.5682429541842509 1.6645535269140443 0.5908175502699006 -0.0931297273771493 -2.193331745129107 0.4207283793342883
Ni 2.8950585395796375 1.5294583503065813 12.098730270345948 0.6976667859323984 0.8370208343844101 0.21239548971971808
Ni 2.4903443357259847 7.550044578854365 3.8048164703968164 -0.8330451375661136 0.5918085552449872 -0.5380668427471572
Ni 5.137850142851944 7.2444975775741876 0.24422218303592935 0.09654440948565308 1.5424618649455888 -0.9112274996048113
Ni 4.083678802537204 2.6706117278615804 0.817985184839071 -0.11518542162560806 -0.5420147716513117 0.4227402675579945
Ni 1.354248597894226 0.7133117111669033 10.662218225753257 0.38378651200261643 -0.6785866293724958 -0.3225117243525349
Ni 5.490386363560825 0.6271248472831307 9.264926304014402 -1.5833346919005504 0.07648954771730697 0.008616023803785162
Ni 9.104875421772539 8.290735916323028 0.8717441486973293 -0.4868453255680196 -4.791264625013336 -4.333030792534421
Ni 6.491724100766669 5.554346774060851 9.740431541794301 1.8939185544672479 -1.457940448062741 0.14673337163521827
P 3.947216190004568 3.274259760829385 4.401749081732095 -0.15972284191635072 -1.3181179446147429 0.1791297856880528
Ni 9.38903984622279 2.3184314151332233 10.180886399692193 -3.5109755783209082 0.7966501438768473 0.8466748125344064
P 6.3994783718144435 2.338961686009787 7.047465046355995 -0.2266327163650226 0.8863821584263573 0.5884450380893931
Ni 5.390647835018613 5.5795787766801315 12.093918956409228 -0.9681933754668938 -0.3473005012614406 0.9200844357748089
P 0.9679104850350158 8.66035572009708 2.344027755132567 2.6217346102895167 0.7295559213315113 2.34696107255321
P 5.556922423919908 3.690456680054693 11.134613015103364 -0.48404719399759216 -0.13554573044951496 -1.4233351992840455
P 9.12620180260554 8.593857123735948 9.636319091491435 -0.6579301294644089 -0.05887106330459538 -0.1078724329039626
Ni 5.230039675807244 1.9363922960387678 12.52499657562025 2.7561254011989824 2.5227083149222747 -0.9519964539920573
Ni 3.7122981908595047 5.998566763752709 5.001409072118128 0.0275092611638623 1.547317136155361 -0.5661162926852057
Ni 0.10040726090561898 6.513134775595057 2.850034306843406 0.5914131195787815 0.2819849678830821 0.35611167179516734
Ni 0.7664834268572963 2.792716263179904 12.295811504761474 1.4864426692674915 -1.8295265613444234 -0.8985594172188395
Ni 4.881352880887718 3.1414967180943054 8.853436736131503 -0.019101239605825167 -0.11444751501831903 0.2927386068551604
Ni 1.442719829052996 2.9708763054308167 8.848446531604573 1.5449607201080424 1.694841379122991 -1.795835082629249
Ni 7.589971834669506 0.6296311887459812 10.775145954773743 -0.7906641014967415 0.2051580914310144 -0.5245094157776966
Ni 8.681850688920855 2.7389741581207234 7.625740586712206 0.3589244586536141 -1.5099410094997479 -1.86380296602879
Ni 4.512407429076765 8.851319083647383 11.192735598122841 1.2946252608094413 -1.7021361130121908 0.6827122215050953
Ni 4.879329824998422 4.298647222773927 2.621287564760646 0.5946509097897887 -0.5218637506247334 1.3191127044278443
Ni 1.993993192886792 4.3433698703266606 4.768001808690396 1.518132801281921 -0.1606013878665621 -1.6664024070560073
Ni 4.991328446869749 4.427869917702738 5.775216710574637 1.1482279323574032 -1.7203474938138952 0.22725543755068606
Ni 8.579677000511897 4.416780574309557 9.164637054702325 0.460839131312245 -0.9735492404621685 -1.0338814616933225
Ni 2.9118986066581325 4.052396364249009 12.960187741806175 0.08452090266221574 0.16094720124175507 -1.6550016214182335
Ni 2.6995620322773926 7.5600287343080215 1.327445917160894 2.5854468316020762 0.9349868068079381 0.3649030448345522
Ni 6.737038359342839 2.533615253358158 4.4473418306372166 -0.4091753843893663 -0.9895605282887602 1.797076668345834
Ni 1.1351685038824975 7.56647254195541 8.18837490792432 -0.012846259835048843 -0.39576631007231194 0.6504232795644024
Ni 7.162086148083819 2.3308507304536263 9.256879037254755 -0.9292686733772384 1.0526782826848515 0.0842689345524097
Ni 6.870073016063057 7.691471171115367 10.441806286614407 -0.6315408408376026 1.3181914781651556 -1.1962376274674626
Ni 8.636416225407073 3.7347391256315157 13.529250885066496 -0.7089040494091146 1.0602013305347742 1.6755676184950434
Ni 7.476736900865831 2.841419460514819 2.354281651371464 0.1429762185856312 -1.6269657983269399 -0.8327985687729464
Ni 4.141785463357552 5.282404978941765 0.7226496126559243 -0.07030630172473053 0.2729724799718266 -0.17591179297138734
Ni 9.228019583033973 8.443439171966961 4.315908759829359 0.7983522141696185 0.9152363636538884 -1.283257642402448
Ni 1.12365769051238 7.843893446774674 11.062124862069984 0.5849593935336377 -1.5765837463299623 0.7207627485199135
Ni 3.4573556848102016 8.065183916665449 9.27697566235505 0.11509774700780823 -0.3327863668056656 0.1950405433810383
P 8.317372818865431 6.046876589109149 0.6011725993032624 -0.5252041278518762 -0.039473118393957826 0.3927750886544719
Ni 6.152806043312589 1.1989415943927733 1.0851306516206165 -0.03901623336219732 -0.5011028639282983 -0.4130526079565854
P 5.918346978142413 5.850621435848419 4.075085498007438 0.19276485997298415 0.6095681932212533 -0.4503089212048825
Ni 7.178692065175128 4.493160300129986 6.632013660689892 0.6369964646355352 -0.9777825618172258 -0.062103197088647887
P 3.361438484058882 0.6492885484703117 9.942653773328509 -0.6350216002973516 2.5309451010097703 -0.9733494657465366
P 5.724882892728952 7.286766333261201 8.462166487942184 -0.16241170160242352 1.2933003713504307 0.755342286266996
P 6.798732197966894 0.2293574052493442 3.427747887230369 -1.0347525514443663 0.5257499730530171 -1.3644993600927597
Ni 8.745614413431644 6.050023564936944 7.403847883054387 -0.2523458048604106 0.7591542038139184 0.43781798782672343
