# total energy = -340887.90298818535 ev
CRYSTAL
PRIMVEC
9.13507714239157 0.00000000000000 0.00000000000000

0.00000000000000 9.13507714239157 0.00000000000000

0.00000000000000 0.00000000000000 13.37010878563702

PRIMCOORD
 96 1
Ni 6.649093785465374 2.0569179137749387 11.649322590786538 -1.0493031955650316 0.02609618286641957 -1.2504071715313303
Ni 4.529344811140071 0.5354452383412622 6.090471942919063 0.18832585036502403 -1.1533858224092588 0.14069539297125447
Ni 2.623000373819285 1.6202703616890277 5.04291062622978 -0.14748490508926212 -0.3419243245511918 -0.14980249747884522
Ni 3.542345401840248 4.479302858581929 4.744717043759963 0.8751029859681122 0.2463955008142466 0.8235531389152786
Ni 5.373215831852642 4.782331637380519 2.9253129625703114 -0.15051083639977952 -0.420277922060431 -1.1335561892778412
Ni 7.671646914983578 6.156493885913487 2.4673998644164747 -0.9415485191858559 -0.36711727887705164 -0.16385357625527264
Ni 5.033007289105232 4.63760461029424 11.542775618595611 1.003748132643052 -0.4077836462481622 0.13915658772922485
Ni 5.645422860389975 7.799684156140007 12.701362835796239 -0.04643155198966197 0.7597553277330271 0.9386801964991254
Ni 2.012073820107922 6.4635969091153145 0.3103459755855698 0.012933163121900307 -0.005345066361997246 -0.24902779623077115
Ni 2.7372345134212503 1.7041120996551877 0.5795393421753066 -0.755136598014093 -0.7955741372038492 -0.5980187978207572
Ni 0.4613314440186153 0.3616129419878238 4.693295694554089 -0.24438386970085652 -0.8575078985941683 1.19550126352207
Ni 8.986412891969806 2.645783256199717 1.2605593427611903 -1.7003628231618524 -1.2172980476821875 0.8975551443240413
Ni 6.915280798169225 0.7329629626962981 5.14746523809706 -0.5073203055929197 -0.9399310381870909 -1.3703056823618918
Ni 0.7943534215821105 7.421966986666832 2.42627374714434 0.7505011561246107 -2.515938857408925 0.37140767872228936
Ni 7.731225888073063 4.02348077958482 3.899378929659142 0.2491347541222806 -0.48773338459992777 -0.9111992174700372
Ni 7.755013628938598 3.916335459841402 12.670210395742611 -0.37329486844267323 0.06550888033608719 0.2556843823153403
Ni 7.931064835528688 8.513024059637665 7.019200522175462 0.7329184100458409 2.080309392593088 0.8641382594264925
Ni 6.7430663239768025 0.9574474347606502 0.30377328758528077 0.6195834113654104 -1.468034856184265 1.1269127158193948
Ni 1.9938858815275529 6.562337957892415 9.090149914433296 -1.2768759072458205 -1.8572947325966274 1.732777749157448
Ni 0.33059387406040025 4.946096165220937 1.3065444075626562 0.12476638044582383 0.08355905296957868 -0.005211883218242636
Ni 6.289116935792841 2.118104660440589 7.0854088207434875 0.5384465946840792 -0.7313711201633791 0.8707063995623133
Ni 3.34336515163553 4.36294938108411 0.43438113944814616 -0.16675480906246765 -0.06032476503198643 -0.30897692309089364
Ni 5.9133638079041875 5.755518810048741 4.894983581622304 0.28994973125611356 0.7506055429129589 0.598911999058988
Ni 5.264225226527489 2.7605015548899585 9.379077788162746 0.29333561700921096 0.80583283881738 1.1019668445073343
P 0.22522715383561473 5.362938870073177 12.429641793362611 1.3268100730721022 0.7746078193648273 0.09582038683543498
P 4.027701185222254 6.2041241781073815 12.67248320293437 0.0072322560823810935 0.6483841376471865 0.6134487592225822
P 2.225094683872673 8.594773864939382 1.6087181431411952 1.569944900857206 0.9870956116880355 -3.10490377255753
P 6.36148501687455 7.737410335295016 5.8956563743812405 -1.0956288181044485 0.9224411089324436 -1.000230863518413
P 4.546774538318043 1.2684054605144193 12.787466418861595 -0.12335638747217464 -2.7588890799870485 -2.333148335039833
P 4.422400463093673 6.144874067794839 8.190849072667003 -0.962115287593614 0.8209660949143925 -0.08188243659810414
P 4.4787912942622405 1.2386707844325002 3.8902338039369884 1.4096304481034432 0.2230156884377256 -0.8147728216194872
P 0.3717291264096723 5.485303228327341 3.508289834272385 0.4137007830635456 0.12652630055972403 0.9404912815659351
Ni 1.42900925166533 1.1533948393557838 2.7014706864287117 -0.25766156064636914 1.0040055000694967 -0.3382265639846304
Ni 1.9697966831164868 6.462710806632996 4.742764877775722 -0.3505678591588027 0.8469488921313996 0.07890149959290928
Ni 6.231849137219093 5.567418436714551 9.324019764748511 -1.118017470212294 1.7233263739365612 0.5271741070940534
Ni 8.787323020839441 2.267335280555559 10.181925917974835 -0.11998901366183852 -0.6521266354087544 0.21918423050677738
Ni 2.571743456001882 5.295850863576828 6.952576577597688 -0.16100273707003884 -0.23741977967819755 1.0162035847975852
Ni 0.6921675352165336 8.73933646063719 8.924426826054642 0.44189652877147123 0.6527516705872629 1.3456755425180373
Ni 1.4478640508767222 1.0318617731211144 11.58864832194829 0.19466259121632928 -0.5825777806753386 -0.19677115291889982
Ni 3.938871695139127 7.117019841669408 1.6230245874459244 1.2145233131505275 0.772307967587057 -0.6690748332273186
Ni 5.618794110534739 8.091650356525323 8.18772122225519 -0.25392137687764654 -0.2975550544071972 -0.32001235496944885
Ni 5.2864874095110945 2.917570071188734 5.128212149522482 -0.03753167839687085 -0.09100008262865619 -0.91121695808185
Ni 0.7398343677189768 7.226147473151621 6.9890502000837955 0.4767200642085596 -0.42521006925472576 -0.545216566418061
Ni 5.342293595742873 4.470387023295922 7.21558001591919 -0.314714082684987 0.7841844073096688 -0.14891700955009834
Ni 8.0124949131306 7.445919158920839 9.354075995545665 -0.485190563573416 -0.8970923457550098 -0.6829413067967657
Ni 4.658505666784388 0.4447567600606941 10.492754225633256 -0.2753412373143193 -0.8332353992000487 1.4320103584605401
Ni 8.209794309142055 6.743029783668254 4.838415529957273 0.6697422916079885 0.9032102857272896 -0.03497574474423654
Ni 7.340354207522174 6.199629720155828 7.0964522154947725 0.38992682057239947 -1.6397768340486791 0.5707195957851718
Ni 2.781877635391246 5.311316549170282 2.6402090321305356 -1.312513453943772 -0.2663940554233606 -0.3963000710885949
Ni 2.537285945039978 5.175605843218519 11.37492771127482 -1.8981467336159825 0.5659483996487737 1.1183152039583708
Ni 1.4886704404490514 3.560853068120422 3.969170918988131 -1.3067030179095818 0.08192306002805246 -0.604116940298695
Ni 3.849293128730741 2.9396678227838677 2.5401598403073735 -0.4485991376026275 -0.37205533960861725 0.7886195602628869
Ni 0.7271274754209893 3.207033260438431 8.152156539944245 0.5730006785098648 0.5196808840408017 -0.8237436576595298
Ni 3.8523625146488745 2.7911497386856077 7.378829325409063 -2.0793933085367224 -0.04428133841587857 -0.8586618096929534
Ni 4.109862068995151 6.944028885920315 6.080310996619241 0.356004971013974 0.9910689945134868 -0.28058165977765226
Ni 0.5415365077764155 7.05121988104942 11.084234940642443 0.8746000781897648 0.7118865290762062 0.09385375002736739
P 0.13525851963346597 5.527525554855951 8.317759045304689 -0.02810318599411934 0.47161925264688453 -0.7765734277316303
P 8.198539894108897 1.523657785884919 8.032708098312309 1.0900803774823937 -0.28757840281045954 -0.1609608280885099
P 1.7841627806093678 3.2319263456375795 10.093536738609725 0.11445137167306095 0.022521321030967663 0.9706197255201995
P 4.1331473806181345 6.6175503641102695 3.7902120173452385 0.07704387755888022 -1.4225988353386532 -0.05463105708131881
P 6.990151890386554 3.9187562552827875 10.524374381636312 -1.5063923729165412 -0.5803568617646198 1.1831910786961495
P 6.428847075685017 8.023575761698147 10.696488369980225 -1.0499950794257336 -0.03539380611826162 -0.7673840479228784
P 2.3261651773197856 8.498325720523747 5.852791851929878 -0.3762259260465391 0.46294666457355105 0.20534449641020763
P 6.990316321775026 4.132909868612564 1.3851435247597184 1.259033993968393 -1.8851544351213727 1.944597311769038
Ni 5.153197499000717 2.872634626750344 0.3753402224020479 1.1483042941212935 2.744653653113957 0.3852196449047172
Ni 1.0455004432871067 0.9389032281719265 7.04604760037428 0.3018662801880414 0.2982399962893638 -0.5647314965225372
Ni 6.845589294688746 0.6261529002838189 9.557728837706113 0.6165639078127962 0.9916459500628793 -1.0649041353270823
Ni 2.7498409198707274 1.3621587571745524 9.319754597233107 -0.9659112643009364 0.5189964563792675 -0.47475959804807916
Ni 6.235868571159506 2.2775574318722005 2.403758522524031 1.8883541730055928 0.26549725464070406 1.5408374419682882
Ni 4.2804048240714465 6.925356788251669 10.311830368898129 -0.08750698187373317 0.8819770873801263 0.7638711496736135
Ni 8.857544358793882 7.105381753396485 0.12286404697357424 -2.0466904189870623 -0.3068369939297554 0.024362230894448365
Ni 7.379954766912379 3.884015556929627 8.435549470436206 2.1901628604828214 -1.091592700361862 -1.431812126406805
Ni 3.213628786131563 8.37160393047509 12.672870530204992 -0.0362317286385247 0.9021059969195174 -0.13088277775620688
Ni 8.970554398059448 4.70874859103955 10.36827875105266 1.0801466633084493 0.3340955725353924 -0.49206543631637834
Ni 8.40610711682268 2.421343546013338 5.813817958831291 0.6355913567578925 0.006889528030981682 -0.05260734178307069
Ni 3.377228882583509 2.864230355784026 11.58681673898226 0.34540456979030837 -0.9995263812522206 -0.044447688790413775
Ni 1.011298714485047 3.2891393337485035 12.493685078649095 0.47510721119548494 0.15383424434605766 -0.2191790883004548
Ni 3.0306166507628496 8.11712808666126 8.044513358496845 1.4946347181599808 2.141677254177609 -1.3755615314441922
Ni 5.941335414098607 7.984852169713123 3.4060619265519763 -0.7223259792419753 0.0044212689961472245 0.25509611391203807
Ni 3.1580509768282163 8.600528963535883 3.555298941220942 0.23599230320305162 0.13721231951866047 1.2374251574493658
Ni 3.5798722987202853 4.62077779820733 9.48507574221772 0.342314618011075 -1.0904693853906962 -1.5471883238869806
Ni 7.194540106256555 6.255335420539097 11.532213642409465 0.6113633374484632 -1.1265159946016081 0.6937126863806569
Ni 0.1538885959472802 0.06405424737904973 0.633815402986588 0.9767631194137758 0.763796073461304 1.036411684314344
Ni 4.774685577816598 0.6367906976102073 1.6011369426249482 -1.0182499258036528 -1.512012547316796 0.7679468624048839
Ni 6.00064946995111 5.640745700895676 0.5871854017392286 -1.6019911306594734 2.1137234492771597 -1.6748695639867541
Ni 8.171454390396796 9.070007982853259 11.635698536743964 0.11148457573525317 -1.8596596332843778 -0.7937411977601685
Ni 0.20743019655672248 4.690049088139491 5.9493103364394715 -0.0024916560736021605 0.8826653716964025 0.3796678618485526
Ni 8.242196427748064 8.631679576574085 2.8798549917196676 -1.6415925471011792 2.1694395118925414 1.2141237637192637
P 8.39821441017605 1.7014720623625077 3.3477143618605996 -0.5752534790997835 -0.015695299248069745 0.8733620920176055
P 1.806717286061367 3.277455570089894 1.774975633532383 1.1604501854552078 0.5175388979971345 -0.4954472083044177
P 4.657025784288145 1.0387313511283658 8.291365980439593 0.543073037712497 -1.4227806123321562 -0.13344411072547988
P 8.65326576384953 1.5858402559585356 12.72621755367141 0.23675592084195354 2.376628774820971 -0.9130668668063953
P 6.94773772723806 7.925209251083677 1.3664650325370766 -0.9927502388706516 0.1393000552856246 -1.6713931754023796
P 2.0063278565885585 3.397782806142439 6.109845614511853 -0.17643629801628968 -0.800764423155537 0.7899897011375362
P 7.017493176258499 4.19292732540464 5.947545439536545 0.8070075758517715 -0.5466527846439554 0.3279616917235126
P 2.498717649366288 8.54135193384044 10.317485895153832 -0.5511414165429281 -0.4717226109939682 0.633898799546818
