# total energy = -381176.24783491465 ev
CRYSTAL
PRIMVEC
9.16797341274862 0.00000000000000 0.00000000000000

0.00000000000000 9.16797341274862 0.00000000000000

0.00000000000000 0.00000000000000 13.41825580251152

PRIMCOORD
 96 1
Ni 6.3184022702644365 3.6411614987920373 9.624257058910285 -0.13671943904264194 -0.5249711859054637 0.2250093218289867
Ni 5.841135909005109 2.136522866045493 1.6434811728906076 0.23650652383530882 -0.5376477529318676 0.4824384547495756
Ni 3.0973448183429313 1.0640716691613703 12.912186625889259 -0.3043934174852693 -0.09889902576075871 -1.4146261015458217
Ni 4.0178551914314635 3.204683451360416 0.19143553657113024 0.33293677634060076 -0.8935851039326999 -1.6737534481044398
Ni 5.646362313305035 5.6325461773332774 5.93686697085216 3.100786922175679 1.067250781182388 1.2471884074837167
Ni 8.050984226611401 2.259254526466151 0.6024513713721177 0.4161695563190123 -0.3024476066128081 -0.6121914897767133
Ni 1.3409169630825337 1.6054221647555305 9.62304963680844 0.39982582485366625 0.6922695261762272 -0.35679507101543717
Ni 7.9089173102090315 3.7779201585735387 2.520605945276318 -0.9802958151573826 -0.1760022958026646 -0.7973803371746526
Ni 3.364930459091251 3.009194753732143 8.868353064922577 0.2686149743340793 -0.9621695378703172 0.8038584886998286
Ni 7.422189600361214 6.638685422337021 4.350332664974544 -0.28695619584542836 1.205236231421647 -0.5591396042570563
Ni 0.049248519716717065 3.85635217133956 7.911108455860823 -0.110236562260765 -0.022803371047760725 1.173651000416198
Ni 2.5567277606238483 4.617468158227035 4.100632823607315 -0.043419247525899415 -0.6587693375362526 0.04430730655780756
Ni 2.624469916360626 7.829550164152287 6.208090463460859 1.0204628742945716 -0.14838324853381543 0.00036946752427678307
Ni 4.9577008205017075 7.903920764685071 5.090711612741566 -0.011980569400643884 -0.8535237171354396 -1.7111380594004852
Ni 7.910934264365493 0.8364299718870757 2.4839743906056087 0.23974997047327096 0.0017126118157325344 -0.2415199178895002
Ni 5.456044352696053 3.1943603132687106 11.71602921300797 -0.6477706724329038 0.9762784664678734 0.5585456794267993
Ni 3.6033252724115146 5.535154795496521 5.888346388226457 -2.680862012579293 1.1270759808701363 0.46608700997474567
Ni 4.722386446256766 1.304795147735003 10.404837570204954 -1.9154559143183918 1.5977048445792936 1.8735297063982508
Ni 6.471360739111696 2.300262871656381 4.008824737594581 0.08587047471157469 -0.8065195804717594 -0.864871280937775
Ni 0.8097630875466284 0.3671406643165515 0.41706394687833925 0.618470895027522 0.36665962251434275 0.2071517248222755
Ni 8.491294486940298 7.249978387293189 8.303753505485826 -0.4613160709486636 -1.9591507841031806 0.2278177378120593
Ni 7.258522938537834 7.261438354091264 10.681415159301714 0.7952139256509531 0.677923027646568 -1.1011451199369875
Ni 1.4292137152683377 8.214687560328535 8.149993755760045 0.5206877280387613 1.3976933303462251 0.10633311344130074
Ni 3.11789024681852 7.046623568454717 3.6672902230916473 -1.067748803864729 0.02163660443316919 -0.33268326556889805
P 4.6395996461074756 4.265564665765202 7.5735051683683015 0.03196061206699657 1.1511173380900563 0.5748374746082875
Ni 5.670364067766922 7.984543923102885 12.534583470284737 -0.057694269387674836 1.5254943838533148 0.4244328247690691
P 8.537317713601366 5.77625416098113 6.133819793838555 -0.2725150807194339 -0.3358986871824022 0.6757067367215396
Ni 0.511807617986068 1.9568122507048085 12.002630147464998 0.0032581019259814857 0.5020919673144449 -0.24603066127566015
P 3.8344223788747644 8.720631342503363 11.512232497849764 -0.505632890588168 -0.0028428687654338133 0.12359087208048393
P 1.9562713402719394 8.22424058865141 2.0640225320941545 -0.937128021520657 0.35195676908652934 1.1403883817083265
P 6.269646987518709 0.36724884640312533 7.119685899177833 0.1975795077528081 -0.561120382132511 -0.15646191177689184
Ni 4.786543924379105 7.677260957366036 7.252527083909081 0.8752587948196862 -0.4247290158532491 0.9005450801903008
Ni 1.6077599979823376 7.149323206912342 0.2215926683995991 0.17996745109799972 -0.11679236110141175 -0.8744301282708037
Ni 1.6426258009687993 4.565944147502892 9.345842207936458 0.7358188715220876 0.009902603825692623 0.900895521551184
Ni 0.08305542177103668 4.78205161739426 0.3731805252178087 0.27919120718802887 0.3501076316929326 1.1869034945507302
Ni 1.5715831747941762 5.728076460562026 7.261718894078481 -1.030630815966509 0.6486805858416829 -0.5803082679148716
Ni 0.0776371494689071 0.8502525254402411 5.160083834155701 -0.28867292142621903 -1.2034040633089147 -2.763970608275014
Ni 4.941464339542195 5.907328677230787 12.760439246333219 -2.5259684737307855 -1.072861699611262 0.32341135334866883
Ni 7.29866032625141 6.163555198888854 12.735038459124622 0.8085270978200915 -1.0129351984589587 1.2198629801958862
Ni 7.466910974794019 1.569621228478346 11.199614688369076 -0.6090544868096285 1.0857395840151944 -1.2151262368418492
Ni 0.2648948405441313 5.709868865313244 3.5100411426751887 -0.008360199039237215 -0.6394837498337631 -0.047098239039383406
Ni 2.4934504079516002 4.855404572875376 13.174701460528766 -0.44829369054706664 0.529436677875985 -0.46296697628852523
Ni 1.5399536664314908 8.951251714347816 11.273629571532448 -0.08229458443485826 -0.26813109271912533 0.4888728975210097
Ni 1.0652084978677394 3.5608225475508166 2.3106905246452847 0.5841047588428263 -1.2024319292036325 0.12409352274851533
Ni 0.41376897722455686 4.908367955429356 11.401062568732348 1.9119728408657979 1.2457447330586546 1.2986025002896346
Ni 3.2906056984256593 6.4485141493030556 8.714392536578492 -0.5246207445445804 -0.22787224519907853 -0.04958706689950815
Ni 5.697812980241671 1.2222283789482362 12.800089814657214 -0.27466323741068827 -0.4415697415596718 0.7646152269284896
Ni 7.851452452696768 0.010472576058752354 12.774743118491905 -0.10306884086773217 -0.11384433421668134 -0.6708771765433801
Ni 6.341716426718439 0.3971969484371974 9.432484140916621 1.2257510635455473 -2.0495299453183864 -1.5549157744382252
Ni 2.112511943610167 5.5641897673761225 1.988840565912067 0.8697157535142699 1.0025196595525896 -0.4266493728044136
Ni 0.5524547450228223 3.971511085700051 5.810560717587847 -0.057932096430093775 0.6952430069822543 -2.45559738020639
Ni 0.13100483965152404 8.146771213096427 3.3654062769127067 0.14750033170822985 0.1789500655770789 -0.7022837158791195
Ni 0.8944091527092378 6.875659199774324 9.943558321027611 -0.19375704868292437 0.02245832900351616 1.021379729681886
Ni 2.786999749477637 3.1379589406753077 11.509495857778383 -0.9779723092305286 -1.151112967214682 -0.5908068534533503
Ni 3.3166427429908842 1.5656423280060545 1.7178591078021423 -0.4314596497088633 0.7248330619345452 0.9122297156170804
Ni 8.49586930568609 7.668358855157291 0.8753315167811472 -0.17552021395992354 -0.8714481628243443 1.7070602897866858
P 9.014382379445047 3.2974725105310654 10.191111939812895 -0.2999803760192382 -1.803488485409449 -0.5612088280812593
Ni 7.7690507074318935 3.734830683412779 12.2739874924859 -0.9197229386703322 -0.005642800108074153 -1.1241135558077027
P 4.141824528266314 2.25723757230969 3.9738837572259245 -0.36720572482579983 -0.19267692824486815 -0.26384069287388756
Ni 8.402805207312287 9.099672036343037 7.1182905336205 0.037645835377231936 1.7392962670022563 0.3791945217565599
P 7.677911883480166 5.80101685723841 1.7524911274659234 -0.0030940655442914453 0.012881226838042333 0.16535741449430877
P 6.128891091318039 5.288261270798805 11.075079687573073 0.0546102311457124 0.1304207505181238 -0.8606209903018534
P 8.933025783152157 2.7572130037760822 4.175398563795296 -0.31620789362169416 -0.2796545199776926 -0.6475768112545428
Ni 3.782174098248984 8.49842717027542 1.014158471370365 1.0905418904998445 -1.1992555883581797 -0.7935229111017753
Ni 6.048194589112718 4.281397755893423 0.6370623046969902 1.4400651104442168 0.5405515568422238 0.7540662477680496
Ni 2.6138900750126437 0.009164306249084176 4.348185525595256 -0.1276035927843028 0.9030051116950191 -0.18168777622321614
Ni 5.9169275454208545 6.044829942860803 8.720887128962296 0.11672371264700541 -1.1647207878061037 -0.9407949288492831
Ni 6.935278531044627 0.020141120846951806 4.423019108786683 0.0844424840157965 -0.9479551940431481 1.3486749914659935
Ni 1.249393084246392 1.1372045932799624 2.6789276785850755 -1.0359283169200222 -0.2504676140010912 0.4801113492782957
Ni 4.736120070467578 0.24529829731942399 3.0509897110433926 0.7168251040284042 0.14460141289387998 1.0150648432074518
Ni 8.697463873624377 0.09240858827295313 9.66659200985706 0.8513881588496757 -1.7365197326983834 0.8605893657329694
Ni 7.2801135159854065 4.410684517322579 4.737167969831594 0.9821025293488183 -0.6997640347810594 0.7171585761084229
Ni 2.742855957371454 6.696324471344617 11.480445300343936 0.3252260379599044 -0.05072837959280296 -0.2003359874520227
Ni 7.026774905960453 7.401176605240264 6.497857099146188 -0.5223496891222166 0.1229529813861689 -0.06944292528317073
Ni 5.045117447237419 5.886489873605168 3.7314156133069525 0.6495871568163523 -1.4952934347899023 -0.43610794711415213
Ni 3.9002851000566583 4.725613572907103 10.453277474664398 1.2895280487921918 1.6730924174816733 -0.15475444216748188
Ni 7.589193404516194 2.1215148935267347 6.322789145554739 -0.735587729347888 0.03304613182169147 -1.5783480373192367
Ni 6.955998151015545 4.051345798402156 7.413210487175586 -0.09040615779839914 1.6042889255547146 -0.5696867836452835
Ni 8.106065411029666 5.193097706507595 9.52972608478633 -0.19753862721254367 0.6746608119555284 0.10445260858913623
Ni 7.999817766851359 1.9125492749439257 8.57328550699513 -0.2913396696251047 1.0560168601397815 1.0901986482278128
Ni 6.284893327346867 7.5084510624436795 2.4725419277278498 0.17289460341161836 -0.7001939232296264 -0.004762968606282119
Ni 0.758314254204681 1.8099413162206865 6.989931571103315 1.2573355232200474 0.026719161162399144 1.475236773249343
Ni 4.885319670205069 7.438655280656688 10.15468116376049 -0.1291701659404743 0.23618873548457386 1.1098771004933465
Ni 5.44201735333521 2.2375631013107555 7.932202129148031 -0.02832687196915121 -1.2610978184759571 -0.07361505438298935
Ni 2.71723147161096 3.4590488744104766 6.6671693990129715 0.16432948745042666 -0.4297665782771566 0.1255783348241579
Ni 4.588258994852102 0.9345557083962521 5.809286369279901 -0.8300251197928673 0.38001264678248103 0.007548501771219259
Ni 0.38822333603563314 7.615551328151764 5.61953865661879 0.1160400563164195 -0.4319139636374626 0.558721028662399
Ni 1.9533192528247554 2.299593609595373 4.749391628817092 0.7761301695466246 0.20531621427543348 -0.7822738205505172
P 1.6677093762964248 2.7476874793735226 0.24700445717632133 -0.0005507302971474386 0.29978368662739985 0.5490241130896093
Ni 5.234115219671263 3.40677308986438 5.587509424614188 -1.2504117995170208 -0.6154344221940433 0.10248828577391382
P 9.155321635114486 7.141081198791167 12.106486784170555 0.5519479716046236 0.6884861478743949 -0.6361922235666849
Ni 3.9165215810161707 9.0909624615765 8.717639832770395 -1.0885058339064222 0.6021940122443693 0.5135786277978058
P 2.683539169224621 1.0305993981375545 7.426575558854173 -0.01767582001320827 0.4771388969135331 -0.22547880526623748
P 6.2028766369664075 0.006389160689262467 1.2548351932794617 0.13903368899811538 0.9254837524135094 -1.689454918000097
P 4.321186760616337 5.909143935971601 1.670183812327465 0.008945382118745883 -0.1553080006781067 -0.7344636430457737
Ni 4.275860299936593 3.7285322856605574 2.281237493176889 -0.3072206025214193 1.4289072940551844 2.4300012769048407
