# total energy = -340863.19730147265 ev
CRYSTAL
PRIMVEC
9.31507746457405 0.00000000000000 0.00000000000000
0.00000000000000 9.31507746457405 0.00000000000000
0.00000000000000 0.00000000000000 13.63355745186425
PRIMCOORD
 96 1
Ni 1.6545812892518583 6.570045111393144 11.558079906208025 -1.427990952888502 -0.8827119086636217 -0.01028235576261455
Ni 6.912066804393305 5.2579792142380235 10.821881402439153 0.9513189683090583 -1.3612104049288427 -0.7957047492444426
Ni 4.8316933320372355 7.395873288883932 0.004326853403016981 -0.5344305315461505 -0.4701660651401257 0.45719716368428354
Ni 6.4440307457612525 4.503765350982746 0.09076331862858246 2.6989584650696874 0.9710681259115276 -0.6255756243931032
Ni 3.6777601870233765 2.0101471046373502 7.077111343886641 0.734236100416 0.6582664297579051 0.3372127780081354
Ni 4.116779779884927 1.2578987226910872 4.8178129353615935 1.1055383639086767 1.2029554058072702 -2.4539179356214382
Ni 4.181873540014706 0.5691959350283574 13.5744969893719 0.8674341565689448 0.8945603233617755 -0.6499201146757387
Ni 1.2391754173303464 4.586688169053053 13.423559202932447 1.5418342586639189 -0.9797209164905192 0.3146726879240903
Ni 0.661246597338957 6.426937578926944 1.1870836420873936 -1.8713550673444352 -0.40806698181653595 -0.20104946857927955
Ni 5.294568837848466 0.31123908857473537 6.990428960620517 2.265634251348259 1.1191325576533437 0.2097058587026969
Ni 5.4459481589516505 8.247131627387066 4.797675601267638 -0.43591717125958473 0.17825689616479623 -0.2740220042822636
Ni 0.5077862879683155 2.151689704118175 1.0128572309054589 0.07269537078219739 -0.4814318678619322 0.8111781622896932
Ni 5.652165340084029 5.423293890972883 7.908880677675478 0.1556738686579577 1.2371047979954695 -1.4556202845699964
Ni 8.505625022292818 6.555057152027258 3.5652573410062876 0.9121896064077645 1.9242264614221698 0.9778075015178902
Ni 1.1504772513378219 7.99501906042764 9.591261883603254 -0.256265708740107 -1.7112123642818464 -0.45788673355214043
Ni 7.087078476591116 8.1804915644265 1.6949649438441068 -0.9218626107211542 1.2716997623615196 0.46374293522260135
Ni 8.958058326457586 0.8929824327179773 5.897222667501056 -0.035379407940558424 0.27366462094284477 1.1754116918610467
Ni 5.597485836368831 0.19468790996571755 10.819249893103626 1.4166485312924892 -1.211506637811391 -1.3612260886581267
Ni 6.7238649827473305 1.6728667859797859 5.6649335165307795 0.2767553440530266 -0.5255262870779853 0.6943708887899461
Ni 3.429774199305146 8.967373403751488 5.984136064684071 0.5511218761589025 -3.702398322443701 -0.2502020190445304
Ni 0.2345396736444845 1.7656170105951572 9.37529274805189 -0.991023743097848 0.17809183134184167 0.3614209998232227
Ni 3.137513649209004 3.4669599878623987 4.965900308149113 -0.32484062959602766 0.31016117320698194 0.43077779315049036
Ni 8.566657408722458 7.669159026532396 12.108548809844725 0.7114792663354585 1.542138934388531 -0.6640002469178887
Ni 7.012446077312381 5.966791390762827 5.533247200334631 -0.10942409366179863 -0.5585443938752187 0.41249622123248314
P 8.734095923080327 4.531337979772694 2.7371274079161783 1.060377193991006 -1.4349815252737221 1.3335957285353677
P 8.558637127172409 3.4326432431116674 13.603494824987813 -1.7289064391274998 0.12753622988147714 0.16445161485058774
P 5.106823454989893 6.376086571979539 9.797592708678618 -1.184523681464644 0.7455006175862258 -4.1246115138536315
P 2.255860213495869 6.577208405832154 4.663739693905013 0.5939276584705191 0.04073450160488468 -0.35291527634505676
P 8.00514454944611 0.44037214208462516 10.308700753209939 0.2949695530682081 0.6667145605252582 0.7882241245966811
P 2.874437236274654 6.687955359779343 13.292036832096672 -1.601324700720068 -0.3382039382768111 1.2803857201712916
P 2.4324833940655246 9.131206983196618 12.823069265735228 -1.620443680937706 0.06767349208757378 -0.26784724293011936
P 2.387631296895392 0.3921023430553599 9.222570192802927 -1.3669858739600391 -1.2317684733842207 -0.5617667574672583
Ni 7.655000109045668 9.105860657879912 3.9951369800270626 -1.255571232230773 0.05717850609352088 -0.7268812027128255
Ni 5.28139731855489 5.790037799111057 1.9222220900602198 -2.4937265829779443 -0.24272936481656907 0.1815481653215583
Ni 1.7135084682130757 4.652722751989517 3.3139356241091114 -0.13078610427734252 0.7405653850681375 -0.44420692207220275
Ni 2.827638287950096 2.2582914486695773 9.93236045244359 0.030357015025302553 1.052157377184375 -0.6565985551371789
Ni 2.5931777924626096 2.1059619896824158 2.797837492671448 0.030794102562721158 0.8304490947041634 -0.03660582414849179
Ni 7.943162025132492 5.8892247421365145 8.128777049813952 0.45221076621328565 1.8421414218949566 -1.3185403768641422
Ni 4.767847792264838 3.3402376763561703 0.6167838703997089 -2.0491231967982713 -2.092164492159461 0.5584268944607479
Ni 8.274760146640778 0.9171122089400983 12.359023786215884 0.6945061288162298 1.452616721856982 0.21036534666356674
Ni 0.7580470175617167 2.7563406863425786 4.6973326571500085 0.46316495123194423 1.546928642467691 0.48344709851974804
Ni 1.3893624085399112 2.1635664276678988 7.4026537336461615 -0.20114922738193747 0.36146959367297105 -0.10065714610244601
Ni 9.004717548622736 9.128030541839397 0.7598308548634987 -0.036701469186091636 0.29960988005369693 -0.9830823767635842
Ni 7.317468283301167 7.843863301179508 9.98938921865231 -0.4783064348590731 -2.026897038410219 -0.04183133421348925
Ni 6.24004918317941 1.2828538147614479 0.7693564529042417 1.0152003403440515 0.0961209487949893 0.5748235906512165
Ni 0.00017139742220777707 3.576756803925609 11.70027828713034 0.9241776320075761 -1.3101380117330599 -2.735510553162108
Ni 4.7648110770670264 4.28363144437328 9.703902592764294 -0.8294000846143587 -2.0051275079436115 1.4622987250314365
Ni 4.665707969737215 2.0007947670342743 11.42970603149759 -0.8791506736749245 1.8092055903988842 1.0624297056446608
Ni 8.226321744712493 3.9183220581383678 9.204396477002526 0.890048551534351 -1.1399865182842175 1.6517445479335167
Ni 2.9044876756247784 5.978854415858428 9.434776037127554 2.72436507806825 1.7509438785435136 1.6346559678823458
Ni 7.632252690293961 2.250392263124349 2.6533625068585036 0.3284080352323118 0.48079731960172684 0.08326466165761144
Ni 5.694651407621511 6.905993373997681 11.526968479554126 2.870060752467573 4.659873283051827 3.5736428754431424
Ni 2.6101126029829214 6.628739413422014 6.958771670437195 0.4569223127563421 -0.10628271981933955 -0.8497040862790333
Ni 8.455258399364695 8.680683269877099 8.174148928297083 0.8647949191738847 1.2666421453329542 0.02283396717538003
Ni 1.1350794285710035 0.48691213126041294 11.088608394164982 -0.10712321344276389 -1.1421660424340394 0.9022327523053687
Ni 0.6661770677506187 8.341223223132761 4.8583316585746035 0.7942911567263675 -1.8652672092791422 0.5901332244250933
P 6.2575428983373556 6.760147208807075 3.509754384458309 0.5867272840673379 0.2062526100467738 0.9671770183872377
P 2.3470175598939838 4.220363439393106 10.555795288031144 -0.3926077098386722 1.0869706282088183 0.7276741309277662
P 1.4478052034818456 4.2591141609357335 6.636324680862438 1.191136044574839 -0.8350899359102845 0.21300689805147183
P 0.1413059965175595 7.087413819373697 6.88670557495293 -0.11906650184756913 0.43912822199771473 0.07646615067853928
P 5.862108552133969 0.9505943227652958 3.0139705735831845 0.11302440941854729 -0.28969416360188177 0.45074832273514626
P 5.804606579998717 3.968865667535074 6.220133547925051 0.41161690395132333 0.006902897767420369 -0.24838476333013354
P 7.98902946572766 1.6633654071400068 7.790119031224618 0.3461159940350362 -0.25052135005716214 -0.7405170483287052
P 5.393727835642042 4.017853659023699 11.923241182713964 -0.4423922374609671 -0.8176385732030564 0.4174707916289391
Ni 4.579720491237215 5.5245580962348795 5.134983865157085 -0.3696205049148796 0.3863607004876959 -0.29663048571039885
Ni 1.105513373240162 5.488825459735477 8.480522752001214 -3.002215454957668 -0.5008316125447827 -0.9820629343601346
Ni 3.9875889728958147 5.7207429391217275 11.676323634361344 -2.904169521225824 -2.508698630906744 0.667693893719392
Ni 3.125599665350105 5.021273785122707 1.1569950109203644 0.2039743555355584 -1.5694805596262775 -0.39342274954079987
Ni 0.2571510922676996 5.374426995489079 5.279158905481165 0.15938936983633195 0.5311896560113496 0.08007957906141047
Ni 4.6426065780483405 8.638234462648793 1.9671310092018455 1.3347246999334885 0.8930210038991135 0.33418658958730185
Ni 7.039813774401862 2.773340702403947 11.259886583383398 0.24161864825089355 -0.6627275508530522 -0.35921525042115554
Ni 8.633847061243365 5.538903315267487 12.724131035273519 -1.049500399177502 -0.17325121542008873 0.20479428033369249
Ni 6.555494960660072 8.754039503566569 12.828073325257513 -0.005381833137203635 1.2458128672924287 0.571379597966674
Ni 5.536099477002023 3.026859846034755 4.301945817840819 -0.28239608727857174 0.8456294019890276 -1.509839193814561
Ni 3.411805415205211 4.4562957170930275 7.681227640674376 -0.5495625020915826 -1.1118167407182207 -1.272656212737518
Ni 8.64429857796712 3.6406116587752995 6.946187932520864 0.1570265260311102 0.03257741971538906 -0.049101128402025115
Ni 2.661969638278068 6.985721120556179 1.9519707209060218 1.0763203475838237 1.6446842986526258 0.7342682392055161
Ni 4.21142096519096 8.623106777123496 8.757392931392372 -0.3942156777557404 -1.7147759132633886 0.6294929571696384
Ni 3.176078069205754 8.494605285854133 3.642559441437454 -1.1733674077375083 -0.12794066440874738 1.5728595034008395
Ni 1.7862033314146786 8.79265981402708 7.239760045499987 -3.3837095713816825 0.6313307817093257 2.17677615476327
Ni 2.0983422564560046 2.0937219781182295 12.41992483005568 0.33670138558935564 0.4025223978492229 -0.0389360149435652
Ni 7.8393827490011425 3.6360006955148183 4.78081158533476 -0.3198511468012363 0.740224456788951 -1.3121843527391273
Ni 0.24456083379726312 0.8956428187931154 3.5484603936299255 1.2230488341230354 0.17494017308673743 -2.078194660242931
Ni 7.3806151922765215 8.301550308938037 6.162667904591246 -0.10364913885123439 -0.4732624446772624 0.6289157445099297
Ni 3.555741989550568 8.242651075208702 11.117811161481363 -0.5721496433634792 -0.22088475813765182 0.056921909998024545
Ni 6.339422427750746 3.060496590143031 8.189541162017525 -1.2021059133227814 -1.3088357479818684 -0.4159823800088707
Ni 7.454222933052927 5.947378769682338 1.7448089909360416 1.4530237274874138 -2.1751550742200796 -0.8338642910332994
Ni 2.3666257975976452 0.09963779276648188 1.5359426018212774 -1.0239487759606432 0.08267279370988341 -0.7176352586345254
P 1.9084450907425403 1.1057089898633339 5.56371868117844 -0.08883007156053088 -0.09605512855406037 -1.0926411962310343
P 0.584043236727106 8.297675236783775 2.414653404617269 0.6692540391176602 -0.5450712990894484 1.4599487367420212
P 5.290870752162788 7.513541345260488 7.1052643019919985 0.40062158128208425 -0.8574479918905104 -1.3932633195993296
P 7.053255430936962 6.8391204341047676 13.578968226472973 0.05188846133917515 0.28054103634770394 -1.7286938088960615
P 4.143048297853728 4.107362236740793 2.987535315730823 -0.6579882363958539 0.1776503729290489 -0.0013300316653331935
P 8.869220434305653 5.82806194462476 10.095117208953544 0.9850374436074263 0.996256452251697 1.318094290465659
P 2.545745418882066 2.8851216299307585 0.6803154920673015 0.7018119184490236 0.20556149751702016 0.790899100325683
P 4.821893870724051 1.4161246256052884 8.987595505048816 0.5152837834143706 0.8009719111806528 0.5813683337482697
