# total energy = -340892.8573096067 ev
CRYSTAL
PRIMVEC
9.07620852234042 0.00000000000000 0.00000000000000
0.00000000000000 9.07620852234042 0.00000000000000
0.00000000000000 0.00000000000000 13.28394860966538
PRIMCOORD
 96 1
Ni 6.104657695572694 2.0966676483514144 11.325682073075749 -0.1840161672460766 -0.1575273769269287 0.42159304132742875
Ni 4.620861011975288 0.3539494327729648 6.203325155888739 0.021772872900717343 -0.7352313744497337 -0.8430860667418835
Ni 2.900973998349282 1.750065406188866 4.853091230618331 -0.14675419757082467 -0.8862908842641316 0.44441235321478945
Ni 3.547989658688697 4.288190749537248 4.614285299069487 -0.45754400550074104 -0.09298805959296244 0.44611416639724466
Ni 4.996307444082127 4.614698266546663 2.261566015798194 0.17002011007730075 -0.106593566191539 0.6243440659788473
Ni 7.496948047194537 6.157363237110296 2.390406422952123 -0.35898385113663983 -0.2439994897782443 0.18916351577497098
Ni 5.150820814003968 4.48475419246472 11.602120687055685 -2.104082069532654 -0.14200845535572318 0.7010105055936507
Ni 5.6160490985113505 7.838086411966757 12.335381201425193 0.478038525909667 0.5151824819498159 0.8889437485059464
Ni 1.492282938348165 6.884167844523424 0.2960223486063671 1.0554825849028662 -0.8225681492941899 0.122665274942421
Ni 2.933158232944139 1.4934356168009417 0.5361298084239369 -1.056918288908128 -0.3042700045335276 0.33217495847391176
Ni 0.7374019882120442 8.57131697484891 4.75270473645224 1.0872897021111338 1.6938234793814377 1.0172343400549448
Ni 8.733499740775446 2.3999219197229205 1.3641686278574026 -0.7520810990172209 0.2276071644631499 0.3943637732978305
Ni 6.878005099094798 0.8825986303246285 4.940805522770507 -0.42278937562837504 -0.41535863038194276 -2.0324241388760353
Ni 0.8715311019363124 7.656144740593801 2.611610863764981 -0.34017288907772386 -1.5721650484369762 0.6395565120532276
Ni 7.615637622997397 3.7761836875053616 3.3867562641492506 1.31582092105045 1.0377841391818385 1.139826081446953
Ni 7.527389649797795 3.8353877941783034 12.426987371691942 1.1959257526539984 -0.11884410142411792 1.240703056869689
Ni 8.184906483128255 8.969390394221676 6.692492847380721 0.257791144245698 0.42617114761641445 1.1277059011446515
Ni 6.95043324124566 0.7226958079204349 0.5509539794233108 -0.6406335471674902 -0.2634467998695786 -0.8011076654275687
Ni 2.0073305301570614 6.396239963083798 9.263720937602866 -0.5707867015776815 0.5082939823600988 0.6042195273148304
Ni 0.16980768851061417 4.85803141079035 1.4803767683138915 0.2607445704470671 -1.009948605026809 -0.9429435997611696
Ni 6.299151763010142 2.0824996872113775 6.840569370383589 0.5869771952946149 0.056590237690218675 2.045324648987787
Ni 3.157549330487469 4.373125906711154 0.37663995349691926 0.2740263751576377 -0.2303199354086227 0.364680644411101
Ni 6.2533804446057815 5.609722981333511 4.520342005168171 -1.0454259719978123 -0.9081588879818165 0.26484368021710514
Ni 5.239005253745544 3.011821730189944 9.10075307965928 0.6405283890481935 -0.700429179168884 -0.34255450193602294
P 0.08258351160607551 5.478871286422611 12.617518766590157 -0.20826346982921554 -0.46699100984625386 -0.8308699842916659
P 3.902070696481861 6.123227617733178 12.568912948336962 0.5914136337994138 1.1523095586259444 0.6175967199526847
P 2.35588415710187 8.481553274864947 1.4762316639880395 1.8780324793646106 1.8003607384137448 -0.6018451135453828
P 6.522635239724513 7.968956259294237 5.722964109300136 -0.9637139995393014 -1.0174094321802283 0.4132513542309528
P 4.902196240327455 0.8744863153554002 12.68850832972712 -0.49019033078085267 0.7319030814074491 0.05147091418578232
P 4.092081117024255 6.0484941186767625 8.280057820352916 -0.08920031041575605 -0.07046365323820122 -0.4333681795854859
P 4.766425240523601 0.9248928533332504 3.970399115348319 0.6318198055306021 0.7978863302767936 -0.9279183299969309
P 0.410673011720364 5.617092862464652 3.4760507241646432 0.013219841124383683 0.46168913801736616 1.4046075409675551
Ni 1.4049516621858091 1.4676773376751087 3.005718887736029 0.7308419871327865 -2.6956473984185836 -1.481098631346759
Ni 2.2841276543644367 6.441938671821842 5.06431910327928 -1.0869258910138118 -0.17981087091547743 -1.0863293950803936
Ni 6.126558586175455 5.666222377936158 9.07179452949054 -1.2227403017436813 0.8319490762884575 -0.37329615399425387
Ni 8.408208435676837 2.303242149022296 10.476067291296289 0.9328365932341547 0.7687197360151663 -0.7360659545358872
Ni 2.3650511274743473 5.020432005715836 7.2514284443738894 0.43866182388425745 0.23365697020165566 -0.9118571627690102
Ni 0.36012397727236733 0.04739959017151181 9.269180276889049 -0.46801945111076815 0.5958539289589544 -0.4755445558432197
Ni 1.3944414129864735 0.942546078456487 11.563996074135297 -0.513108887250239 0.6269182544639268 0.9550936048601423
Ni 4.218231336041152 7.150672548530414 1.5407389991645841 -0.39415782793461146 -1.056016603029465 -0.7357327395661845
Ni 5.917351985100596 8.117079978580211 8.00141368775861 -0.20700491483176606 -0.8047997695671752 -0.21248882076447273
Ni 5.451306841847152 2.9754896684067482 4.785516137039908 -0.4450309606353948 -0.2905449416379512 -0.9328803019878965
Ni 0.8751225575564999 7.401974603652354 7.047732009351636 0.4089522126349666 0.38819929635833145 -0.15075149165567583
Ni 4.881320961261417 4.449992314715622 6.843013593275973 1.0458640879764955 0.03660093905248535 0.35149911272382045
Ni 8.249374790609155 7.130822881001099 9.049915421787675 -0.2955573072508781 -0.40395295964816236 0.05195428158010407
Ni 4.622004614219776 0.09895426849799414 10.477222692611553 -0.23717166822313349 1.178905306836602 -0.3774405151799306
Ni 8.157505410302008 7.003102477950104 4.651852632800894 0.322831826696115 0.026825347722960254 0.115287237310795
Ni 7.111835453259293 6.167092932396728 6.889347636594288 0.5334709958463586 -0.5672894870577004 -0.4869633392031226
Ni 2.4215777527018627 5.5944114179489866 2.4169879141698214 -0.3018462255833834 -0.4297735202556921 0.6023966151734786
Ni 2.147902844146104 5.286673499682427 11.6277718669237 -0.2689386762220852 -0.0022286322202026134 -0.357278695520075
Ni 1.1557552873870522 3.499831297504176 3.9309729741592045 -0.09817834554465028 1.5553700883668247 -0.631769669018957
Ni 3.7265277519530597 2.551131549827353 2.693107953238793 -0.03758310046009656 0.3649781210468617 -0.2594541337704177
Ni 1.1263937535702553 3.2114801601441636 8.406268849965352 -0.357634536197597 0.9898541482697791 0.32525534853594307
Ni 3.485300288032556 2.470770801631396 7.140653322199544 0.8078426701585572 0.46109521318710905 0.9799008937118091
Ni 4.453168987616976 6.706192476173015 6.00809046985486 0.7288375551082481 1.0830301555038315 0.4304615474616522
Ni 0.5265280876743883 7.205302246225406 11.334794586198488 -0.1969138491443512 0.5207612615891741 -1.1391411395647864
P 0.34736010555472846 5.571457687184634 7.982603246078452 -1.1443288544133132 -1.3117984301546182 0.6838386218000546
P 8.55871012153468 1.7459085027922379 8.066570879448689 -0.8728789817335999 -0.1261113245094925 -0.1010312416124131
P 1.806319745167694 3.310773878832188 10.51679586837496 -0.5882676319712642 -1.1065156402202816 0.49724003853878235
P 4.13756199676335 6.10499351527941 3.6696108497690925 0.2887742228907736 0.9363368930779293 0.302705231149569
P 6.779555467777706 4.12756001522823 10.406166873154074 1.2912406606079245 -1.561149156942447 -1.6227484178114828
P 6.469248982565194 7.925363230879376 10.20803687667582 -0.2025815889530898 -0.8133710561759541 -0.3385302112679782
P 2.700398871357814 8.369661779070983 6.073965589620645 -1.6672904660879155 0.1428792879964507 -0.8941021527784343
P 6.9578575796265385 3.9504105818321733 1.3155600867417183 -0.8306169877405952 0.548239669515101 0.34361508199005336
Ni 5.058270718075103 2.8754426244306885 0.46966291987767167 1.0060281869264802 -0.3166251836647708 -0.22000055576048563
Ni 1.4294574245676799 1.2007642042950881 7.23219323614578 0.23525259682354965 -1.3471472419675574 -1.4028651043551517
Ni 6.838568974076566 0.8847451535851145 9.245521324740597 -0.1292169600180097 0.3153666286673214 -0.6009909930752036
Ni 2.704201802631149 1.4156343593426468 9.565691833122225 0.3813280231597949 0.42804831003446925 -0.9862312068052114
Ni 6.360525083464295 2.058120991745561 2.538150756731593 -0.3296938439232709 -0.7123069044430764 0.1139068120235006
Ni 4.27296994823562 6.850694788351447 10.42893544926932 -0.3917366200876286 -0.9854184810959288 -0.01213072182526298
Ni 8.170212101907422 7.309406355306909 -0.020891616240959306 -1.1740556920537846 0.12605090358520227 0.4576663900112182
Ni 7.5629139290432175 3.9750706397549673 8.241640045904774 1.3170951597771832 -0.7519286325997566 -0.4403662081698739
Ni 3.2588670436240696 8.45240049383881 12.595242120964208 -0.6063049490889494 -0.7144622602231825 -0.33419841666184374
Ni 9.146730427991814 4.681108882601532 10.412450332152952 -0.6073081935424831 0.6833933067325197 -0.4497833877187157
Ni 8.70110675338993 2.4712336882541646 5.615576228059463 0.0878481672632358 -1.008127235547354 0.5384054570334986
Ni 3.53186123655811 2.60999076058529 11.758817792692 -0.10191930064432127 0.1121026689352263 -0.6501895662870416
Ni 1.0471493789939168 3.173305628078183 12.74883062526134 0.16287372884050658 0.5201755642890331 -0.37059546723363923
Ni 3.3185158845032015 8.242413338851046 8.181411235315938 -0.18261902978823388 0.15499998251938465 0.5635395330969649
Ni 5.57460713146112 7.822121361585383 3.5457914010409604 0.4074905404877756 0.3886551529488274 0.8415734867520989
Ni 3.0779056027463887 8.505850284456157 3.6362811976880907 0.2949695530682081 -0.23683125416457923 0.1244251950563212
Ni 3.467955653991165 4.320275145840919 9.689457732221449 0.24550924155455137 0.6829104535588303 -0.4966324868617705
Ni 6.9272979863155175 6.086242068953133 11.34463773408854 1.651511348876788 0.538308526444318 -0.1505190639298956
Ni 0.42856131063830066 0.09966493560706839 0.6587666272119367 0.35017833702986784 0.6635934983977733 -0.3207052672714154
Ni 4.777117013888728 0.36294213994628244 1.7498811591605876 -0.14425379974647415 0.13528450636832828 -0.2429239973258784
Ni 5.977518169852233 5.754688180134711 0.2853124228246607 0.09528354049535848 -0.13467155537467773 0.6818871545006385
Ni 7.931226461434445 9.114328364398007 11.30214292687672 0.24655259521740117 -1.0316690274230362 0.7222673580898981
Ni 9.175320484103997 4.829241678095797 5.748707866492706 -0.06548316930447431 0.9450290215352887 0.48736237441375424
Ni 7.93502939270778 8.655462501901622 2.7417137714919906 -0.4942832699033036 1.536150320905264 0.6005047974674045
P 8.464925661278432 1.6754952788816624 3.4863585739191207 -1.2145796203097599 -0.6294747023371934 1.0201887946975785
P 1.7563915233667047 3.189261602251267 1.6901696924442582 1.1668856566679067 0.3359794198216665 -0.45647211259280096
P 4.729993340449219 0.9483820803866881 8.303676837184893 0.13267997886594568 1.168757933989955 0.8539867728147874
P 8.468783049801505 1.6706485836550258 12.5852655528123 0.4080968066132069 -0.18221948035697005 -0.23547756835016218
P 6.50016254799951 7.79072675711172 1.3895411681309284 -1.2716092595302422 -0.21194760354902206 -0.6431213465863506
P 1.8723400842661118 3.3088315702582176 5.955805156761067 -0.5755347577856282 0.007298847654258398 0.8057055692108962
P 7.006968942681466 3.95156326028495 5.915993276719646 0.011413126932948086 1.3336510072533354 0.1297959724499313
P 2.038652524964408 8.442144378471582 10.316340547332912 2.3668768376405303 -0.8986784592952072 -0.0024433193341699857
