# total energy = -381163.52283057704 ev
CRYSTAL
PRIMVEC
9.32580033927562 0.00000000000000 0.00000000000000
0.00000000000000 9.32580033927562 0.00000000000000
0.00000000000000 0.00000000000000 13.64925146287267
PRIMCOORD
 96 1
Ni 3.3296931509059835 1.3913721374928063 9.552196472520864 0.1882687718748435 0.13399535524325956 0.7943929724115545
Ni 5.215864287694721 0.6193077623168334 7.827532347238748 0.6790707680977659 -0.6433319199352597 0.21101197910863015
Ni 6.020969974186929 6.032851044075974 7.123162093028703 0.6624560423592204 0.1692734617192633 -0.4631775496374346
Ni 0.022658897574105684 2.380121488235452 4.094065605795863 1.1064313080365913 0.4236643220341607 -0.29098254339600205
Ni 8.168459367930854 5.312265087885498 7.690588561776674 2.516346377259989 2.5742746170353406 -1.1366638816688877
Ni 8.90658715493867 3.327594845784292 1.6893948802166738 -0.23995103074048355 -0.21926239204288042 1.8505247608626452
Ni 6.584985065097057 0.974229079300541 1.7232867045422346 -0.3042509783701341 -1.0001665859393805 -0.7572497877023538
Ni 8.964826779316283 5.088557784511564 10.86156964359813 1.2381828615509967 -1.9838693698957834 -1.55029447361613
Ni 5.303666699786834 7.179141143355216 11.996313469227745 0.8663080133843015 0.5516083288770178 -0.18617409412934388
Ni 5.797048177400556 1.6627436074310298 9.819721982316041 -0.7916457486837205 0.28620774771517804 1.5083762361157893
Ni 6.330791719755081 4.227525272175873 10.94844693627659 -0.3980034269329468 1.0864494655980257 0.009230003238700232
Ni 5.887741587660332 4.325175729639123 2.9675247543219805 0.7820149104621759 1.403219916591409 1.0768106569566809
Ni 2.65022464930012 7.251770477967364 11.506974726148483 0.1826264859874016 -0.7642874112754258 1.3509617306176411
Ni 4.449581908854076 3.1436061269138427 8.272292831152688 0.7014146830106048 -0.06201680802242868 0.22684843192025447
Ni 5.139094297642436 2.826743401937348 1.364924167158953 0.9720472019953452 0.4401268384655581 -0.7308304171685607
Ni 8.695479008095425 9.099351452118059 7.048350521089996 -0.0300515679697418 -0.7265593005970326 1.2571542604471768
Ni 5.065094070350783 2.77504116373887 4.908543721831626 2.0258997074939558 -0.8210388571338569 -0.5359415688740382
Ni 3.7080408788483084 1.4733459242468867 6.427801494721176 -1.638433175536591 -0.24232415895835038 -1.0364859891957052
Ni 1.6047371280669365 4.10300718335443 2.9963657250746163 -1.155673847112487 -0.12750769063638687 0.3490167126215989
Ni 3.0560555114363335 2.3923755901461305 2.3127836128501835 0.4700053711925453 -0.5792173488435379 0.49576962464084295
Ni 0.8706203678717404 6.857923269526144 6.988130096677506 -0.29083393363327975 0.24068482358271454 0.5232043238130278
Ni 7.221545558414465 8.594042275612589 12.910772560281918 0.2617030777055944 -2.2047587560191255 0.8260512227467839
Ni 1.1937211208300103 1.600643101629503 0.9012546900683819 0.08864366658133765 0.07103675213285185 -1.789870637515698
Ni 7.238593121803142 6.289525052361816 4.068173453174244 -0.49754831380782044 0.8477325643749595 -2.1233285764670917
P 8.745530579598173 4.4207558593823055 3.901365656640204 -0.8009688258568594 1.1845907872571535 -1.5758445541710924
Ni 9.234873985577707 3.2519439517969086 13.233290450706386 -0.24467980367472056 -0.8564766291161765 -2.777489725807371
P 9.008033213222047 7.483796395423735 8.723605622526632 0.013769542980266607 0.00871115462075274 -0.16194684615086302
Ni 7.421957012037353 1.4943662786659648 5.1959695574009235 -1.7331037650382992 -1.0133167501680937 2.643901890415176
P 4.1537395382966595 8.514950161225633 5.592330069087903 0.6232693448574298 0.5929730078667337 -0.35641429063725066
P 1.8555452078125836 1.6672852722944242 5.0250267009070715 0.14653642513306375 -0.36719158375841277 0.3098217875896922
P 8.640904423330365 1.1997642395804815 1.942275152842498 0.9547238802255493 0.32013448236960995 1.727754584911244
Ni 4.1638953350856465 2.945162417205074 11.525414631557908 0.6645738600331715 0.12794015018811514 -0.7105115031055506
Ni 6.772536239774112 3.0891341259547316 12.776764536830106 -0.4977102933069815 -0.2503909951268849 0.9307054058237648
Ni 7.8741464286621365 6.425140843826871 12.04528697818797 -1.7196062447724965 1.2371878446275788 1.440345103578481
Ni 4.668160021930542 8.037618386342714 0.5420435048358829 -0.8950485758521036 0.5621758199802189 -1.2826310645620427
Ni 0.9768216518508976 7.755606177987379 3.0072713162270874 -0.35996884075772845 0.9869148631357972 0.7693794810863523
Ni 9.175739084348171 7.124408019980962 4.826662260502899 -0.2584956265118903 -0.14181973638368478 1.0195619597468568
Ni 2.0586797951934 5.982482395354838 4.246964903403277 -0.22445473487709733 0.08125123077200845 -0.9075351383548886
Ni 9.30900477407693 2.3151486358673434 6.87885409626003 -2.9273539297620874 -1.2558491684825082 -2.137691787167299
Ni 1.7666796544588141 3.4907870294486436 6.709166492518976 1.4764385068669283 2.0165691741216496 1.5555305252040887
Ni 9.168045298901967 5.62799939099655 1.9074694000639336 -0.22585804298252718 0.8422139485495753 1.438715795505174
Ni 0.4394904740283067 5.519260556690227 13.252167736161175 -0.20725482605904302 0.2741922113115407 -0.2827478141910356
Ni 5.256711294063649 5.038114529386101 13.102121200939207 -1.6147582005171544 -0.005122408828229888 -0.510278102669663
Ni 4.497581804237837 5.8564348752446955 1.8383764090168766 0.515824229298873 1.8934650118695973 -2.0397101310144876
Ni 6.945175459386346 8.085664910729179 8.078664964843215 -0.5074347196835971 -0.27038260775746337 0.9452555357237978
Ni 2.988098402895152 3.6299746025208446 5.023934649663737 0.2512026923949029 0.272271340139744 -2.6864773018835413
Ni 2.108143841262074 6.418640760849898 1.7103471562918036 1.2412820693016107 -1.3324130210811764 -1.8460466704866336
Ni 5.620585379566573 0.921080409438177 12.703536485823236 -1.155577687854255 0.8743074866500103 0.5919682207513031
Ni 1.959220132425224 6.13297283868255 9.291223270185691 -0.9207709203188722 0.3930944196671037 0.22259634151211985
Ni 2.4332505739166805 3.8205286849720537 9.351279560508663 0.48296373112542634 0.3322140392419633 0.25870002921321256
Ni 2.973428918644393 5.976607141014101 6.263437057928839 -0.07449154345067172 -0.06799359443115387 1.4663682671151197
Ni 3.4832704342127174 8.017978250403683 3.3033915956406212 0.11172805920462693 -0.2975054321161844 -0.8626899570157401
Ni 4.239126568048691 5.5897356313774385 10.796421466179854 -2.5332151279908697 -2.418554982741112 0.9937216016449855
Ni 0.6912479202690122 0.3554724717956718 9.615679061962547 0.2637319352101652 0.39376907713662507 -1.7073886196603822
Ni 0.42150286994511327 0.7521491281209857 11.738902722699175 -1.1239492623156966 0.6057894429051115 2.0214897513517185
Ni 7.7621901931692205 9.028969635436258 10.261999005545954 -1.0759858470625405 -0.2985359302632278 0.5349321537729175
P 7.810777613987054 6.756477211242767 0.6338373595594793 -0.7703243614981249 -0.6455636374792559 -0.8656953195009672
Ni 7.624569354587883 1.3610166567323363 8.404908512583752 0.1317286706962699 0.40569771025341095 -0.35634435663126374
P 5.438611033612948 8.111637265235448 9.829372320715715 -0.49572308767362366 4.683509434413527 1.0021828450384611
Ni 2.940602100740598 8.354854143340843 9.504411070549544 -0.4163546757466248 0.29785175971200967 -0.9892802780441801
P 7.740890064733916 1.2182573020529892 12.752714229815306 1.407230580412699 1.4591195559725065 -0.8980958473188598
P 1.3277888294052842 2.406243055550376 10.499359280911694 -0.5246834794617157 -0.048098912389755874 -0.15842417770958522
P 2.2213310824263823 -0.01397098179024889 12.55400846511134 1.7919018090131138 0.4803460909969211 0.6756285751854364
Ni 4.188226348696727 7.547743409732351 7.629904645077303 0.5561892633794808 1.6370028708479676 -0.3295717165231098
Ni 1.6757530991855167 9.18187546110405 7.599998667902902 0.9160750575050997 -2.6037199188796514 -1.5625977164635152
Ni 8.88180850290163 8.46199826575468 1.3565039018506186 0.070259250536879 0.47138116849414946 0.026787809616805477
Ni 6.979904740600475 4.6565960292598865 0.8775755499151071 0.7487173247513105 0.7335267330538012 0.5546165195757223
Ni 7.134144155745609 2.6225923022975786 3.4261396475194106 0.07508623961187715 -0.1216589451650937 -1.9176315818134715
Ni 7.956409315232983 2.225676905478419 10.703606436297035 0.6728008759286542 0.4004038088443233 0.37632568484919704
Ni 2.091161558477184 4.427890096796057 11.737592447723188 -0.5821077830174555 -0.8599324488752609 -0.9500789252543703
Ni 9.197570783414303 3.4373781697511903 8.893920852644086 0.6724527485606161 0.09158912236290677 0.8156333698475696
Ni 0.3189787491192137 4.816720024546298 5.7736059125810195 -0.674418356927419 0.5287090556813411 -0.30689972884689076
Ni 6.89019986519803 4.166217459420318 8.822003076613205 -1.5050777678701757 -2.8924416912659345 -0.044168209876782
Ni 1.7531106146718762 1.889873479603456 8.07372322313662 0.4551317965148226 0.45593475203209216 1.933870669380153
Ni 5.681650721508066 6.270481767657398 9.380803179860889 2.826759004356145 -2.970905589100793 -1.0999770677708152
Ni 3.4444098233589915 2.1590440606140384 -0.04270097551644858 -0.43668618821512534 -1.2717822947729969 -0.7551939336145896
Ni 4.6974710130304365 4.467356884684938 6.415598684713473 0.03861796948251414 -0.8666525412079139 0.1901976134664402
Ni 6.28113183187505 7.8920519657005705 5.751289271886762 -0.007446428975716208 0.7749754871168911 -0.8420540259329433
Ni 0.4238371178204882 7.610748518186341 10.76487787843048 -0.4735660919606102 -0.7746916373278853 -0.48032500795099864
Ni 2.0046461068597092 4.040598926135056 0.679058166382066 0.04003336177280202 -0.5031227225718045 -0.042497249932262296
Ni 9.27665357200072 0.2650579029720672 5.080401439358536 2.3484764807564713 -0.58779506321022 -1.5319082577994585
Ni 6.243278407479736 7.647072511292956 2.0070540285593568 1.1112608682147507 -0.7449169771686138 0.5727775067554651
Ni 4.698403593084522 5.957806327123746 4.416733641609037 0.11127348816571159 0.3849784754281886 0.23727785478369456
Ni 2.3872930288513667 8.720453501943824 1.0927711951354062 0.2580821931235555 0.7501214041876887 0.15182518433582887
Ni 7.061123137510747 4.593320472590213 5.3757709918285315 -0.35843903437676333 -2.2472786316592073 1.5334159526932367
Ni 0.8382299974332568 7.799791820949931 13.103431475915198 -0.686960712368804 -0.02094317791057038 0.29105042051946
Ni 1.4523908504315943 0.7500983845820526 2.942314317719898 -0.16305859115780302 -0.6361911951254204 1.8337997347984807
Ni 2.0579710343522954 8.112224790669522 5.2018933059044725 -0.0020885070979125325 1.1164406126434772 0.8441810995782753
P 4.450971453134663 0.4969728434020041 1.8590144056137798 -1.365919380368738 0.15583224861269293 -0.1612091966538901
Ni 4.123617202549711 9.20137571003497 11.27540111001834 0.12614243485774404 0.8720168908436207 0.631311755545932
P 3.8094309823284407 4.40140482326004 3.01420504892921 -1.686119940089593 -1.6694530209568734 1.2684743134456864
Ni 7.65752673369925 8.662885335205152 3.5682415332606277 0.3218846322914973 0.6924914123790461 0.43971391929785564
P 3.8458202560388415 5.617088204363754 8.4660437980293 -0.42622899743754333 -2.1304497608929047 -0.7810417479156291
P 2.836927176127957 5.72521153583438 13.178925696453494 0.9844041808988013 1.012535906138011 1.0370338912793753
P 6.664552795311598 2.6659013200092905 6.92808686247529 -0.8938342438290284 0.4040555466642977 0.06783984246210896
Ni 5.27402930566801 9.522295158246735 3.8676249102834053 0.7641447150499744 0.5089326443853622 0.6853532586723681
