# total energy = -340894.30654518947 ev
CRYSTAL
PRIMVEC
9.08119900879523 0.00000000000000 0.00000000000000

0.00000000000000 9.08119900879523 0.00000000000000

0.00000000000000 0.00000000000000 13.29125269103865

PRIMCOORD
 96 1
Ni 6.569702575502125 1.9534385458519177 11.335444956270988 -0.3204486711759191 0.46983207883947475 1.105051139859613
Ni 4.3808339466165185 0.23620289306517175 5.843392823294103 0.9962158288217486 0.39340989402499343 0.7993639432635846
Ni 2.6006828393161485 1.5433497632237452 4.784638539564487 -0.16253254345100396 -0.23389402591312625 1.2289158344267739
Ni 3.5281093642881296 4.321270362638969 4.787934106667009 -0.48157173587390606 0.08455072745888664 0.7056410623871266
Ni 5.069406776546953 4.270724409228534 2.8754563087234217 0.7100957557243706 0.8527770687774023 -0.8561539556694353
Ni 7.2084105419441125 5.919724841150985 2.65379786391232 -0.21240937367678905 0.9949914694963443 -0.8811957291294115
Ni 5.0917283635902235 4.484087178789828 11.633035846184743 0.33044717714952765 -0.2803554026994591 -0.4397476007492685
Ni 5.464638717676837 7.859278233793318 12.481283397425933 0.8284423486867797 0.3561075580301093 0.35392032057080336
Ni 1.7679368946993936 6.455106925827985 0.544366114807962 1.6131358344223832 0.42378207855894756 -0.3530435743928049
Ni 2.6696091394212864 1.6017146289385968 0.4294353688922022 0.288587046580632 -0.26830952727851853 -0.24387144884081224
Ni 0.3886144714478535 0.05800070963656216 5.0460635546207 -1.200312311757468 0.1011399992761355 -1.0315746679370168
Ni 8.757227186941678 2.2382067828343843 1.4058286267755031 0.231532210549169 0.9445855062399667 -0.15155573272452608
Ni 6.954100646272929 0.8544817943271167 5.034925464096464 0.0851780766302404 -0.45436817887592074 -1.303440545108226
Ni 0.7724513241229385 7.503349721761593 2.65576485160702 0.20923483260354933 -0.4058607181938365 -0.0032213351507750974
Ni 7.651382346005843 3.7658369906586575 3.673170620232722 0.7516846349097506 -0.04097515686078104 0.8358440404674896
Ni 7.845411242981651 3.9133065805673977 12.73038794985334 -0.36372933624142517 -0.8888254777605273 -0.4627309490183191
Ni 7.961505290484165 8.982967630685225 7.148925964397515 0.5499916192092011 -0.6922584704326336 -0.922496130540095
Ni 7.009259848754959 0.8799282219324668 0.5479168636012571 -0.3103290662434139 0.21057566290215993 -1.8405457952730624
Ni 1.8605742052886578 6.4804707145227995 9.07820488853669 1.0963086177802928 -0.045387941216496024 2.3778089111720013
Ni 0.08704420014990244 4.934351185616306 1.5479920721320124 0.1746745781301766 -0.8754873658907244 0.36854218424903623
Ni 6.577258133036708 2.0104139881259147 7.072408690081851 -0.7491664964735872 0.6564890261425081 0.5178721129668371
Ni 3.5432840477500123 4.203623430114323 0.4328798676576671 -0.7623295162181064 0.5664037420186374 -0.06288712644252395
Ni 6.061972741657821 5.636691113169847 4.784133624902319 -0.6071824665978963 0.20279859005990233 -0.16902277916103794
Ni 5.360413797214825 2.8862865466029195 9.36485747430332 -0.014000942264782337 -0.12270641259300157 -0.5373664742460229
P 0.19916885558707376 5.565458188528911 12.687311282587368 0.5451569168247192 -0.48458943965430734 -1.530984203323292
P 3.989715788615439 6.111991985528586 12.67023227170361 -0.3501616248593195 -0.15239854034079559 0.8237320876953038
P 2.353646984011791 8.586064748946733 1.387353835611617 0.6701636954161232 -0.6631682379348965 0.39867808440246827
P 6.4595203885224635 8.008046435153314 5.911204860286869 -1.4586780975597136 -0.3091124202274934 -0.39754962722497983
P 4.855117724691756 1.0821156680537893 12.677369185966143 -0.29792863569653205 -0.25601065530650746 -0.5789394125918029
P 3.9424935540243036 6.298510730964611 8.145291503153178 -0.2624782653087222 -1.1064215378445783 -0.1967888935307127
P 4.505182803973522 0.9691183093965781 3.7519482049694877 0.7268675758660708 1.3197284836349723 0.6289527683954523
P 0.2056610047234589 5.642848166064614 3.754486400078761 -0.09193442151746747 -0.6614124315860545 -1.5871419814617829
Ni 1.412435199018782 0.9670568772326957 2.689139165904305 -0.33258247832497556 0.2886479817255545 -0.019702363524933812
Ni 1.924741957138843 6.437262369871911 4.767944571516623 0.023515052402804663 0.25788267551823973 0.3625635980680982
Ni 5.839964670686765 5.389709745059249 9.145006188085226 -0.2685075022219376 1.209831306991497 0.6228903642514564
Ni 8.762939261087414 2.259129865237841 10.214234726695116 0.7233963294880187 1.5003682782096481 0.40631940299780994
Ni 2.219935410527199 5.344321912658 6.995970422197138 0.8667232465448492 -0.36914125128561587 -0.8110069268191517
Ni 0.6506951490689674 9.151215003814066 9.484637580463632 -0.09722600893370999 -0.35352179958080404 -0.8740745447035979
Ni 1.701571492700929 1.1111573423273375 11.467121433068684 -0.5690794890785877 0.424788665446591 -0.5614366278213492
Ni 4.402011302590851 7.012674379563856 1.5418123162398456 -0.8317855541273999 0.10168198782253456 -0.36164391446730626
Ni 5.534391406887321 7.767903209859471 8.038629188890345 0.1446723753411315 1.3304481840453215 0.6226612789597857
Ni 5.434625355114586 2.719610220894131 4.932170789746048 -0.8094328974638124 0.4208489640725527 0.07667261026239054
Ni 0.9879708784371929 7.556111487718228 7.262646186491928 -1.5089117969042853 0.8981051032902403 -1.465206899817167
Ni 5.1051049696580595 4.637150787257826 6.844516910304719 -0.29370174209937805 -0.23592596874149044 0.6268138676755786
Ni 8.080269210480871 7.3744330213277935 8.880058575952493 -0.6567453651276882 0.5667112459567272 2.127306844388549
Ni 4.7085653358779584 0.33604341066937593 10.551034601237847 0.0665406640347112 -0.7758113527546252 -0.8987669052439554
Ni 7.9935165168175795 7.172458075262131 4.591223531638363 0.29535521854240104 0.973024221196634 0.18528603509743574
Ni 7.113448444421132 6.251297577572435 6.981429606422652 0.4512841406339583 -0.8673503386058868 -0.31819432792410357
Ni 2.54269030275865 5.27052808991039 2.58211814428256 -0.7074128095755687 -0.546949747059084 -0.09778548098160579
Ni 2.285083931865046 5.243311736627769 11.339445224412797 0.7682463959231737 0.3006889720504886 0.6776258081211233
Ni 1.0771664146206799 3.2399175152978055 4.0042956535454515 -0.07313297254024824 1.0156363994402056 -0.7048501910547151
Ni 3.3420265164021763 2.663996958464109 2.827315056797551 0.6670063807340642 0.14963820398683905 -0.6449506864856054
Ni 0.9674292063900489 3.6095586377588784 8.171142952232136 0.22757811099742742 -0.7590678147476992 0.39136123902608083
Ni 3.7152456312534237 2.614350043750698 7.080768841844274 0.30555735588638344 0.4651189896345215 -1.0590335354789182
Ni 4.091170943394702 6.937981518119224 5.948899100929347 0.24060537649503078 -0.32449353066925407 -0.044743879874593905
Ni 0.5568545796175255 7.254860874623663 11.296448471697671 0.583466353927879 0.11983011948647104 -0.23231973944747086
P 0.07233992279413964 5.814646287986749 8.056545486318202 -0.04264097459897818 -2.215824526914984 -0.446930748761269
P 8.683088278633596 1.682482812487358 8.095409385386706 -0.6874559068376677 0.96369883003065 0.5001402429047128
P 1.8739689737544127 3.246564952936404 10.290672994579829 -0.2752823590519259 0.15193445622018348 0.4883558486752751
P 4.172965302425924 6.2582628571746275 3.6554005301081194 0.041081600531658276 -0.46307547684193145 0.7454311978008711
P 6.982325012640092 3.9578952674601813 10.460587675837694 0.310976984240058 0.15052652012906334 -0.12348262863739379
P 6.322457852621692 7.725557579109766 10.280837147986432 -0.06330107405149099 -0.24335080045065188 -0.21615804208594386
P 2.1978408534579232 8.541630442436265 5.8249843248826245 2.3008614499816695 -0.3108895667325743 -0.026765698129618418
P 7.011121494541724 3.9256570111527718 1.4863743209497484 -0.3060728620702213 0.4444750881319248 0.823196269796492
Ni 5.376187839808057 2.7624734799845463 0.6006822620374751 -0.33978388116942126 0.603561067795225 -0.4273636252626188
Ni 1.3364255637249736 1.1682962461826114 7.07765853120053 1.7241079892975923 -0.22116835081634167 0.19685548510259002
Ni 7.106283378441822 0.7944060307282326 9.20852554232968 -1.8693892018673162 -0.9009685408809645 0.7886355011024869
Ni 2.9053479832196105 1.6654918892335093 9.121095391223985 -0.580015162154485 -0.5379357164859315 0.3768231933109059
Ni 6.29255346444696 2.0581266074608813 2.675875166703572 0.5648705932035626 -1.025108857707015 0.5238396434041818
Ni 4.161041688191663 6.778697288363739 10.587452933426468 0.17714155161343043 0.4902846902668717 -1.1418328274643368
Ni 8.02464686685189 7.144805824429438 0.15745346004518146 -0.2689188787277433 0.8939723120687895 0.7824039183704784
Ni 7.663977968963133 4.089182160822498 8.23278794701128 -0.05904075611324026 -0.49844460036984484 -0.11370600886660416
Ni 3.0213693811304467 8.389919932613283 12.434086590191885 0.9828082971665912 -0.5899334497094615 0.7840280842374626
Ni 0.20538039567560004 4.961349590123891 10.199029167156771 -0.687198539411223 -0.9539543490493763 -0.2643788247655447
Ni 8.719676429242766 2.5406651953906074 6.017508467190788 0.018240177157110526 0.1294686710174996 -0.7000383714883686
Ni 3.7711676544480794 2.4418799131055358 11.243509622361321 0.0310175314274369 1.0223760321568844 1.0973038918140263
Ni 1.2772252277058174 3.4045505712406317 12.546955903943763 -0.7358152719776618 -0.26782538855324844 0.3759348771686816
Ni 2.9913923433640357 8.439557766127734 8.127495077551592 1.489758621014602 0.6304393802433078 -0.058200776710448154
Ni 5.655162271854149 8.14270245332973 3.5275118213965726 0.24334488691338094 -0.6474076326665301 0.37814808276991646
Ni 3.0859367057348646 8.296338177332196 3.736928810009819 0.29716116140288823 -0.013401875228202725 -0.7342427852842193
Ni 3.4098449102342148 4.321778909780719 9.061470963213404 -0.022814941011986514 0.07056804002654944 0.18433395559681157
Ni 7.390679286266936 5.979878703060924 11.349148485501381 -0.8454213997432796 0.42877413245690027 -0.020734404333873968
Ni 0.7406616790441445 -0.39135063669445136 -0.008469126149940952 -0.9403668401729288 1.4725276018482962 0.27043017316594714
Ni 4.5521053589989835 0.5312101818748509 1.6165224319625016 -0.13105324189580012 -0.791170865929831 -0.5130317541554004
Ni 6.104845081947197 5.672262169495515 0.3662520190092629 -0.4743464217700604 -0.6784614166485412 0.0034380791472714976
Ni 7.79738078168309 8.88444570316999 11.504363430002961 0.25945387666010156 -0.6615049912998607 -0.21743613746741905
Ni 0.019578156837505578 5.0779067787733565 5.822526044324197 -0.23190887716229736 -0.6561583822759668 0.6432013078946663
Ni 7.938175690356354 8.929424881618045 2.5609852861831315 0.2725999271237563 -0.05919887895765934 0.4511067345158295
P 8.581188145105301 1.6332627141250593 3.6866216921320274 -0.4951577020884569 0.2331131818830437 0.13862205538199351
P 1.7161286546335424 3.240444224837476 1.5668391924532514 0.1823261811381634 0.5517291707255982 -0.14289805704952807
P 4.859449456595597 1.0791097911980845 8.165985739342847 0.08766793293162967 -0.9348058011453836 0.1005869549861429
P 8.72710484999191 1.5918978528630165 12.357860822362833 0.046809504154371 0.01654864838730053 1.0761797082409015
P 6.358764486063107 8.11368802265306 1.291780573398639 -0.34094139181263217 -1.8317140559140455 0.9124965961252222
P 1.8151409668926095 3.275842738382908 6.138139481693635 0.5426128102466268 0.23628463763248983 -0.7522839590566464
P 7.065835718274723 4.025277763742148 5.976731159501446 -0.8794178112933821 0.12598585467522175 -0.002944170229988478
P 2.494850546638246 8.323808804185694 10.346362539081113 -0.6744492101653546 0.45941628282278946 -0.3389125343080615
