# total energy = -381172.4230569492 ev
CRYSTAL
PRIMVEC
9.21683608661776 0.00000000000000 0.00000000000000
0.00000000000000 9.21683608661776 0.00000000000000
0.00000000000000 0.00000000000000 13.48977126483348
PRIMCOORD
 96 1
Ni 8.357707133349168 3.0703769509390937 11.000018271334882 0.7182114428529696 1.8545662779218708 -0.09948857971564157
Ni 5.082651903707043 0.6023893637291537 9.236406182383964 -1.4137490982575072 0.03438490523777304 -0.020109626265681496
Ni 1.3532250892717455 2.703887898114822 3.776879694964075 -0.691783587678744 1.2575057302493244 -1.200299713351978
Ni 0.12493513467138512 0.7594027746736972 4.473909374871842 0.6860351152307411 -0.988088314618608 -0.5881287924005549
Ni 5.092670604519859 5.313109672910023 2.9771246902732775 -1.4479267725804805 0.9928461410185675 -0.8302115247720606
Ni 2.6992241790612024 1.2978687718092154 4.792160272733802 0.3805294385178995 -1.6911798711110035 1.4850059368209652
Ni 0.15048420426947584 0.5466450174678938 8.343922433316374 1.9472491475695883 -1.7835917464855218 -0.1008980584686585
Ni 6.944314538184083 2.064285558735491 5.751525992774893 2.3172352633540028 2.2607612395266745 0.47360645828024245
Ni 3.5604637755203625 3.8320839346313775 10.10043940185726 -1.0041839346288899 1.4547664212101332 0.7682818771467994
Ni 7.45419912665305 4.064753744492202 13.091378286038768 0.27347770174301933 0.19220847324888188 -0.7109719876817369
Ni 0.40363105883667655 7.220791969906279 2.138506896274995 -0.16252457303120396 0.21209878441490565 -0.032029774742035166
Ni 1.9679419712503388 4.264989508207396 5.946601249972062 0.6898226072976313 -1.9843223982728018 0.3023023392841955
Ni 0.7897234003074776 5.446864398020951 8.041238771583986 -0.4490087143362202 0.4469772857284883 0.3222540998157741
Ni 2.083816034377033 7.778650190142224 7.836491366610398 -0.41872883240575626 0.5382861578468149 1.5286930932962706
Ni 4.241265372152026 5.448827584104786 5.557529105398424 -0.046717201550880834 0.6642031069573142 0.2899103933777458
Ni 8.862411859944352 7.423322725803986 7.424972539461295 -0.242043394493138 -0.6601266228950954 -0.6708895178385542
Ni 5.547115924001626 1.089983034152312 4.29364557324615 -1.4735120772487527 -2.3517358682340337 -0.17408605261655824
Ni 7.540560880669684 5.774255632217842 5.859309517195525 0.7843800682602426 -0.31531906325883763 -0.3188363323834767
Ni 4.593864653012257 7.473324061507321 13.221001103537565 -0.7589724268204154 0.27526513266074526 -1.0710030491359683
Ni 1.6143472720940788 3.2801890073355358 8.276042278996021 -0.13538220828845715 -0.9767050124823308 0.013518860422041234
Ni 5.507446661537636 0.416870122173869 1.9236550739131 -0.0033552896254780925 0.05980308820056153 -0.17174686296042035
Ni 8.519057065666692 6.726548352255479 13.17524412084647 -0.9282854835283626 -0.5550924307708762 0.8246916233950957
Ni 4.510526021228008 2.2406958011984983 6.015224281280006 -0.05818689275337721 0.576308145616543 0.7504633609081398
Ni 2.885100112172564 4.175217524843253 2.04417257905405 0.38151417102867197 -1.46592526604043 -0.23508341823553708
P 8.999493862878118 5.212148450551623 1.6757664243263142 -0.6558804460242317 -0.3601989544906635 0.0498313216998303
Ni 6.0548161223209735 7.63663717990868 5.475362855162833 0.6009151455319458 0.8204115079625032 -1.1457956687668265
P 5.775887012203 0.5752660585295646 6.620657965964518 -0.3065999382182849 -1.6099134708303435 1.1571422041278974
Ni 3.359509098591369 1.4349968589233546 2.636562597326145 0.536020758851406 -0.18105811305901723 -0.4379239172769684
P 5.325792039348325 2.5190073832994897 10.205848669305139 0.17827695076945424 -0.03744297533780648 0.3301142192901412
P 7.190321109844486 8.256552357433206 3.7136125670989326 0.49279871493797717 0.522738439920203 -0.6049456068475775
P 5.3280870315308375 2.592142977549435 2.8665088321269985 -0.004525398674179303 1.5184601027143527 -1.0129884202943973
Ni 4.399481580204272 7.570266743337306 8.904948480111072 -0.11401119881184882 -0.33154426686844835 -0.9438601980381679
Ni 3.5417904656337353 3.3922473003274503 4.206164895330089 1.1398762179585982 1.265246807647324 -0.6513537617984718
Ni 7.758428451795106 1.146961514763927 10.040935508161274 -0.40111060510336083 -0.3552824910256527 -0.19919158943493437
Ni 6.945392908004782 1.7212994379008049 12.241279079342672 -0.9583416794837947 -0.37902894271297305 -0.9857249565927539
Ni 1.32505843822854 7.303780361919702 12.104911381204667 -0.20261681306639945 -0.6165153139630479 -0.5563291313914548
Ni 1.8860319490576143 8.331577403078393 3.7126143837520806 0.43339106240362135 -0.16009308077157589 -0.4206296489728949
Ni 1.9190466558759263 6.481832137645484 5.9321944135042495 0.5087403258688981 1.3735241892991892 0.09347734052455514
Ni 7.835656321262062 8.940976170642088 1.6374695487537938 1.171974898265356 -1.7110424143628855 0.8261622944033513
Ni 2.467540570660334 8.296240053569345 0.8195398650079911 0.3824325690778833 0.2497435913508731 0.6382614473908879
Ni 7.331845627766089 1.7514477086999949 1.014553369403461 -0.09908877317406162 1.534188826303519 -0.5432959523565803
Ni 6.499390210367116 8.631115358658606 13.211410063918601 1.199023931963348 2.205751458949698 -2.0903978871773417
Ni 9.055605960898745 7.490974302589696 4.838390079115513 -0.3739199036211818 0.5523678327508617 -0.32086801810152477
Ni 9.04518171929866 3.0143017202627647 1.809531287956924 0.9287408258982263 0.7048874720505538 -0.34178368520826946
Ni 8.021218881946897 9.157839106635405 6.193275120564248 -0.7268963722214772 0.6474713960249301 -0.05124517132822142
Ni 1.9735365907474676 0.23307166391366485 12.104574045004345 0.04854499878823897 1.3946987664942754 1.3488444271643223
Ni 3.056265974909268 5.289920113346965 7.977958740148339 1.4116765319991944 0.4834864363981157 -0.31244456992451997
Ni 4.30180155148834 8.23097563732689 3.4741822079775755 0.17274496520763152 -0.7272208454404314 -0.08325849101002436
Ni 6.12759225996402 4.246970593682048 4.618074516328745 0.014249053719846428 -1.7357345177929269 0.09782636152187023
Ni 7.414612815713728 6.012077653444225 3.4065048240508577 0.7687852991457792 1.033802271715955 0.37175452053874686
Ni 8.52584065701741 2.457107112224173 7.9568070230413195 -0.5652032939526331 2.4835409006941935 0.33973682998156973
Ni 6.650491020969965 4.191872347629599 9.785290891017926 -0.7111851321338075 -0.17722974045186252 0.518421557712404
Ni 4.710208774778743 4.974483115538503 0.3453732813779421 0.22012139760906607 -0.23514898136614987 1.2538663337245244
Ni 6.694059005093405 6.574618026405939 9.156047353702553 0.19875630166972866 0.5028355303486888 -0.024053441404777928
Ni 8.488254399506221 8.775432577910735 11.710254755653581 0.20221649230418726 0.8511948118919469 1.213989809244561
Ni 0.9409836621744135 1.5435158868627197 10.647018058105417 -1.839558748769445 0.46640376988421606 -0.7448264743373366
P 2.4855963525299805 3.920777548174822 13.037054254216565 1.2149632289014236 -0.7504942141460752 0.09959168095240913
Ni 7.724381459336466 4.8498530581411785 7.971281142412475 2.1931024027271198 0.037967737493024935 -0.11509157636022113
P 4.29756180689414 0.46874063223308077 0.09634911758679697 -0.9361533163122137 -0.2522609584560881 -0.8405432457153718
Ni 6.8494548613069 4.487299594320653 1.7901058842466298 0.5084690744853824 -1.6897086858821158 -0.12481728828841729
P 0.7647549913820707 4.190121148775473 10.00482394442198 -0.04047482018559481 0.40380949209176265 0.10930685135764401
P 1.8748611437355052 8.664609340952783 9.90760291414255 -0.22051271951021378 0.2942861538479383 0.13959573214917248
P 3.7936681618734984 6.6014482362183635 1.5046088567420774 -0.09490276011717204 -0.45001504411354754 1.839747210631167
Ni 6.282711611095285 8.477599737004278 10.640623417237036 0.3980031698226307 -1.0207081575361583 0.9947844956918611
Ni 2.9134971841176283 6.052401311269494 3.5054788965516295 -0.19447387224429086 0.5133564844846707 0.2396926348727743
Ni 1.793835937805918 5.630740277704179 0.655106901023598 -0.6601567048020824 1.704203537064181 0.5697302352887091
Ni 8.399680604831744 3.601497129723357 4.051261218162964 -0.27326764261474223 0.7640308151799293 0.6936738627229214
Ni 0.7600120075382116 4.934482046975836 12.130447547232253 0.6469659171434212 -1.1767185835979284 0.012840860518410144
Ni 3.8881960326520044 2.9605767827853944 8.043801973696262 1.55495665497849 0.5774648849288055 -0.3838122230342293
Ni 5.876977270266441 4.1863975470014365 6.98227868597432 -1.7640783590429423 0.20325393242976608 -0.5212991363705152
Ni 2.7873924329484088 1.594162401091258 9.51478043897026 1.2638329580189331 -1.3431162664312934 0.7985946691977279
Ni 3.2645019523369965 5.942296987525341 12.189047269309345 -1.8631874439319782 -1.5809638776755288 0.43466118736529663
Ni 0.9797865420474156 0.7080742145756572 2.154747883121602 -0.5242687605218003 0.09488964749104947 -0.7338504349418071
Ni 2.3500166938763316 6.433941457403176 10.037590718349893 -0.44959518296730955 -0.006152135644324888 -0.4749084649211176
Ni 4.765472923880529 6.11635693678939 10.64569544212875 1.4662723649672038 1.1672101298868607 -1.1204584755536187
Ni 3.9062149471773533 1.9488631205764397 11.757158312752326 -0.5463126276957172 -0.24517988323959064 0.3857906869168388
Ni 7.11826388541524 8.897445053862945 8.350896813173833 -0.7354455473430689 -0.41240031908456715 -0.5435157816768703
Ni 5.239513236856359 2.427023359277503 0.18199011502241721 -0.22087138840121318 0.9318030097633179 1.4678715911335238
Ni 8.89512241117221 7.865140979863899 9.722388749861326 0.7017247580518561 -0.7131697666640041 0.021586210811207984
Ni 8.38423318757114 5.639754343384891 10.714993145837337 -0.8921596843400829 0.8246664265841153 -0.46219641667108785
Ni 6.218599299362125 7.1626060837689245 1.2517256036866031 0.16940947307649537 -2.420479967677967 2.9895100915758577
Ni 0.719874529801644 1.9659787851665025 6.243403648605408 0.6661687153241171 0.1269559318979749 -0.02776277193556509
Ni 3.8451626250208766 8.534246411517216 11.194284290324724 0.28653273515476463 -0.3064063341502401 -0.903366865909812
Ni 6.341975867053337 2.255175450671298 8.26306497380334 -0.6657786789745501 0.11514222709249848 -0.9147946481307794
Ni 0.810454829689507 5.461989226018955 4.2767299139989 -1.4544524895141404 -1.169395567573954 -1.7362973322749324
Ni 7.5812163445936305 1.5185013937569412 3.357010414331613 -0.17407371132138408 -0.21110351038117192 -0.9508191458545043
Ni 5.274896670545779 4.267183115193092 11.739905317304757 0.7893065590275825 -1.709408478303888 0.8926008856425596
Ni 0.06366898191798373 1.7984443558430916 12.880100752706506 0.11042168168837757 -0.2894059429375016 0.9986604337074995
P 2.0674930176893636 8.693596290406607 5.775429857133713 -0.7436684494734934 0.21487634716004284 0.8827453330047185
Ni 4.04880861808358 8.100188733431905 6.47905602661989 0.3769522626896024 0.31589241926380435 0.12380350231192226
P 5.724291163858805 6.464965327629428 7.239811832829302 -0.8675092327812542 -1.1072833716242414 0.08982945935932271
Ni 2.4128662990673058 2.0033714891201297 0.5884147968732285 0.049915139662888235 0.12525566137741653 -1.0400981320269957
P 6.501823455090743 6.287614967886838 12.158735860511639 -0.2644598145151252 -0.023872178631907274 -0.05755440137570088
P 0.4114414057260784 8.748759054311575 0.15603089621901806 -0.4793271628141036 0.4482247849823442 0.697617934972334
P 9.026646661953146 3.921146221617796 6.163435613773549 -0.6222781845887541 0.7185809103772464 0.5163934715387816
Ni 2.6854542259661276 1.0307372118664075 7.357577190718452 -0.30403114904984413 -0.744821332131014 -1.350898224369557
