# total energy = -340864.77256821253 ev
CRYSTAL
PRIMVEC
9.29818426177064 0.00000000000000 0.00000000000000

0.00000000000000 9.29818426177064 0.00000000000000

0.00000000000000 0.00000000000000 13.60883254196819

PRIMCOORD
 96 1
Ni 3.2836259156695387 7.222811022153002 6.664190982305684 -0.9361155210957426 -0.8738248905866369 -0.9706235821749413
Ni 8.751376743454834 6.329590238844978 9.78260024936216 0.5408552041255718 0.3721576695144365 0.09128521796924277
Ni 7.070757813152377 5.485054748897641 7.492397000862643 -0.030570930808321545 2.696457553024705 -1.443906595677494
Ni 2.773815764853462 4.516072359343846 5.763939841795596 -2.7682265553378906 0.3849064845396726 0.951380417674613
Ni 4.019075106589461 3.582590437714247 11.576272084144223 1.0599699312502584 -1.15767133715849 -0.2963931728886121
Ni 5.294265303812099 8.004853414950386 10.768968384050753 -0.31930555871041133 -0.7006214976853482 -0.44309800527874005
Ni 0.8218730251826335 8.045718935256003 13.58262221983696 -0.3180236066741942 -0.37839825110750963 -0.2583521589554905
Ni 4.874861399624353 8.63594908268716 2.8626450394126604 1.2694341062557946 -0.23017389674906163 -0.2864867124081776
Ni 6.3951424386526226 0.8558885730629607 11.74503506027596 0.6047707718326101 1.0095115174893905 -0.4606879504463614
Ni 3.1800999308953095 5.193937894461109 8.045201956205037 -1.0624654439786025 -0.6342579826584496 0.30259981591995627
Ni 0.21043371920378284 3.388741889971017 5.15193706584393 0.962671160097084 -0.7072410598843949 -0.5513383630450828
Ni 3.817081349338217 9.135270881534014 0.5040824692442317 -1.0352968539836105 0.7132546130683265 -0.19874113216107708
Ni 2.414719884488748 0.6449704184535071 9.472197100905626 -1.154865235168263 0.6112962316559536 0.04331100408280928
Ni 6.578716492667137 5.230833090040787 0.7189523522108836 -0.21366201513696753 -0.47933616167516807 1.385900451476355
Ni 2.6519072695799824 7.949612901608937 2.5958169021871265 -1.4854710493828416 0.10383760071295664 -0.15585230321735094
Ni 7.749181239331834 8.404005873580537 10.853684141844717 0.6784986976443799 0.5219493683600043 -1.4283655626191012
Ni 8.454002210937375 1.6549094505197435 0.28172010931233155 -0.8004193811112925 0.10071756702673622 -1.0107176219823495
Ni 5.926002546270396 8.382610751345446 12.98465040409944 0.2666305969141989 -2.2873176498589642 1.1420266886426977
Ni 4.98999151849219 8.856074299459667 6.3690424351263735 1.2823904093061462 -0.03683002434415592 -0.8785215247313579
Ni 0.5088970691109549 1.8132761267075166 7.005963415370877 -1.2972945801114881 -1.1575741494589935 -0.3906899239906691
Ni 7.292370739424064 1.8719755646345606 5.040330958852277 0.4582528586423076 0.6472397396300983 0.21052629772146322
Ni 6.25444231276762 6.1871606506671775 3.796047926475114 -0.6552844643114457 -1.7394842146433462 -3.4936537992130092
Ni 1.4028821631741824 0.8894764044622734 12.864823772306378 -0.016410065926907226 0.3016698479065192 -0.37042114643930396
Ni 8.856939030606066 9.136823678323784 1.6723891073166781 0.2543705485999232 0.3558301359990066 0.8229018784845248
P 0.3753379488220178 7.106211790154724 2.9221292441005224 0.37384277052634324 -0.7066851873809248 -2.023855166260102
P 4.301665525958813 7.616031239155171 4.602289773913545 0.21756366418421885 -1.8474818602712633 0.15690337018968462
P 6.593826042268191 1.1383674142198743 9.53470228569526 2.4159789944838197 0.7640392998203616 1.464986813386561
P 7.555090938794986 4.464411646984799 4.7873970985306515 -2.8161866281569368 -2.038105505531529 -2.7930664971997055
P 6.504107861283231 1.1773732976515152 3.159848485337714 0.4578887904346695 -0.2459602130490409 -0.7768356802540815
P 4.565854838460175 1.6154479560539783 12.476319594416612 -1.0430423022569844 -1.1309588608643102 0.18185232682553842
P 4.800103997290528 3.3369324066620525 6.2501419024965505 0.7460204946454377 0.6325749385290719 -0.08101931726686047
P 0.4258150023107781 5.324568086673534 11.62186108210974 -0.1857606607410091 -0.9648434851580545 -1.2045456331125255
Ni 4.569964635951662 6.977264569313246 8.62723761375102 0.899869908500147 0.4618971402631142 -0.9358900353484979
Ni 3.1781380139932653 5.824484969320061 3.4979462759399307 0.46949680698724305 0.09229489018067975 0.5314598789536009
Ni 1.033939505561767 7.3804896326974045 11.295208426648406 1.145680483345201 0.622667963828005 -0.6270010439857201
Ni 5.447685345915098 4.323200120959452 8.070255913989676 -2.7538101228022445 -0.8944284257696016 0.3212035470640726
Ni 7.402675100603935 4.52339932862731 9.292559898153318 1.0523198709041683 -2.2091180614290855 3.0975182787267364
Ni 1.1123510943529538 3.219747389048472 12.219017447078018 0.18640240809006606 0.5652685999729297 -0.08738845401799789
Ni 6.000285741201355 0.5590691421523831 1.148420611160587 2.004429710545638 0.04547844404777329 -0.1426964825616833
Ni 8.149096149080314 7.551046228594089 7.506999799415536 1.1358856087419664 0.7500805236474243 0.4553117737361126
Ni 2.98161158915151 9.199019233573901 5.212291580588812 -1.6236441901528746 -0.2196891951676539 -0.42066692996873356
Ni 4.52948963938958 1.0417127876949857 10.073081107987791 0.381470205164614 0.2457743222904799 1.8939527501392932
Ni 3.887124572196513 3.1563430698302692 0.27076405866930353 -1.1084671075196972 -1.2010908417947057 -0.8020137221816059
Ni 4.520935309769292 6.74172296285548 0.8022538561621896 0.4172278223801975 -1.3339469412271996 0.3420526225989399
Ni 0.6796461374240956 5.454221969527122 0.09056524558105512 0.8275059529154395 -0.2695318297213939 -0.3098179309349503
Ni 5.530969183316101 5.788845028630315 12.321967874239752 0.8011027803315622 0.09565892155690622 -0.1941365435095302
Ni 3.156594120808256 8.920529313511667 11.639839121588901 -0.028000856088300163 0.32611306855054806 0.4472796474602555
Ni 2.6022177723073505 4.615070128329943 1.4447955888582842 0.7174511676481773 1.067950378352574 -0.10585283137077253
Ni 4.068838989337052 3.490119994155804 4.207007219618137 1.5550679837453734 0.7486885283959042 -1.481866876971351
Ni 4.398022610583865 1.813173846679448 2.3451285533908277 0.10038718027051098 0.8206105113471868 -1.0886374743882798
Ni 8.722124655427196 5.319044965157826 6.01544457117957 1.9410571598262638 3.271486317708191 0.6616551437244799
Ni 9.237569505971418 1.8655505192349746 3.38742898633799 -0.08278386536645098 -0.5768884436000452 -0.7521458908168852
Ni 0.49473872377094064 4.6951274957545985 2.2551332865116462 -1.7008770437941094 1.262963410929786 1.3245331041124673
Ni 6.484442201340938 3.6887664050338915 2.9595404889127286 0.3394270120506348 -0.6679456047188819 0.2848275795381998
Ni 7.364989559352817 8.217428506014551 3.585206016977494 0.8480470102915846 1.0351688130461782 -0.4072591412032599
Ni 4.745756109648587 5.563810370510512 5.438253267690293 0.48540885023180924 -0.20587980008838735 1.1130359578373026
P 1.8655691156037144 4.034184656190513 3.639247064535229 1.068516792379005 -1.1359732833597662 1.4437980951240876
P 6.375039764044945 4.031646251857537 11.128813698075678 -1.2077201741857653 0.37808303385993597 0.15906283973484864
P 8.210929075140006 8.869138248499347 12.829863528894073 -0.2503627129921107 0.9298032057244697 1.7621785709170685
P 0.6802784139612474 1.3253446037137642 10.740050100841994 1.1527034516302537 0.08608747581838723 0.36949040709491854
P 3.192596690688427 7.089800494741888 10.385648873765632 0.02054054315551301 0.028036080201609782 0.8224177397592546
P 4.786621629954205 4.3177420867343335 1.730812389167937 0.1739531265831198 0.28322475382745416 0.894533326778582
P 6.825536796765566 7.2545829181448775 9.269098719351241 -0.4797315973413737 -2.1163603726793743 -0.2100971806038446
P 2.568363083016623 7.092329600890495 0.46785953239449546 -1.1911332163613615 -0.31177813998511467 0.007872203659225153
Ni 0.4024951559111224 3.115087025781118 9.25551686144216 -0.07061200589060743 -0.9450501045812111 0.936587832746471
Ni 8.393926641723588 6.845611576820135 1.2340680470284133 -0.05057102807933226 -0.49842428865487065 0.7985162505513087
Ni 7.58927106453866 0.8454783258424444 7.356757876730162 0.5995992549339996 1.497012731473854 1.5312981350192854
Ni 5.398060935933056 2.006325030594937 8.061464480667956 -0.7007924760455738 0.4385600081990705 -1.641094267308522
Ni 3.1512848575330556 2.9611648817221465 9.399457404580065 0.9868626697416231 0.18813764561361793 0.28919716936080514
Ni 3.051031833657024 2.1165085153779994 6.178886196396422 0.29943401659746494 -1.5061679156105607 0.029891902463425938
Ni 7.851442671031759 4.104107002652001 12.686194492739766 1.6754740303399727 1.5433617510520388 0.28900536506497326
Ni 0.9430311569774634 8.738331390783895 6.7973530701220275 0.9703001373972515 -0.11117424358368594 0.9850518417851293
Ni 3.1780264357808266 5.563949843276061 12.612121436775565 -0.6341461396709337 0.18658187109072383 0.23825744508814453
Ni 4.5247103726234625 5.373104609084301 10.230222283475614 1.0029148381084794 -0.9529372206387716 -0.3214434309890206
Ni 2.2561858409823166 4.869291787186795 10.44954227748169 -1.7367079374497896 0.8547889570011085 -0.28321318386322836
Ni 4.927145090336181 1.2203216112559847 4.597376613292501 -0.19978191472076562 0.402972598012764 1.0747468324491167
Ni 6.272285528573417 2.747957514120829 0.10565433917649421 -0.6867503961302108 -0.23151112750324643 0.11063482614044819
Ni 6.697426412517379 6.93790535487555 5.719451748859474 0.04157396678704453 1.4109928756686088 1.309972432689473
Ni 8.22602932655669 2.3337605931802146 11.422859480588722 -0.3857724320843937 -0.6282835102425696 -1.80414257405368
Ni 7.968832248701476 3.239543223571944 7.248867324212713 -0.6471721196169564 0.503773725892242 -0.41576974977743236
Ni 2.6144820774912207 1.7882826071212827 3.8442636615251202 -2.5190069548112874 0.036217587571137626 -0.5410094703152488
Ni 5.927834288591262 8.902183995749896 8.340227767350665 -0.3833795063721849 -0.8261761783604222 0.7024300116489968
Ni 0.12695183047570127 0.0915164498420937 8.94750799546087 -0.9493721289953326 0.09268544075087909 0.9171063269830916
Ni 8.174461596041343 6.621990242724553 12.450135907231035 -0.9529955846805329 0.013831249456137472 -0.1121188668851424
Ni 0.4785719706070326 7.980901292013579 4.718862970995588 -0.8440777412311915 -0.5048643878532595 0.6453571778954046
Ni 0.5018769399116965 5.033423337683893 7.928519970365868 0.49974532145913936 -0.658766252212459 1.5970407286327333
Ni 1.1417333569617703 2.423506668718283 1.2027898846265783 0.9290845823908901 0.5573262051974015 0.4046286455589483
Ni 2.0179477610572856 7.783463645103576 8.721356625398244 -0.7421255304664057 -1.6531360289644046 0.3523077246680449
P 3.2067206327462725 9.261493734355117 7.564088791809717 0.3651876659545066 0.4321103959189848 -0.2704147465469794
P 1.1964252774253967 6.480555560274328 6.6233914791090935 1.0281563862840872 1.1086270301363295 -0.4082680420837485
P 2.3195901602005193 0.7437971008471994 1.9860866024954595 0.10215584213515955 0.3405055898267942 -1.0052877092160297
P 0.8251078635249143 0.7763240094099089 5.080177398150954 0.6734197404595758 1.5664271175119344 -0.9335444179344566
P 8.278694242827683 3.6362688560815566 1.298325939571771 -1.106382199966211 -0.7332647376416662 -0.7033005871794081
P 1.9976777191309503 2.9609510234816394 7.719011420506888 0.061649911601313175 3.2010792287395384 1.1635141690925124
P 7.5975092558903725 8.883141314160385 5.791959920394225 -0.22980391500415262 -0.7258905566647822 -1.741501245073375
P 6.354983580359117 7.242216332932939 1.56995565920591 0.8557333231922489 1.7272730172891346 1.2023481112405743
