# total energy = -340869.7895022118 ev
CRYSTAL
PRIMVEC
9.23698945959485 0.00000000000000 0.00000000000000

0.00000000000000 9.23698945959485 0.00000000000000

0.00000000000000 0.00000000000000 13.51926776332159

PRIMCOORD
 96 1
Ni 2.04629794154733 2.05487910456908 11.668127884201544 0.38365512863107476 0.3241988822469707 -0.6100857562876203
Ni 0.2683622489460919 7.319852138413607 0.08269229894469068 -0.5187285474298615 0.43242818426971974 0.49282571152117066
Ni 6.968615621834418 0.2375790585410478 10.001432329549328 2.2004783834762165 -0.3388210030355197 -1.2736609998529487
Ni 5.6371775160419855 5.849720638895032 0.7924237582629067 -0.9400451951674521 -2.08320754007649 0.24619804009145987
Ni 5.631524478615384 3.1233678371212843 4.006286379156085 -0.9817849981083996 -0.8026436424561209 0.38083925644883443
Ni 4.868438321938466 1.9359436308682618 12.171639863513528 -1.8745920862244942 -0.00324267530701377 0.2743570190241791
Ni 5.434157729115122 5.3000551190507785 6.790430404229706 -1.3401229881309242 0.0872277600704175 -1.2635755905924884
Ni 5.568167969286874 1.3058146975875509 6.177061064260798 -1.0125063384516562 -0.3549135377220081 -1.7959296992255842
Ni 9.032796374587464 1.5310494436826705 4.770449568780623 0.025851928066097412 0.9729527445287501 -3.0167663561886497
Ni 3.5066105214834273 4.217600058738739 8.275805707122657 -1.005951310941958 0.17445114926546085 -0.40762578051405923
Ni 0.1123587373483035 1.125129950689313 9.614632480623484 0.35422936717078995 -0.6367326694511872 0.17506512870037594
Ni 7.245161843264118 6.553403717646357 5.921898472966032 -1.287484793109918 -0.015309376663560734 -0.29517112755605296
Ni 6.917812180909092 6.9964374334829795 8.22053895298731 0.7476690859924542 0.2307927612799832 0.05174602222403991
Ni 9.026478273934204 1.6567925784674824 6.8771564963838685 -0.07990731514960431 0.28481009603670304 2.565981009567981
Ni 5.60809947385418 0.40766251286655886 0.7837650045313792 -1.2980725959280934 0.07983815247456573 -1.61416941789322
Ni 1.0286126499204522 4.249347590822439 12.642354065063046 -1.0805593253658359 0.95097418337513 -0.70577964484752
Ni 2.094108597952691 3.0089861991252267 5.879786115234641 -1.1191433562866209 0.2646719305259313 -0.83896407415371
Ni 6.8418471812418415 3.9607840463665855 1.931214292367577 0.5689059396152009 0.6452769594767725 0.8525634101046994
Ni 7.889183208390591 2.611204493669181 8.72445643612777 -0.17232484695107742 1.4926765659923453 -0.7617677301773655
Ni 3.972173254123118 2.2267148157570524 9.854572513619171 0.08632144620606425 3.8476340264874707 0.3883759311455118
Ni 7.230687481095029 8.202668149867632 2.304426530093209 -0.06980365105669914 0.879782907942285 0.62478552439164
Ni 4.520416277621462 7.318013977551036 7.897726499756379 -0.5668441719901658 -0.3640499528056375 0.2679444306296159
Ni 2.382625957462249 6.58260184069453 12.109802838918146 -0.6307481697329782 0.011460178120799618 -1.1835937134512067
Ni 6.873058967948509 7.615611297502338 0.08409262651637786 0.017220734753660663 0.6736956198287817 -0.6661764286336012
P 4.70511911484743 3.982324705318924 11.10229301465915 0.10323750523511253 0.45213543289066005 0.35419697127095773
P 4.935157095357308 7.054057772481558 5.365121395091159 0.7651119640592501 -0.31169226513952775 -0.6174110863044399
P 8.090928290799692 6.400152828847795 1.678984445162591 -0.8777314247298948 -0.348780942461709 -0.9357033732589886
P 0.14223670280595085 6.4415068297610105 11.684203016609244 1.4465998262389408 -0.8775079958651791 -0.15178044714082248
P 8.834866168742392 8.025779805554905 9.160655703611546 -0.024981866756318267 0.7192193152921936 -0.05495141653521504
P 1.9038358562034556 3.335800116103221 0.8603876778338823 -0.05983934075513566 -0.3420521083783077 0.38657898714608907
P 2.836623979549483 0.6497335192843314 9.487173113234324 -5.993154822780885 -1.5932696916260753 0.08336004958489514
P 4.189353345584259 7.558268068181533 13.251329369241377 0.8464922642099549 -0.4448327285816597 -0.2933171050664497
Ni 2.992350381469497 1.3977504516838732 0.4360911947094456 0.6091069373141188 1.6003435677537214 -0.9765312059086277
Ni 1.4623909025194064 2.538500151210409 8.31690476713232 -0.4581561851634432 1.2344696743654675 0.463262396041757
Ni 1.588946892359024 9.051196457191692 1.159242152023355 -0.9932207507491668 -0.45752935021272173 -1.0874645371261014
Ni 0.7474987373021035 2.305534045105381 2.5536949985417112 0.05572300459391694 1.3437330740796858 -0.16406852047955614
Ni 5.472094044002452 2.7813960207690243 7.897482643239937 0.2685213861790085 0.9742493518529867 0.8651543593958326
Ni 4.7811487734394955 2.8475605748323174 1.0060115846011635 0.204171559148029 -0.12591334956607345 0.09312612783272349
Ni 3.0375562069037785 7.555118254844163 9.994226554228263 1.173667198366114 1.0909003022805277 -0.20920937868225262
Ni 5.890067807979 6.1702995881231 3.4002447427664606 0.5119585756958795 0.8508240588160896 -0.36459502667583016
Ni 6.547076380003839 3.645202308327718 12.97365715882099 -0.8196859426503883 0.44870660971476917 -0.582868315332564
Ni 2.800710565309907 3.4383584078475664 3.391132452862309 0.8228388864570731 -0.052449733159283855 -1.3596245484989617
Ni 4.871551187318799 7.760317971236185 1.853004704310352 -0.42883301071929375 0.02378527534505581 -0.39116969184056505
Ni 4.73186019875267 0.20849177936398366 9.370487770117034 2.608280027446508 -2.396542225915447 -1.082703111181716
Ni 5.488803757572255 5.1973675094568055 9.14377048724582 0.6741296220424068 -0.834671360315627 1.9648205807944483
Ni 3.6140644175351224 1.5181361326983782 4.389124483388678 1.6473615883744726 -0.3951335615843195 1.126285623758357
Ni 3.3276808025444287 7.854895504260624 3.5399800688810337 -0.012569352024578352 -1.6181649122058583 0.732001040437894
Ni 3.656425250277585 8.546598207942832 6.059781782734145 0.2828956526228095 1.463899750969969 -0.3547150485579568
Ni 3.083399384596941 1.43387631667641 7.284141014238806 2.3357047829131 -1.2160868009829056 0.5680469340490152
Ni 6.349238544051358 2.52045107419803 10.383648784404778 -0.25053883355865886 0.5717480370496862 0.8855802313503524
Ni 7.883761095695469 9.227105680642948 12.179994720298428 1.0876134039991396 -2.1745830037666933 -3.4121020064814465
Ni 8.716540336332677 2.9701908442367957 0.7386035166455418 -0.565639095938471 0.7074688596244848 -0.6134035078069436
Ni 1.9563389031524656 7.737659636583491 7.567829275763679 -0.03206422752439639 -0.2790685655672355 1.219702800468938
Ni 2.4926846844850243 6.528353002775541 0.8427533416392385 0.5571269447024018 0.45311862273953574 0.7815287148543767
Ni 8.826331190666938 2.3335590705176434 12.042652698100902 -0.5713860257245773 0.2764360130403949 -1.6122853134966297
Ni 6.963904757312252 3.4092434177027253 5.944259376564583 -0.5163988708554204 -1.184400011402586 2.931902468364718
P 6.389456395285699 0.6128825506349516 7.971554983807988 0.2922842929265611 1.1082488208613044 0.5499047159223497
P 0.684631788404327 3.3669102959280397 10.15760672544841 -2.890980533339376 -0.9424689741175962 0.5844032639198515
P 2.0513690486506033 5.837038252642219 2.754036982282347 0.549379439546499 -0.8274360189094523 2.1111495179023962
P 3.648823208117305 0.39440743327967825 2.2048028298364963 1.627356091786823 0.1711447106000472 0.17678622515654072
P 0.07534704508581441 6.474806176040246 6.0102068613802855 1.462353746639088 1.5868758722845897 -1.3550718961312727
P 0.7932698664790447 0.5997512467041436 12.695025225216572 0.8509035059037733 -0.7444264106854405 0.6320401490715244
P 4.036093219796437 3.7291757776826526 6.190810322773043 0.6086130283968356 -0.8373987865491191 -0.4424572863709477
P 1.5677941869555698 0.7934287426943021 5.8623873222661045 0.9284320364085559 -0.952032192325999 -0.180333833298483
Ni 8.367003425777174 8.074929825402844 4.399602000305332 -0.24369789937742545 0.6594085137821482 1.360817026145166
Ni 6.812381185505152 1.5259968105579151 2.2725210454931783 0.8797404847401235 0.8544547135901414 1.8604826434063053
Ni 2.4165349450325895 4.385500812502314 10.512352374247149 1.7214201580527837 0.9623577426217232 0.48409038853070174
Ni 4.064792545424617 5.219157567119141 4.398196130540089 -1.2887703446905612 0.27852940523431385 1.354944369414473
Ni 0.009535344012220792 4.561197585200611 6.637460319904624 -1.057868054415907 -2.457194035269549 0.6167827086918217
Ni 3.122444138195369 9.08163233680059 12.05456287205165 -0.3624509837496338 0.04996553328484943 0.10073813585202651
Ni 3.3143610640327337 4.5083527696490115 13.041280233488301 1.3527609886099088 -0.5172306227280963 -0.090503859718528
Ni 0.15038557473037323 4.782174079247261 1.9976070000655712 0.9458700293793452 0.05949584137278785 -0.8556731593782747
Ni 0.9050411313104663 4.360958132040752 4.1692204037950145 -0.5752635064021124 0.1383243216359166 0.9001830688651917
Ni 0.6777354522234454 7.533475989009974 2.6900098675336213 -0.3987341344513843 -0.7412413280892395 -0.04894686221234796
Ni 8.873412124920826 8.439772427160758 7.062397850083645 0.009967652735673155 -0.48487020411951975 -0.8218816647501265
Ni 7.607381140072436 6.825497710253145 10.545420795794906 -0.2093585026656072 1.6373517695469542 0.9491540994472557
Ni 7.786809656431428 5.543117254416058 12.886241063569166 1.0105178472667178 1.2559301582320885 2.8191320839385057
Ni 7.6303073474136465 4.5815466725385185 10.97792896237073 0.6679738868536561 -2.191219326771794 -2.4628777159178874
Ni 8.24389283293122 0.6969816430438108 0.6232954086267917 2.003074996289957 -0.7271336850432638 3.185644125131391
Ni 0.9726642059777794 8.575214400667678 10.790213942947352 0.45376731206712817 -0.730986997351083 0.8831356264646015
Ni 8.132642534294014 5.607305092777892 3.9048374498217644 0.444017431769216 1.0588728415313378 -0.3119203219899338
Ni 5.634120072597207 9.08250985078021 4.201166531147786 0.059529265713884574 -0.6859559252533735 0.008350428847224329
Ni 2.102190963554448 5.469239814321375 6.154159796790587 1.139494152028831 0.255897783877727 0.5813783610505987
Ni 1.6559150644878633 7.731951177221336 5.213029748444621 -1.2102892204645221 0.8411029748735837 -0.5378868655258672
Ni 5.484905748104894 6.25911323984983 11.831211548066472 -0.7565255079418197 -1.3076478983213544 0.09358455552638076
Ni 1.9334588807575506 0.5108378354934152 3.349222385195693 -2.2763246411825704 -0.7814947762926476 2.004939303192205
Ni 5.567650697888361 8.782547861578566 11.614753789165396 -1.1907552641966526 -0.7212661705188934 1.7471569006972554
Ni 8.96316794955199 5.707277027529676 8.922851262532575 0.8198777469462203 -0.634822596912668 -0.26378875659002954
P 7.227981043242098 4.6113174889207595 7.677403060850349 0.9709472840629472 0.4265688972754654 2.0249291160505702
P 2.2420389809379824 5.963280184847025 8.898895130888969 -0.3418052824748242 -0.827037240809137 -1.0427142294936043
P 4.71316453249215 4.301943007664041 2.4856664200459218 0.2674322668798878 1.6931107695851293 -0.40882648569037977
P 7.466396973010025 0.34836843141422164 5.798481212076674 -0.6225808034308374 -0.08844749141013154 -0.7022094109977584
P 8.890288104297294 0.465293936252249 2.878914611173577 -0.5090941096638909 -0.7503582027888432 -1.111531605377634
P 7.767726036622024 3.561164180047969 4.185727827300042 2.0516765593477437 -0.6093776744770021 -3.7511338399761915
P 5.574236671230135 7.301960090218633 9.938053651446593 -1.5867401180376737 0.9239071519550087 -0.6425140520196547
P 6.798682730433832 1.5971955237674453 12.881834095993627 -0.39820628697237226 0.28618640755893937 -0.07851403434650349
