# total energy = -381169.6047891606 ev
CRYSTAL
PRIMVEC
9.20980063296890 0.00000000000000 0.00000000000000
0.00000000000000 9.20980063296890 0.00000000000000
0.00000000000000 0.00000000000000 13.47947416726093
PRIMCOORD
 96 1
Ni 2.630742720286771 7.2223256802086695 7.528367356252197 -1.6733186745598665 0.5080479277875638 -0.7971355681536981
Ni 7.085247007135186 1.3943177714297266 11.804110333204818 0.24982406687982137 1.4751879222892788 -0.9914101799029893
Ni 5.602404631729222 8.311283300843957 6.3829895757730855 -0.06015044423765124 -1.479515088909723 0.20836297152155728
Ni 2.143894237620116 0.6811844864642614 6.208012572969866 0.46693316002512486 -0.25435203665716194 -0.14538688490965282
Ni 0.7616394630992613 5.61374189634582 7.0514092785179265 0.262645901234838 -0.05918602344185291 1.2871343517490348
Ni 8.22703204437552 8.416486853821544 12.171493886566669 1.0355981872741133 0.012056674054217944 -1.951990776019632
Ni 1.279186053337035 3.8780720731292355 11.845761656704873 0.10801950000478816 0.5655668479396389 0.26540932291258806
Ni 0.8011854261676725 0.41195346269212674 4.384145093700593 -1.5064540793924122 -0.9218471841021867 -0.09671075986018828
Ni 6.454182255880942 5.132179839259935 10.571277206606485 -1.1928242309105392 1.2202859266659178 -1.3306957812797535
Ni 4.1102695674539245 2.96500322556284 7.103238352731064 1.6003852196249342 -0.0126084327926299 0.6313264108339515
Ni 8.344291226421449 0.07818383979141474 0.6616707608187294 -0.7882876308447649 1.902656705671194 2.5142876949587474
Ni 3.3030857981142043 0.7516109111569261 3.8220101745312176 -0.4836088209085929 0.5208533070823481 0.44361325435226184
Ni 7.840404612527573 2.604577676602158 1.4394190862582776 -0.28771415705737546 -0.4873986269683284 0.3947453250069653
Ni 6.636628407022148 8.761108384843897 10.32874171103717 0.38401071219828053 0.3829156793618889 0.6989929609429897
Ni 2.968447691010937 2.9789560735678338 10.179483076586392 -0.9719448720895261 -0.9087556410255512 1.8215448286905276
Ni 6.75003789239079 5.080079996907295 1.0122832671725983 -0.5938808643929836 -1.2826570327039717 -1.4472423449189462
Ni 5.276782919475386 3.019414727881984 10.245020018106876 0.06362169061570334 -0.6772077467470982 0.8756269767923823
Ni 3.821662044066142 7.31365006358657 2.981888474099048 0.5547623011249672 -2.066949169236098 -1.0395337748830935
Ni 2.1844910389442167 3.772886939752976 6.237464594511232 -0.7774308906359191 1.0369611290599108 1.1386253762706326
Ni 2.233800311695858 5.9442908519545545 5.193102670648077 0.49113315431009613 -1.117830293902152 1.3838337987553135
Ni 1.8340397041019567 2.5152334003668817 4.555549614826494 -0.6345415753371394 -0.0733034366798415 -2.2050852861206085
Ni 1.2931941601460093 8.75147493335002 13.372878306839818 -0.9873653204096544 -0.27991677250014374 2.152019002423249
Ni 1.6324924263849374 4.91300500307324 0.7326912176541811 1.2361555467083227 0.232263946508871 0.7837730308038631
Ni 0.15715972243987864 1.9572207879744268 6.2522656651573225 -0.363123070115994 1.6785698956564767 -1.9196267578666293
P 2.707653765626509 4.057736864470106 8.409668838390457 -0.09426255543001184 1.827790295379607 -0.4383378648859354
Ni 3.5430379445974443 7.621883672187977 0.0692844094104078 -0.18587970281737665 -1.487129153811555 1.3041794801567796
P 8.82097208915575 2.151418644762083 12.661660660412332 0.01978875259115302 0.38997824263562514 0.04547561583429588
Ni 4.696307603264991 6.950277378413612 8.540567735218824 1.380819951629654 1.206920046881973 0.8305177431585696
P 2.558141861657486 8.664009456450067 2.3161506653073776 -2.6254184868990076 0.8412258736046933 -2.0672641293733554
P 0.8398619840534621 7.677179315370804 11.383159816244651 1.2700884520103417 0.2719239841026542 -0.9363446063874132
P 7.425613610251064 7.305886201627355 0.7862305518505048 -0.5430509262253098 0.7562948799882523 -0.3142345719454072
Ni 6.077004079513604 3.8733842845915847 12.42579674444356 0.6117559449011916 -1.7269585713725097 0.6613504679998674
Ni 8.980771340465749 5.868733647312331 4.909750259518809 -0.7091894418600173 -0.19809707081917496 -1.7170189436612946
Ni 2.4858725558520827 6.098370817052605 11.824532145195757 0.17297327916835373 -0.3613070999531778 0.8202662406338905
Ni 2.9497517956643122 4.7524044991055305 3.4295695165045563 0.47591762291192224 0.7413732256814134 -0.48821469511172044
Ni 7.068033889695362 7.0911228599584115 8.867917206077106 0.0030063909264915964 -0.6532833747210168 -0.5845151069073675
Ni 7.127925223409207 2.0367105774999064 9.227212712496394 0.32389780606678414 -0.10593922043699174 0.4461331925606381
Ni 1.5866460386827201 1.5253548152680443 11.905543393790822 0.9971465681661343 -0.7051605232062823 0.1655546181067794
Ni 2.700718785726997 7.2012720758922235 9.810145203523774 -0.23609951820487726 0.05871165490859565 0.2502927789861238
Ni 8.90161310376415 9.261007155050535 9.749946262467773 -2.1465870327744 -1.2931700164201534 2.352772279918348
Ni 5.3761382490317375 3.816200632272768 2.6314896351205697 -0.9732504782748271 -0.11478407242213136 -0.5837093231766206
Ni 8.023928310346392 7.29874860611325 6.5331240622669515 -1.0860869400522843 -0.19218867575454 -0.17882202463964686
Ni 6.030236711745051 8.975033634652474 12.845426575988599 0.027808023351203724 -2.718697852480144 -1.7782492512266859
Ni 0.39326493518603206 2.1772245062208238 10.058734301069116 0.9968874009674766 -0.6150474711682697 1.399426768097564
Ni 5.999586495137382 4.321625282877425 8.273944006014489 -0.3570714646052754 -0.4597168447823437 0.30962355553595705
Ni 5.419838753179391 8.855462792640042 3.8616399467856652 0.07918174983748943 0.2756340859643898 -0.40230951050746844
Ni 1.8983149029315618 0.11592099800954152 9.549156030365282 1.28576858174976 0.25103814179258055 0.33608097839653733
Ni 0.3356493432161042 6.091297690143143 12.87703645382539 -0.5947439837242274 2.7907692165250975 -0.9097455157426462
Ni 0.42527636033174654 7.704320597925733 8.200696619378636 -0.12239068112479566 0.07880148367993525 0.007479853316812925
Ni 6.916201115959172 4.54104878368203 4.191159246680235 0.3822497636431159 0.5082780415204988 0.9079825103049525
Ni 1.0771230267828675 1.1680329691309161 2.30195744150507 0.26468684292426675 -0.25204781400401755 -0.9656783223545239
Ni 0.7174784689184394 3.8753091329302274 2.6325146859344017 -0.1914587395670509 -0.01764728076811799 -0.23915347453985264
Ni 8.113963321631422 3.6744341706616335 10.981498305793833 0.34616484499510064 -0.5416270492945897 0.3088568525732616
Ni 7.031461771261151 2.1992451396069232 6.68664130854447 -1.2945859229310739 -0.36070211937932717 0.21884741599264892
Ni 8.064451433265186 4.293691957465447 6.617275852888224 -0.9712079939235015 0.7001867241407748 -1.9575515579368612
Ni 2.0750509776614834 1.990053727339313 8.247659234921253 -0.34324972823083466 -0.10887233492338669 -1.3391017459552614
P 7.9290121047097815 5.209892137257387 8.662597594008375 0.8891939168435395 -0.6409137974120704 -0.1862877368890727
Ni 3.4093668977694045 7.924333525972792 5.290289092148207 -0.3690607757566676 1.560793830485557 0.731990756025249
P 5.302607200535453 1.2566496711137878 8.095353998411031 1.1037506758806346 1.3051865812650554 0.2643001490088093
Ni 4.7100854650573805 5.564782596019387 12.817389179829124 -0.7653155954296239 0.4478897702404287 0.4861644974509111
P 4.936830757389359 3.556465833964626 5.030027493242121 0.33801984729046297 0.6873052401924163 -0.30264352467369815
P 4.940348901242763 1.6343804355209268 2.5691070503272857 -0.23218629919340011 -0.4250257211580616 -0.8777216545378819
P 6.675862157848071 7.14390422756014 4.456017457097405 0.7547717584755065 -0.5065083512145857 1.715332042877175
Ni 3.9844176413890797 5.191269920316067 10.127263506825127 0.29190505521027144 -0.12076368704433396 -0.36250857646044665
Ni 1.4145885426897868 6.8679049212805 3.3431383002191004 -0.4993681406253787 1.0022836322823836 -1.3815298332124855
Ni 7.119102234373706 0.02488396041233844 7.996441660266588 0.779534053021851 -0.28434884012956835 -1.042200523081979
Ni 8.57866223370269 4.232759916276642 13.385535335891477 -0.5566790585317059 -1.0665211021052148 -0.17045925449724839
Ni 4.996316859874016 7.311080529201492 11.107316155596225 -1.4414545345925756 -0.5157095580978797 -0.08275918277610263
Ni 4.504366147639859 0.1002892033436168 9.871517473184287 -1.1193259046110722 0.9996587930650267 0.46882780594467643
Ni 6.1343166690417075 6.62157038293755 2.4234614206767424 -0.6282367161650342 0.7375134856156911 1.5055655061398716
Ni 4.605296353109646 6.089409681007154 4.695346100075735 1.5680551400336609 -1.916418535341977 0.1359033708992498
Ni 1.2595783877247368 2.5767272393961513 0.5062783991261501 -0.8728303878838516 -0.2299283563971589 0.4000435972914272
Ni -0.16436731243902591 3.348683521198511 8.375309835055651 0.38572049580053575 0.9492870254806941 -0.8226095440550866
Ni 5.144263097730266 8.589253504465557 1.2737955570087693 0.5267845849651186 0.48488460229722297 2.4818470579315384
Ni 8.254412781747694 8.01373306101205 2.9437018776085493 -0.4763883919007537 0.4486510738864854 1.206539780724419
Ni 8.799982953443948 6.093977742136182 1.8069638111317379 0.9707963603073797 -1.5192432607372803 0.07209707507656617
Ni 0.9430743781276302 7.710159611546304 5.669547762485398 0.2752391645188163 1.3086161757718946 0.8663872033616693
Ni 4.775732924185827 1.2696078606471384 5.765265220779721 0.21096467081046247 -0.5148636651578165 -0.9793841019763906
Ni 7.279150150301614 0.1372333977246281 5.221800409515113 2.3189460753975224 -0.18994898779074385 -0.03477417025639173
Ni 6.01500370144785 5.890855588505727 6.527300705307507 1.695331688495848 0.30149218467807426 -0.049597351312153294
Ni 1.217554067297815 5.082842937106304 9.778522431966053 2.516790406775943 -1.5986530674251758 -1.5065911191909087
Ni 5.303951831432305 1.6301531370164433 0.1648554318741841 2.4102289793739198 2.360240049050303 1.007721515468503
Ni 6.499669461357287 1.9825845790013261 4.1545760764852275 0.050520120236738804 1.1420829958019298 -0.8833472282547754
Ni 2.984251708949267 2.8484439883673276 2.332568976949954 0.22984890930947513 -1.080721561975313 0.07903493984698003
Ni 3.9105458302682514 5.4783578265943955 7.091483884144415 -1.138906397846161 -2.3013700141869724 -0.6798410706048872
Ni 2.7682266245894422 8.707000805946643 11.827995951225247 2.224342591688324 0.6343533705857334 -3.136394129856327
Ni 3.346878400268492 0.9899798929061341 0.8445635872921086 -2.6222089788227745 -1.313263701846235 -0.03573319173555136
Ni 3.3839478479385248 3.3343622811669826 0.08348223811304703 1.0894838815489754 1.2942683916906548 -1.0605103771347606
P 9.052138085806144 3.7219475322839193 4.518899213086644 -0.5005367070121832 -0.256557528948913 1.4919664272991982
Ni 8.741666495643537 6.0578476941338115 10.53296904074723 -2.037918072111071 2.002407280798971 0.9868210178704102
P 8.155195599201294 0.9638977374274922 2.8749295331150244 0.3098842653965115 0.1722286876928453 0.5914894813426717
Ni 6.833395798194882 6.649623435758151 12.303605714142401 0.18468002608232065 -1.2780632426857024 0.598686256201427
P 3.7091735387638356 5.402515118131608 1.306590736190936 0.5754331992107574 -0.06817048632865033 0.46949757831819144
P 4.057092178423671 1.9381196613986134 11.993712499461456 -0.4783701982174729 -0.05052500533274524 -1.387571925641507
P 0.0725106025827836 0.9093444041781322 7.936175487665744 0.33295605961431046 -0.6601731598623146 0.7749294643703041
Ni 3.782280936429605 -0.06129951223527274 7.604769099615251 -0.590448441672667 -0.0018398814222161863 0.5082518162682537
