# total energy = -340887.29255548323 ev
CRYSTAL
PRIMVEC
9.13829022683404 0.00000000000000 0.00000000000000
0.00000000000000 9.13829022683404 0.00000000000000
0.00000000000000 0.00000000000000 13.37481145950404
PRIMCOORD
 96 1
Ni 6.875859803383615 1.7602723075804065 11.325816975126395 -0.43026228696665253 0.12247167087437619 -0.16843476786805184
Ni 4.698022458775086 0.5798473653439605 6.094915221668996 -0.03903808773906825 -1.2036156650990883 0.05703632408870177
Ni 2.885049631027017 1.9702793569948436 4.696939571374381 0.7050324822688503 -0.4259711157904664 0.08122706240229237
Ni 3.6169809927105527 4.719332951757744 4.864445346426448 0.9235004034348934 -1.0297797808201232 0.2188168198650296
Ni 3.7456115669918115 2.9167412217919653 2.43525932708035 0.0733402034550479 -0.17968051598520024 0.9012349071684737
Ni 5.469412957979685 4.552632260081222 2.8189953272420483 -0.17770642297796493 0.3226680474247411 -0.0417922534454377
Ni 5.130656536510071 4.621589798694918 11.509533163343958 0.5929845778309594 -0.6345978824963716 -0.46247101048871325
Ni 5.534532414666829 7.595481888031284 12.346341941328554 1.355312551387169 0.784346901029462 0.34877014382843163
Ni 1.4378551491695386 6.952438676108605 0.2216190749003133 1.6565949340472825 -0.055027521188789105 -0.49053948659015517
Ni 2.7109012327549262 1.7398390904666745 0.15966055282839198 0.3523082388886771 -1.1922094801446756 0.8694589003084574
Ni 8.213979652204642 8.917207644051757 7.175305127635047 -0.25659763815822906 -0.39909743132807396 -1.4779788547708546
Ni 8.798747986875858 2.530995711593009 1.2864318512187487 0.3393527071692736 -0.6183042875426706 0.8263227312406156
Ni 7.106409729395401 1.1421492133094033 4.98047239072414 -1.0552761253190148 -1.4712891014555047 -0.3231465297230564
Ni 1.1378999083192936 7.912068817229916 2.402209786376628 -0.9454182865539074 0.5265290173108866 1.2485652332265853
Ni 7.9015323685125045 4.156971704905343 3.573040437625727 0.15149042670422944 -0.5026547817964504 0.22139306523263805
Ni 7.595701206998516 3.5421475334331136 12.700533848946112 -0.29633326618495415 1.2064436214661867 -0.0921712201186219
Ni 8.431982705632727 7.333468828512085 9.062157377153099 0.07545956379089586 -0.7910199421742635 0.2505815138711362
Ni 7.036364734235849 0.7841292758846259 0.19253006921317892 -0.904360854391965 0.25751963575186615 -0.6071253881077157
Ni 2.0662405434489144 6.405256129446682 9.026633187435781 0.4607686830856258 0.40025545619191716 -0.27340133997912913
Ni 0.42132909880323255 4.864074331840216 1.0502673596458378 -0.6752745342801273 0.3907979103234431 0.7195682139911801
Ni 6.5916955281740375 2.115642140817804 7.126527675493738 0.8718939921125114 -0.09869513728006873 1.3479070029517173
Ni 3.5296829054621246 3.836893948811611 13.247349950166953 -2.1030662266736293 2.9402886355458846 0.046381158367700764
Ni 6.573482915603524 6.225908043993145 4.566601964464837 -0.44835488280230523 -0.7411508252579623 0.26605621246796757
Ni 5.340544788150591 2.6933191622152033 9.646850777843845 0.5480851462151076 0.3525396381731929 -0.3630845035685747
P 0.2035700377261932 5.560951211927921 12.37252953984502 -0.3260001971217676 0.2531832131600414 -0.33026822836950215
P 3.9162051703366925 5.950114442699567 12.66993245621411 0.9759640205512482 1.6473461617555047 1.4484690182371958
P 2.7283096757789242 8.668783222210608 1.3051351899784425 0.3906863244462433 1.5492488059604352 -1.977096312838008
P 6.769088019503094 8.073277396435351 5.8468526761237785 -0.942090507732255 0.20447057844568658 -0.9540039713403894
P 4.871814463725426 1.2028822906519188 12.309574944130256 1.1143711317089582 0.44567399353603243 1.4190597118371433
P 4.206080876984591 6.206233304974422 7.984535459319315 -1.0223678046267684 0.9948343750931901 0.31454001900096795
P 4.799695076667477 1.2362827417032118 3.7168332631749217 0.049161549326315335 1.1944162579880075 0.9851811682741421
P 0.4130516354483047 6.041095260939423 2.893507118700881 0.22156532914444424 -0.9230651156696877 2.2893385369437347
Ni 1.086497025374417 0.2220239011606614 4.663850736022363 0.30395093063121204 -1.136082555244121 0.13153635217980572
Ni 2.3269376891647253 6.629875305052916 4.422621803964465 -1.3251889925289113 0.769348627848417 0.6565311922343531
Ni 6.038280667526619 5.7018179569226355 9.224580435139577 -0.0013346596510235079 0.5351154734283171 0.36436696982542405
Ni 9.027077308344424 2.3491254580163097 10.069882340130212 0.12383512688080607 0.5666562243490757 0.39696881502084536
Ni 2.0856502720488996 5.493903575987199 6.7174722143941965 2.173238831033973 -0.9249628469130328 -0.8300017227540997
Ni 0.5174319287569737 0.26399698234361474 8.989157058910104 1.2253039487057995 -1.1626947585150105 1.192261930649166
Ni 1.6200452429067835 0.9473848321175539 11.452236083154736 -0.6791844108574948 0.2756178880144737 -0.43978462463479095
Ni 4.135423616374851 7.006921162885024 1.2368273838051702 0.9639325433080109 0.8348587937360848 -0.42530854250580297
Ni 5.6014612528336345 8.046529620723412 8.073263688999898 0.27141053480134547 0.11847309123794435 0.23490344101424704
Ni 5.21050691716293 2.8015165193827296 5.470565296386679 0.1159076445036133 0.6507336117159697 -3.0701591699874933
Ni 0.9978830243226006 7.534940714785097 6.458870478644475 -1.3840014346814293 0.31096567138614833 0.34375469289171123
Ni 5.30562738090928 4.50111971765273 7.128025441274122 0.2871559705610603 0.8486149669799127 0.4797071718613416
Ni 0.8400546986996216 7.052795380197607 10.992222773847992 -0.20843444818944104 1.0677557458432643 0.481679465096364
Ni 4.293031709201569 0.29250022362243505 10.40866617647073 1.5005608538364288 1.6356972646626666 -1.794459542437961
Ni 8.405234929920788 7.8432940444222465 4.272864416335604 -0.025025575510060124 0.11174734247833658 0.17203199830100693
Ni 7.2174673714272375 6.320653837837142 7.124012818002816 0.6935720470377345 -0.737021376470621 -0.9528001808402752
Ni 2.7702818431328473 5.458611498843535 2.3353357779516304 -0.3495854406408754 -0.7575076693494309 -0.7314315410876693
Ni 2.657890010717019 5.328025330437795 11.164075633596394 -1.6563223971121863 -0.22070529513699405 0.44618178641038647
Ni 1.4605729388585986 4.154504366523989 3.7973096167134206 -0.6893384685723613 -0.8441065375865979 0.16075899649034894
Ni 1.7702239057185347 1.262838613318823 2.5890421315869387 -0.42594463342790506 0.6895796380488899 -0.37761612152584645
Ni 1.3679746432354103 3.627462611686157 8.077717691692756 -1.0658076209779581 -0.49335972964776975 0.6112944318837408
Ni 3.663412645731516 2.9468518883347863 7.125070118190679 -1.4475249091563716 -0.9728501575126149 0.47812902874094426
Ni 4.584387818878279 6.951104485724614 5.977109866078671 -0.37644626958746136 0.6017764650909765 -0.48701553259729674
Ni 0.7631733485656587 0.29655031388397624 0.42055234412762105 0.487827744085947 -0.710426399590912 0.3969217638329938
P 9.458678759275362 5.673516671859475 7.830123026610966 -1.7886953862606743 0.7373116540175302 0.11106985679533773
P 8.719016403996918 1.7583075751656247 7.868762459492001 -0.7497385669269733 2.0456228969544963 -0.1823377511023892
P 2.0315515934651365 3.56825562882396 10.18485208424004 -2.1427979980456127 -0.45555474298485416 -0.5997442651522962
P 4.406931359517114 6.398036880108646 3.5719712576604734 0.5058676323067933 0.08455072745888664 0.2914111462929884
P 6.98466942600133 4.056258607494591 10.428635168437156 0.7603654505132001 -0.8878685131638967 0.32679106845417916
P 6.511470477618824 7.654570073119563 10.168494544600692 -0.8550488955307145 0.6678826126914305 0.3700053990581241
P 2.700657209327156 8.613852959209424 5.881787446116663 1.1291529180038231 0.027443183812617254 -0.7980773632416771
P 7.151068554097909 4.038420664826431 1.4561691967623964 -0.7257380902473178 0.27298122172257505 0.019443710546908452
Ni 5.201149307894387 2.832888269987132 0.6154007975902427 3.0635864018659817 -1.203182948437044 -0.34803480832430383
Ni 1.5750848546243315 1.2917978552836784 6.889900786431581 -0.09816651847010835 -0.2552894608697668 -0.09997451821312459
Ni 7.1983683446974975 0.5942977437974243 9.162067218846365 -1.3037742742985612 0.25436412084202 0.1533706744460778
Ni 2.6637476548001593 1.6870746022669025 9.189070866686741 -0.1041672161382335 0.027635759439397563 -0.6028427015719617
Ni 6.54844400017793 2.0615526005243416 2.5774602624590566 0.358474258490073 0.32774674749922905 0.34712052404015054
Ni 4.092464513668387 7.183737941925098 10.549476264065575 -0.012409686518262499 -1.8751266185717252 -1.4011663764964901
Ni 8.342856960324037 7.697355548310305 13.516851838588078 -1.0240040546786107 -1.0103939200943437 -0.5846855710469607
Ni 7.735809473898223 4.070139670462283 8.329123937659226 -0.29646002157080553 -0.8653446210297677 -1.5647541006848857
Ni 3.43919555489854 8.690422693644113 12.370122514179656 -1.5117135280191385 -0.6765863111130155 2.34636200551663
Ni 0.00678243906163331 4.864247959355941 9.940240157112596 1.1431546315995538 0.5392346378030133 1.6310942186730166
Ni 8.791080961313058 2.7446123856764637 5.681445966353921 -0.31879879427732194 0.45595917751212445 0.4013479179251475
Ni 3.5228383260264424 2.620870796706406 11.242772762013226 0.8006327826736792 -0.1550604034436749 0.9644292804387714
Ni 0.9086302567787223 3.431364040110316 12.491753158090109 1.6293247854774198 0.4799028328119154 -0.8288267286093918
Ni 3.127534164172315 8.586538609498804 8.055207341193537 0.6897932967215926 -0.1269685303034652 -0.618374992879606
Ni 5.8896098226145845 8.520203760201587 3.3653435479994616 1.3664148319479177 -1.467968264612388 1.4214978889649907
Ni 3.428622553019922 8.50093110595612 3.3707735200965003 0.07375389395369877 0.33975174237990524 0.8557384653985715
Ni 3.8322334207579423 4.472580837041735 9.12816142034141 -0.830284286991525 -0.43579144431499783 0.3554953783674071
Ni 7.354358960140882 6.071653703707009 11.491758274878878 0.5353389022930328 -0.4931941506041829 0.007536417586361214
Ni 8.195173050764543 0.202349162141938 2.149866865654275 0.12157101343697774 -0.6418275674755913 1.0118507071455283
Ni 4.869630412343413 0.5156435653450071 1.6338934080293908 -1.0743459974662724 0.0653823820605519 -2.118247562399758
Ni 6.104441889308114 5.703983731724047 0.31309061932934984 -0.03757821536409012 -0.7337712449644395 0.33186514054297683
Ni 8.085148035536754 8.75826536084105 11.204026411135667 0.6514638050137749 0.07315765513059658 0.7292260487959182
Ni 9.126017577436723 5.456847808815382 5.310803308535943 -0.48646917317552346 0.3024362937588985 0.4265917800936008
Ni 7.489514273697278 6.32433656882857 2.2912526655381047 0.16200906684736616 -0.22496072797923838 -0.07939078052450198
P 8.84446685325332 1.5113361414823834 3.7722186130331097 -0.7283922400407132 1.1315867242562963 -1.228520141650252
P 1.807206566567942 3.343362304508687 1.6547716598807969 0.7216176403210411 -0.704713922587167 -0.7500671539109856
P 4.915358417011175 1.1141220769552813 8.305798451665128 -0.3181128239538909 -0.4363879402484162 -0.6751287527308825
P 8.92536813729083 1.632820572748017 12.540490401754093 -1.8614010414555169 -0.4821335219146471 -1.4982558598523357
P 6.48210001259041 7.991937474463377 1.2905385988801579 -0.3770921307015764 0.013309572624712562 -0.8390072686868195
P 1.7402777284011375 3.292087357628029 5.949878674809794 1.0522841325702263 1.515313586665571 -0.8866441538384923
P 6.893350491020326 4.228542794545214 5.821467419495765 1.8172294891446252 0.2341051134826678 -1.1281103356719218
P 2.2501943272143126 8.566873008770383 10.017934815083377 0.3148722055294061 -0.8476523459563272 0.993099137569638
