# total energy = -381174.94460609375 ev
CRYSTAL
PRIMVEC
9.18936851663515 0.00000000000000 0.00000000000000
0.00000000000000 9.18936851663515 0.00000000000000
0.00000000000000 0.00000000000000 13.44956969970379
PRIMCOORD
 96 1
Ni 6.906306730435651 7.837998434272514 4.046666196189351 -0.631011450696694 -0.12335895857533594 0.6746063045685091
Ni 0.28872904254333703 4.673905847804564 5.615195847146394 1.3461889918193461 0.27060115152617265 -1.6853604362157493
Ni 3.3527503238705103 8.221829171416573 9.384800742106584 0.09316006639445246 0.3620586334072216 -0.006625475736317621
Ni 6.731478992779357 3.1817729316585264 3.753371875324456 2.8944399526428866 1.0891869191338466 0.34490423311512214
Ni 4.3239287445909005 0.865950041920075 12.97283657860393 0.9424617750287447 0.07440952525982669 -1.802299093087038
Ni 7.739258668642192 2.7031079105400666 8.28489488919641 3.133584171211358 1.696881549481471 5.190642563696305
Ni 8.304395648307075 5.797921847116253 13.298692508173755 0.735237802207637 -1.3032235440014137 1.4707010901625188
Ni 7.4213157043756945 2.1018750910058572 11.018493124758479 0.6429909916560732 0.852944447593202 -0.3254877762617233
Ni 3.125717783185286 5.360195463120464 5.912027155986264 0.9043212594032813 -0.25900599048940554 0.34836776618369036
Ni 2.8673311168294555 0.5510570290926382 1.1312903034971677 -1.9192565190114041 1.062302436038177 1.9476767220253106
Ni 0.9991049119023858 7.675521208017537 9.392991226341698 -0.08976132512554863 0.44343430557223634 -0.9356478374307047
Ni 9.119556968899815 4.920447418032196 7.821315135575273 0.3817298865839039 -0.15524809397444875 1.5438680012644959
Ni 7.761405046973422 3.2980368232131876 6.262402158860402 -0.8983773831150206 0.027904439719751938 -2.170879072552545
Ni 4.67143390765058 1.9190709814028792 1.6749149712643703 0.7884082155830293 0.897614279696751 0.28866083724136093
Ni 0.3754812768321276 1.8266535013708507 7.0641442444833915 0.27145090112097764 -0.0848903701864925 -0.5559614636393909
Ni 7.4476983816325255 2.0982269116707957 1.8636930893956192 -0.9198103561778159 -0.5088889356316203 -1.2751082738224362
Ni 2.647117087647042 7.956532099871911 13.348913326521478 -0.033224823491400844 0.5856741602124752 -0.014267565662607685
Ni 6.659654887784793 4.6509416156677394 12.366247276111514 -0.8668178631411845 -0.443315777716501 -0.44664895585479203
Ni 7.33763731388433 6.505659448749619 8.720996592823335 -0.9282929397275304 0.5027622539085922 -0.16343680043282818
Ni 6.833067462676352 7.544563516068005 12.928250681083059 -0.6520793271105867 0.33082744330708186 -0.31774027110582054
Ni 2.4206359090779475 6.778804241080535 11.23412992944015 0.4257443444916409 -1.5750670525751196 -0.8747687425571451
Ni 8.582162693044882 8.1516591527704 6.872797697827836 -0.2627173779027217 -0.005766727280448133 0.15226818541051843
Ni 4.848292495767954 2.8171847323674113 11.370804327597092 0.4243338372973596 0.7031031264566213 1.1148190178796542
Ni 0.8210112726448806 0.2710422647947394 4.944451886694786 -1.0164740648501527 -0.5875924602811106 -0.6978171954673338
P 5.908332110871332 3.248009900542971 7.621386637582151 -1.551206186797122 1.5619176596773552 -0.18599745934216355
Ni 5.7328886855186925 2.000865551330799 9.445377059932092 -1.1061718837276175 -1.4674620143999308 -1.3632012101066264
P 4.159696348932909 5.210932548915408 3.7832428369026716 -0.7906556168563093 0.022670445014322246 0.09236842373109252
Ni 1.3764939016563242 8.440536144148231 2.6597065226320153 -0.11403305318871976 0.15015499572225752 -0.002842611655117685
P -0.02313147864538359 2.524981189555594 4.8156049927131725 0.6676802668726372 -1.153069833830737 -0.19318137868511245
P 6.35426460102886 8.289885635284248 6.566537177865278 -0.49119306101375404 -1.5214952899962506 -0.37477530964294165
P 7.505655729406415 5.411802957190253 4.04424571649954 0.2379741095197708 0.4390253778712632 -0.05922793242338186
Ni 7.838715205023483 4.530285205921241 1.843666698400909 -1.5135989179673095 0.1983474962670842 -0.5164328094171493
Ni 9.141776862179862 6.993660868367883 4.310129988697881 0.08253832501454818 -0.16116111702477406 -0.47912661676752316
Ni 6.4412144067425965 4.376041653933809 9.95438997085922 0.8514498653255466 -0.12440822577545672 -0.5535474548812597
Ni 8.779035725977783 0.21405255753465866 11.571821765769572 0.15326834454025862 -0.2462594894570146 0.5501186317053687
Ni 5.130461248066201 6.685743505246354 5.168669723777165 -0.2947286407019956 0.39490936138865534 0.47330075411436545
Ni 2.512345807727609 1.285133199013545 6.040861184851836 1.3424480367196752 -1.1581505907877536 1.0142806567432594
Ni 3.2055090707579326 3.3351894404717624 13.173127137719977 -0.10726513833726688 -0.5557483191873203 1.5090640062114333
Ni 0.9614652581078954 4.3298558873393 11.97719146398026 -0.391695482437048 0.13294223138839684 -0.49876110316899913
Ni 1.8646607299094278 5.4310546844118 3.794392297827685 1.4085611262986646 1.359772901151368 0.7613026176154889
Ni 0.8115342768054621 0.8780974682752842 9.283041349953589 -0.6487109248589861 0.2074844255713459 0.563847808366003
Ni 7.0323205420772155 0.8117833086945809 13.15497078323581 -0.8625740002631661 0.8239457463680068 -0.058244228353873884
Ni 1.9333788283164588 9.093165102274382 11.256120088505146 0.6356666900805181 0.7847436222472485 0.13987032596679783
Ni 2.4964941468888653 3.2569971030358937 2.1400817288431013 0.25206555461583036 0.19627287312624261 -0.19683054540192552
Ni 4.662419137051851 0.6623384449912025 7.373497905917439 -1.1093857626792247 -0.21659101585830443 0.9681416962933521
Ni 2.4720044795640805 2.505159721480712 11.171952823604144 0.08484511877085388 -1.1367217314900164 -1.206327921823929
Ni 4.540678381810295 7.621000684100859 11.790121649472153 0.14477444813663454 1.0596572851058461 0.43210885325708803
Ni 0.36053936348499843 3.8986723337882556 3.1982402801936156 -0.86425730150286 -1.2680693646977839 0.35838581254132473
Ni 8.397649360881902 2.7650166868128894 13.016910628293658 -0.21702321829971655 1.153792313819058 0.9817654577243736
Ni 1.3271010454196575 6.802889576186823 6.282051785742423 -0.5028944086110824 0.4195009346850904 1.2786836498785206
Ni 4.4871411203340505 4.696677103200742 1.5406748368501433 0.18365441303128371 -1.1090867433815674 -0.6835902532346743
Ni 3.536886891920803 7.809621664029011 6.9576376245105145 -0.5487590323536807 -0.4705427317532541 0.269874043552161
Ni 2.7493947601891993 7.699018423533286 4.686986914009753 -0.20959170172233582 0.10620327273165579 -0.9399248675395039
Ni 5.767495847674467 4.476747944444996 5.670405573708234 -0.662051350721634 -0.5840014004957427 -0.884438147326109
Ni 7.635630158915514 0.8517800355355281 5.214317912308448 -0.03087123565755974 0.11565541928349114 0.4652673422869278
Ni 7.989319767044456 8.894095810245561 9.453971876385703 -0.9860298894276824 -0.625810880332361 -0.4056822836344432
P 1.37702688503525 8.96086576250893 7.379967221413368 0.8378057921795506 -0.3578062858887709 0.13215573093135952
Ni 2.9012674550772712 1.553104376821439 8.713963050095234 1.0221726578968267 -0.4448224441690146 0.6883316245744017
P 7.782935737608308 7.115374055503632 10.952993143235926 -2.068148588860838 3.273260635999795 1.4848066763259655
Ni 6.952639526927795 0.8715105288612485 7.58285377715953 0.2375889582662102 -1.271182970626101 -0.4287659049267842
P 4.122580489148742 0.7328898224343665 10.606680760220808 -1.3829488250471988 0.49706571774444724 -0.045273784236134935
P 5.91967179172641 1.1275355274863208 3.8180641113468763 0.4771633223935654 -0.5172943860864962 -2.7773503720160297
P 1.944654183591322 3.9729500001996 7.146926671536044 -0.5392428653331294 0.44500936336884006 0.192618564203107
Ni 5.2539020364991575 6.672271890875573 2.529406789474399 1.3879287947602936 0.2512263465439866 0.3798491246214233
Ni 6.059791284172306 9.047153933683312 1.6231880154027527 0.2998412793382127 -0.4462434928862573 0.1753240387887174
Ni 0.47958763372611724 7.1065430722769465 12.304230984226047 0.01518210705707708 1.7584152472198942 -0.7721673282441347
Ni 4.172396056341109 5.309635557071322 12.397302747302549 1.147775675311333 0.0821133216619876 -0.10442586911625885
Ni 7.538305556049927 5.888216583001181 6.437125137714632 -0.5281871217396 1.217307303653568 -1.1737001084865788
Ni 2.655442655600608 5.881784024979661 8.72550214024898 -0.20951482573781333 -0.44790313997686737 -0.5464962044614331
Ni 0.5141488490388805 6.027564168484494 1.9483722021277603 0.5518456416988045 0.4389215053035473 -0.4539580879216956
Ni 2.9263268632553903 6.6243952804582635 2.086714470685996 0.4184115582756536 0.9981780947544422 0.9514529227837614
Ni 4.956396228003888 6.23008866310773 9.968538841695981 -0.2771289253423614 0.20321588010297906 -0.14024982079340362
Ni 3.8469269991894337 2.8631223860096617 7.022585324980075 -1.0782792710824076 2.278648918440372 0.18140135533104887
Ni 8.268566300127212 0.21681580067333128 3.035648186831112 0.37847178465792236 -0.5842975915799227 -0.6589377447933169
Ni 2.6473468218620964 1.3741598020313728 3.646689738411278 0.46213933818090736 -2.479862937621974 -1.5476639779718184
Ni 0.551466874932295 1.707458201232097 1.960220974003399 1.1175521005401012 0.42548260618982203 -0.06414619566060566
Ni 2.293629645627349 3.2225461601463565 4.672461279060303 -0.8950115519665811 1.7595336770950534 1.4550780389132811
Ni 2.196718564348859 5.78524970781386 0.1986860953581091 -1.081689582315537 -2.428567372671792 -1.0399533789190154
Ni 4.7773689488964015 9.114273081953566 5.13481700878363 -0.47197097955934847 -1.0751342976955225 0.31688100842931877
Ni 5.672707510543078 8.265028393215378 8.75869597751374 0.2037128743440556 -0.5040622036669384 0.0317549238140937
Ni 1.3394423674523726 3.3370548822980033 9.211004970544314 -0.5319548163121484 0.7975004076922846 -0.08226990184450993
Ni 4.131806615225321 8.64675476494954 2.95130632392667 -0.7416653030005356 0.9075328243620435 -0.32918759371081374
Ni 8.998542173777832 9.140444403732548 0.564024147127161 0.20447906308611882 -0.9382832181710227 0.4186694399227306
Ni 5.431881727585996 2.0242341156861188 5.764620494238847 1.8235986258957624 0.5941590577550347 -0.7389723295494048
Ni 4.2130038761941 4.0183087236199135 9.19193335494737 -0.4158445688794257 -0.6506209973975052 -0.30263709691579493
Ni 6.0628329651796244 0.12455913459184052 11.091174597843624 1.109879928706824 -0.572495199628356 -0.09939679133278366
Ni 4.594500513713208 3.0786406478363664 3.851593360565616 -2.77370429062301 0.16749991475860831 -0.5412789219265517
Ni 7.564375794774285 7.051774435408009 1.8501764471186868 0.5138462796368957 0.26340463377773343 0.08341764229570794
P 4.675642638470374 7.158582466671038 0.4871716196334886 0.05229932362434864 -0.12208394851765426 -0.05493598991624732
Ni 1.187964815414194 1.6713991188371797 12.984201070754233 0.8864528637632927 -0.3932222034942196 0.24376423383898663
P 5.614106906967037 3.1884168451578954 0.029463872549139285 -0.6902252420526886 -0.7362508168531836 0.7567219402233419
Ni 8.965340985018189 5.824488311745128 10.108253082986522 3.427825330753974 -1.1082714465691237 0.1068679028988482
P 8.551865344763527 3.8663349456772176 10.25774481246977 -0.07572952962283086 -2.7980171563367615 0.24705061789974228
P 0.8556441650327408 3.879457364041117 0.763027275702045 -0.229286866158418 0.10519231496863819 0.23363511582478472
P 2.8547416818444824 4.689987242858362 10.701715372430737 -0.12408580943903148 -0.08015079861897809 0.20063346408778351
Ni 5.184595818501587 5.723294984698026 7.571246685678127 -0.26981233707629015 0.311141020621748 0.5606385574000861
