# total energy = -340868.66349269834 ev
CRYSTAL
PRIMVEC
9.22003998119781 0.00000000000000 0.00000000000000
0.00000000000000 9.22003998119781 0.00000000000000
0.00000000000000 0.00000000000000 13.49446048840548
PRIMCOORD
 96 1
Ni 6.316252745782823 2.8328479818307475 9.606976197805169 -0.6336745993511539 0.8085587223889752 0.5178808547175856
Ni 8.336169826103664 4.883716735468689 13.047401746634318 -0.2969557302603014 1.502197360998587 0.4857423223118279
Ni 8.07318663336501 8.137579390721767 10.376700149211233 -1.008102810067322 0.140750414578906 0.3506856156835896
Ni 1.7420711835645641 2.4415310563245276 0.41974691796176944 3.2242117009919435 0.5929107871702305 0.5626069939803665
Ni 1.3418569197351382 0.21594808214590458 4.265436546371245 -0.061606974178519694 -0.09513338807073939 -0.8971375971706486
Ni 1.357724608081498 4.791313497463333 9.507494735312013 0.7293209225025697 -1.095897498384803 0.5638822611483644
Ni 7.697119653544369 7.870502500350468 7.925458547060798 -0.15479480848711405 -0.13821093598650389 -0.026007994027987463
Ni 7.34720992638998 5.674021659522484 3.629442816976864 0.5641969641753057 -0.4996144523082298 -0.43988026967239086
Ni 3.2961273172982333 8.204424678642226 2.700876021392365 0.2768509890906264 1.340272369224595 -0.6983653546613198
Ni 6.139615224957975 3.433008026879906 11.998625917277494 1.4088051239886703 0.8454095726687375 -1.5429341765963172
Ni 1.8248487001093743 7.268535327517529 9.566519585547764 -0.861712166483503 0.0869765632915599 0.33426783644719854
Ni 6.330553027377944 9.12586622753639 6.201204168237957 1.0655212000857908 0.07928922194963119 2.1724752133950713
Ni 7.386219914416388 1.3260998718653365 8.314058326863549 0.6046525010871909 -1.4794783221345165 -0.3893547501190133
Ni 1.7034945374046748 3.229512530370604 11.626178725048241 -1.2038655763263653 -0.08075423653093189 -0.5364519328515536
Ni 7.251284633214194 3.11708336610825 3.545061935525934 0.5578453109256651 -0.11000876252067505 -0.6677031496907727
Ni 5.64809490784906 1.2342313961633438 11.425705557556913 0.20758649836684895 -1.5363153857282188 -0.432050746325643
Ni 6.012507757472259 4.488130931575274 5.161469509823864 -0.2433579995395035 -3.2880961583507307 0.4883723037355073
Ni 4.2129957264946665 3.8542347612156385 8.4840611071108 -0.44334740228538483 0.9963279289195809 -0.5561193293734938
Ni 3.864017223351308 3.3606030550124077 10.751872785179698 -0.47938141309080673 -0.5793263636175765 -0.15403941837832827
Ni 5.673228736107151 2.611622348953026 7.241518767150008 1.460866106349968 0.27637739188831756 -2.2699557615417487
Ni 3.4854423927286846 5.823275662399226 9.841482375885734 0.07265140491813939 -0.6397526872244337 -1.726273629490343
Ni 3.0431570876880794 7.1200650280164055 4.7730983870060015 -0.44536803225983945 1.1982950242171233 0.7728818378126561
Ni 8.782180027188389 2.704200767712933 0.3301742321483552 -3.0315558557929982 -1.482932342121388 -1.451198501353217
Ni 3.3848609794977493 1.5648620202775008 4.140667280956788 -0.9219896232173218 0.27944008997404135 -0.2582284888934327
P 2.777297242558918 5.30875134620596 7.28810117379284 -0.7256100493098858 0.17368753162655892 0.893207665988623
P 4.232726611480843 2.4690252147491907 12.622974736514145 -0.6466046771492606 -1.2527507320628424 1.4126944317407477
P 2.716601721127142 1.1191099803047446 1.9710139896822056 0.5617772989902196 0.5686889385083883 0.4818525003391186
P 5.381810940893093 4.74189408460076 10.20262118940679 1.3669861310703555 0.32084025018738294 0.22066955680305222
P 3.3872028695848937 7.90285561970397 12.283818341677222 0.508094464754783 0.781215811599648 -0.6068453949734516
P 5.251817600977156 7.316940536011654 2.658017588789681 0.19677243847048045 0.8408201535258423 0.3618184923719575
P 0.52902928267002 5.962184780717795 11.521232545017092 -0.20574995937874244 -1.6330785960928969 -0.8028806981675914
P 6.8188094504283985 4.006079595251781 1.328546870405211 0.41054552526401555 0.18123114830177176 0.35535936701017506
Ni 0.885258425043813 7.473459930182372 6.894022846392526 -0.7613093024837082 0.05496195805817631 0.7225923455294846
Ni 3.8477991734958477 8.119259171811704 7.741906918455046 -1.5503312403913363 0.6365519208989489 0.10591736606012081
Ni 7.527701423814931 6.011760934255492 6.294787571326599 0.3663675451952207 0.5472652214169736 -0.29633455173653483
Ni 2.9271228878978763 0.8794129198656653 11.602536699215738 0.2992630382372395 1.176228274225071 -0.36702446205292916
Ni 4.515053447537721 6.2554742439936275 11.733972975346784 4.228833237378884 1.028839528394041 -0.07845387053252939
Ni 6.968671975926209 8.020383465927706 3.8469739799415197 0.8676853533478024 0.5368759077628497 -0.764663820778238
Ni 6.310702281875496 5.144127537127369 8.20834227351635 0.6820938711948059 -1.633083481188904 -1.0214542916735634
Ni 0.7276999323974216 2.1158884736951937 2.572880664082271 -0.14795001765113874 -0.05407647012942945 0.37587059958964947
Ni 7.909549368535728 1.7032548163721324 5.889549307857469 -1.6707288023455034 0.08870023085088595 -0.4625594564374614
Ni 5.882542077675462 8.034351826093152 11.980287258288005 0.14088128372981543 1.4178042421634873 -0.21062477097254048
Ni 4.156154181662995 8.703846569785325 10.211446611420232 0.7984946532847539 -1.7041184335495427 0.09325931097647809
Ni 0.11340925448386405 0.985705225694936 10.228274105900732 -1.3286358134269312 0.8752528812824153 -0.290230495721326
Ni 7.152740848759868 5.845975400173043 11.31583311030702 -0.3883617900781247 -0.3511836383659307 1.334214335955973
Ni 5.492949299595604 6.562059004535846 5.119461164882734 -0.9574415362670284 2.415529565651227 -0.28473656248629026
Ni 3.6960465398568374 1.1527354651386634 6.654226209524545 -0.7238966661632049 -0.199264865875031 -1.4479501696192483
Ni 0.4480441418454493 6.813563247831606 4.4764906314374 -0.8456476568214727 1.8074731810888098 0.646145735234971
Ni 8.291295892819681 3.427273162178316 11.121351124621311 1.274047950878722 -0.09386969086696736 -0.23265783951317995
Ni 0.7499534202491206 1.0930725881547618 12.37231504885611 -1.7829793097125035 0.42910991852976427 0.9041852480460492
Ni 2.0004259163672073 6.020160390434188 2.815754028202537 0.8964950784906432 -0.9598583732386372 -1.1922506177952563
Ni 8.359634827173673 0.8677680097079358 3.7997968807371882 -1.0046338776821149 -0.8946264007130207 0.2500469815239048
Ni 8.947707400158869 3.753828528739253 5.1880665583844365 0.8641356883233311 -0.7298744810131945 -0.3366358224587428
Ni 1.5669088690938238 6.743020723986168 0.38265285418775724 -1.3281529602532416 -1.0523630654372778 -0.5517322560493917
Ni 2.2672907458251035 0.26312333734229315 9.030115193111182 0.33807486889811456 2.032216136630287 -0.44717474645127503
Ni 4.388950964380739 0.5717761527921748 0.5197400926590047 -0.7522597906869303 -0.3107635826776713 -0.15207895221784776
P 1.354220992990495 2.3060886729381087 5.334454972918326 0.7794306946747673 -0.47887927664340757 0.41303949533046286
P 1.5576427291820911 2.2843017190958963 9.554981627850706 1.3801895171345069 2.8321153835720514 -0.5863074229211
P 3.8967852444919027 5.231339892774213 4.318956110894264 1.1939161784231374 -1.9486357435044699 -0.8593398095965846
P 0.3686568339031702 8.697816663812914 8.83471489147004 -1.654036943512119 -1.8343566357432148 -1.5014843940919624
P 8.017350072862074 1.277786863768343 1.7284107727255362 -0.8866420969559633 -0.6598394306719797 0.5608409032188794
P 7.437953557246966 7.2510910123802175 13.117384614069167 1.3566533816857798 0.05313236104860527 0.24051487366375351
P 2.7437178579235653 4.5985870073390105 0.884958773753135 -0.45502381018204857 -0.03861051328334641 1.4216195021445195
P 5.433055921618873 6.971871329706678 7.285416298228366 2.450349501543889 -0.7964701666555573 -0.40329964233487964
Ni 5.042900721116513 3.67619579435439 2.7870511225714774 -0.10324958941997057 0.7084427935019798 0.1430813767049278
Ni 0.2807981534724337 1.870017674664178 7.417810536485611 1.8354408699463294 -1.604439592199966 -0.2012371591100534
Ni 2.9566270149800102 5.163213019333624 12.35895521131173 -4.216615098046138 -2.211585549132972 0.11406570619886806
Ni 6.646403927831894 8.92988506339332 1.037461918624797 -1.6596882282606256 -1.407568423368092 0.39907789094404816
Ni 0.363965677697111 5.147336110947552 7.259385360106182 0.6968324629565612 -0.7448141330421625 0.20615645078854172
Ni 8.832244842830884 6.499565575360002 1.835462809827172 -0.5813462222610827 0.7857391533912984 0.3358768328055312
Ni 8.522239447555082 5.866121186946312 9.503419477758795 0.2475203584473092 0.24209250256351855 -0.6248091785407239
Ni 1.9493745564754037 4.947390329727819 5.1040231303870085 -0.9439833538795938 -0.8614586557118002 1.1143441351257648
Ni 2.2046590160535624 8.982236448884679 0.08615573909571467 -0.9119474084899712 0.2832728334565702 2.4930161871744807
Ni 2.609953521764943 3.488097764166077 2.9105664625849434 0.2070666213076369 1.046696868290436 -0.8249793298388437
Ni 5.977748207753621 6.810059632740603 9.68226151007906 -0.9764301615543892 2.598400306438951 -0.9504221675264019
Ni 4.9513826069236195 9.039704956416847 4.633673868467466 -2.504834262855331 -0.5230914523842475 -2.013944077793977
Ni 5.731822088484326 1.2899941963485757 2.7925573302881803 0.13154997902656052 -0.35998786692112195 0.6804280534566087
Ni 0.45729737370158335 4.39561705309336 1.3604574278524808 2.2786067523485274 0.7449707132246848 2.064469597347354
Ni 8.523004710851273 3.3622442220813515 8.738242849939265 -0.14009324061088133 1.485459993639248 0.545580377515383
Ni 4.41934943531505 1.439368059741589 8.717920960407474 0.35556017016707153 -0.9739166511039163 2.3430637943813326
Ni 6.458785339708666 6.2673865353030385 1.2438082514134097 -0.3628839575219944 -0.8707071708932617 0.014676113954936015
Ni 4.977834900860695 4.30244855179181 0.11360840734166844 -1.6968183003437036 1.1819932017333064 2.1257125033182356
Ni 2.18470685011427 3.2150739481797848 7.475255993918496 -1.310050594225576 -0.9959201519582009 0.9542988768729888
Ni 3.8033309219592453 6.613930947962121 0.7042174132519574 1.9037154859530117 0.30369047788097375 0.8106420872805652
Ni 8.872379675702298 8.680187947881338 0.6692587106755146 2.0998526048323387 -0.29888457185189815 -0.3437246109847242
Ni 6.161374518681049 1.98736112009365 0.502935648277787 1.1710431304797058 1.1915366224473674 -0.26348948018205587
Ni 0.7055321909150549 8.046420858077688 11.876649401892156 0.5119603754680925 -0.3122332252446623 -0.31658301757292573
Ni 3.8061706941909006 3.6104015909612324 5.964740575726285 0.8390872299951355 0.007773216187515645 -1.333786247279619
P 6.190030402109571 9.191890931922376 9.409578835562154 -0.9017200743350082 -0.4246151159832042 0.8417074412268021
P 2.270508539684999 8.75577383344988 5.991918486788786 2.278710624916243 0.4293462029102864 1.2155394131198678
P 1.1465027182925627 8.024541703838343 2.417491646780388 -0.9471380974584913 -0.07382151396684061 -0.6807520124549309
P 8.185265436118266 8.077962613936432 5.719545605606245 0.4159420136892385 0.7121384971860123 -0.38245108102064457
P 7.59143033831234 3.813288564849465 6.7062336875346045 -1.3524365153909548 -0.0350698471199396 2.3331066831686207
P 0.2635898713517794 4.8937389186369025 3.5975829697480166 -0.5139074718921343 0.18555857203253204 -2.7585396670674296
P 5.316191918254486 2.0963604295827065 5.015418548743476 0.7823039024575044 -0.15699464435191027 -0.19172356319266334
P 7.8263569502038255 1.4137732294978382 11.869700257960341 -0.1639371371080144 0.6538752426687449 0.05137526914818249
