# total energy = -340863.7987048934 ev
CRYSTAL
PRIMVEC
9.34184863465800 0.00000000000000 0.00000000000000
0.00000000000000 9.34184863465800 0.00000000000000
0.00000000000000 0.00000000000000 13.67273976535564
PRIMCOORD
 96 1
Ni 3.0519631784135925 6.642250369083408 11.406468790624583 -0.6515149699666843 -0.04159016473696063 0.07578429412016625
Ni 2.3638239438657775 6.501889097341112 5.611141986999538 0.2957221149635165 0.7784763011812981 -0.460083226982827
Ni 7.265389022680615 2.158144468328333 6.978661539064515 -0.35898873623264627 1.340896118851523 -0.7526714243030521
Ni 8.274962575904562 6.495396512724747 12.014619382698774 -0.6951352777597963 1.456283629185608 -0.15724481268950338
Ni 3.1831974642995 9.088291920443623 10.621038876239156 0.17874874819955022 0.2624237579217029 -0.4425357050173669
Ni 6.717508299543036 7.690321679435474 3.952871417225989 0.7386288301670569 0.011262203177380605 1.3692471591903903
Ni 0.8762625744456393 0.49683406109555306 10.568986097127803 0.5147186549395201 -0.5501723677614396 0.6358294409106275
Ni 5.6368806476254525 0.6988674132146271 3.8392091481219293 -0.09335572734502633 0.7890491916011378 0.586389441111945
Ni 1.4994413979908323 6.0543491675335845 9.045966808038777 0.17888835910120804 -1.6052723725139064 0.8605292019189955
Ni 9.183139706932776 3.4544100061445784 5.452920969545635 -0.1134679247138691 -0.07780800941841438 0.8083926291247561
Ni 8.042088979765332 1.3390138359522012 11.874596285867433 -1.294384348443229 -0.945495676759062 1.968024432443727
Ni 3.8156873081139473 2.6149328280210447 10.426052080344723 0.2245573218932326 0.837810420165241 -1.3104992517272205
Ni 5.5668728359491295 3.0114849494312725 5.178535935994487 0.32645965325668935 -0.4652012649356827 -0.3293955959565617
Ni 4.029092492252448 7.5618152132732765 9.084263715426966 0.39588406659709885 -1.0638456121555806 0.6999154727572591
Ni 1.9398908648863875 2.8603525265196685 4.1650715029249055 -0.08057657330248703 0.22064513132302 0.45081414297607525
Ni 8.570249060996222 8.705883357463867 9.133581201335913 1.3409537115623358 -0.11423257079403552 -0.03324436387542662
Ni 4.1449781212682995 8.279082331035234 4.0836647678688855 -0.49847802471094144 -0.5884476091925543 0.8279805785590127
Ni 0.1648668083835186 0.5268830505588652 1.2049891399585122 -0.6426287232206481 -0.7381845435407867 -1.0167512297709391
Ni 1.2756013692243016 2.790867858352002 9.145654606167843 1.747342020124868 1.2786682232595525 0.34449979858785185
Ni 0.28302530910751644 6.671920079502943 0.7507492365008288 -1.4629916373334029 0.08924761871392371 2.1794012510909435
Ni 4.793321081764722 5.262907773722787 0.8981542619132528 0.7220747824631177 -0.5894022597963398 0.4590581281524223
Ni 3.4032166770831624 8.6623877114584 12.740026052944527 0.3345452584783013 -0.6855064964207807 2.0141777910713374
Ni 1.7916824405142404 8.669814480911654 5.935965528263896 -0.06297685794285283 1.4177829020072485 -2.1243942987274447
Ni 7.3065959158357074 8.58731661796615 11.026284521741456 -0.7465303444023208 -0.7659529719033067 0.7419558376577609
P 8.89443922494117 6.606181492531195 3.13373704811051 -1.160376394794479 -1.071768466547083 -1.1005249698544852
P 5.66778348202968 2.680531287267261 12.064005064100813 -0.011637327128612216 -1.0316340604200427 -0.9188503062573917
P 1.9535860145951531 3.353826324756939 11.294325506065302 0.6528244328067273 1.0960826178124157 -1.7735353906907843
P 7.224845400759712 5.25568652493365 9.9206384657072 -1.384684833901699 -1.0106674854707045 1.3607681751851015
P 4.364642343813945 0.9499725606305464 5.683867342366366 0.058483598058189604 -0.3852214446769301 -0.3875894306884744
P 5.74501254249514 7.05623437954995 5.793016564523424 0.06043403691634108 0.47905154055521365 0.30936156012382204
P 0.5092699296441948 7.174885195682987 10.671491396724921 0.41408259188299656 0.9093729628945758 -0.9849482263277294
P 5.535381465097664 3.8157153336590537 7.364165056408877 1.0647200443407339 -0.360771796274998 -0.7154477640649033
Ni 7.366495847576911 0.07285800961366598 5.807618807708807 -0.5703408722895145 -0.6687652724066998 -0.3989907305468806
Ni 6.244091449753734 5.451005890630016 3.6387807255526274 -2.3116513415083224 -0.13173432712322475 0.41653388163696653
Ni 4.467421359568269 2.7831608334476834 0.8528425605848784 1.3972672985524 -0.7962770768081447 -0.4057311345945077
Ni 1.612412370315596 8.066835536094471 8.08526513455658 0.4325955630855195 1.1865725935738727 1.4185578325000603
Ni 3.6144358687033478 1.7589859712231901 12.519511722197317 -0.4185570827145824 -0.13521457236234133 0.8520016240639585
Ni 5.687765695690696 0.20520023871612147 12.656881734091897 0.4599837252904852 0.7570893508650898 0.7118014255615677
Ni 4.51932466910572 0.14387847765317494 1.397312574882981 -4.715876537890324 2.1196357009965365 0.259898677507004
Ni 2.804927340147154 4.263825116217084 1.6205481860600461 -2.0102887404295764 -0.11188489649746539 0.16800385097822032
Ni 4.384577848233117 5.2516321627415605 5.593791372024032 0.6678975250897659 -0.42508408519982277 1.1337317956237571
Ni 0.1356707296762844 1.0047718431623467 5.230397207214278 1.3954004205469903 0.2872300183321053 0.7485969971233624
Ni 2.8715347190172076 4.544239378705501 12.931676874786438 0.3179793836998201 -0.5502590139379749 -0.7021803575320359
Ni 8.653101914179743 2.097301009901873 9.89810592744148 -1.8734654288192187 0.9433907146009172 0.5428925462705747
Ni 5.227660979827035 1.377950659953658 7.942466574574849 -1.5541279884296073 -0.06054999366891508 -0.7573168934948635
Ni 0.09412472742540204 4.921509925082377 10.558691380225307 0.5248925101487283 -1.1415839446783242 0.02101311191655736
Ni 6.53750956517162 8.227739532399916 7.818113494197452 -0.5299655537962614 1.3749177272126063 -0.139712717343011
Ni 7.743233908596761 0.2469592351098141 3.1914500531485612 -0.0038008618033289377 1.342973313095526 -0.8632941662586422
Ni 7.187636818706497 6.613393399471963 1.6593374088572745 0.5671737874154426 -1.7129118634714562 -0.5492143747235445
Ni 6.408629425074668 3.483734068174466 2.2925082734178126 -0.2535979320999568 0.21553660645186104 -0.4083307770008838
Ni 3.820442308933703 1.9767537985499546 3.1307018815754635 1.8480716713364622 0.9031264677642318 0.1782538108410027
Ni 0.052284456950900206 4.8310060980847505 13.157687014929058 2.1817391551955008 -2.0792099888813222 0.4709538511487438
Ni 8.434540029741624 6.434702523872188 8.706732531480597 0.4698829866820682 0.3651077046461906 -0.8749050110246932
Ni 4.654220959552225 5.364061307860928 10.1895267556781 0.4616009491789341 -0.5235807333158402 -0.9987360241404412
Ni 2.277066198064068 0.531669813663075 3.646437304475754 -0.419426115583097 -1.220960584135439 0.6420178291095265
Ni 5.893202283170551 5.641775776170742 12.197217953471249 -0.5646885590997436 -0.3046021910619658 -0.6517047173799873
P 0.8324194116808514 3.313077182171921 1.2992138251614611 0.8043837650756792 0.8692010186613806 0.751437551895951
P 8.271580826795029 8.84899113262661 13.260957411907585 -0.8758429494579302 -0.499826568319036 -0.6623125748028207
P 6.523225879015615 1.6157567520316518 1.4391378984000927 -0.6153490615690885 -1.0116686730417093 -0.2797095415853441
P 7.73903007683077 2.0826716753562198 4.501421016706778 -2.729509084163035 0.45209300968849886 1.0003378214099226
P 0.09248056211248064 5.560968787780003 6.630895352391044 -0.727200019504825 -0.40674029258531236 -0.015367997815638051
P 1.5261871098709114 2.514676111326315 6.76574960451989 -0.4582024650203463 -1.7597334518106855 0.9057855026536336
P 2.4634547567197926 6.420792511650939 0.20925833764755927 0.8725866473041617 -0.78726587444847 -0.9972373281077276
P 4.464394600696755 3.970818042127428 2.944274087156589 0.19289187246915168 0.9693411159180917 0.9847718486508652
Ni 7.7984909416986365 3.735207284416119 11.836872967969091 -1.9240662816952216 -0.6400414221094461 -0.8076243835001641
Ni 7.314975553822585 4.955047160726627 5.7815176833661805 -0.16575567837399197 0.3325068878920338 0.3464039575891002
Ni 2.238316211029989 1.5945040469924692 1.481017404637744 0.1450791238612469 0.48263642969299464 -0.7306028745387868
Ni 3.4776992341281754 3.687283602283808 7.969566342508108 -0.19947003990730164 0.23394210554224226 0.34399174860318177
Ni 9.237640050316772 1.3661051962219288 7.887803683029234 1.421974828601409 -0.0013991943403717836 -1.4581739042297854
Ni 8.287209739116152 2.7120787092089396 0.697055094631066 -1.2627631219935218 0.37516997397819907 -0.4443023099994864
Ni 6.42757469356674 8.817994879738695 1.2390355063388645 7.8276109602164405 1.9337583121720054 -3.0847455524421004
Ni 8.932161608654674 7.418174952753509 5.17392853637896 0.03727276830852935 -0.7563658424355038 1.4667971271224223
Ni 9.26341420996649 2.1152840680119502 3.076297759229666 1.526056427004372 0.44573749978411625 -1.5830809240185317
Ni 8.160992025804328 4.321380244017702 3.4512048179692187 1.299559721996581 2.2111487187058693e-05 0.05675324563064419
Ni 3.8271590979109216 8.496710030636464 7.047080302333292 1.3909871219706431 0.5634940245710102 -1.28955607381665
Ni 6.264484704742981 3.148520523154249 9.658847177942127 -0.38527183829889133 0.2141132437417732 0.2851001164732961
Ni 1.043232232896991 7.871777742152435 12.7133373263395 -0.09402421416696065 0.9659668001292203 -1.507929635496674
Ni 8.136432306442565 4.018657647624419 8.330622242671135 0.7622827221405711 0.4057961835044882 -0.8951683892594197
Ni 1.1685344450686648 5.069064420068703 3.2743066430714305 -0.15574457399489305 0.27315399985501343 0.3310984375802814
Ni 0.6670481434854137 2.432523896770459 12.579275262952335 0.09398256229574782 -0.6701994337500652 0.8993999108422639
Ni 6.175148608791463 6.04585742736628 7.649460434670029 -0.8219654827131844 -2.1070864035766164 0.8627874018255527
Ni 0.35222505089993233 8.714020107393155 3.399932083196667 1.13742878485937 -0.8439756684356885 -0.6843649266171697
Ni 3.5498276453842323 5.9187802640045195 3.3727781325428685 1.1119607224952526 -0.26242221525980614 -0.30084452379174637
Ni 4.999925400290685 7.349540392787409 0.13945417826567738 -0.29523103425971087 0.21590273154202816 -0.24437127129536626
Ni 1.9104920680695487 4.36055061422838 6.045648169962817 0.8105418142572751 1.1435485246038628 0.21443257475440486
Ni 5.4932403871056845 0.7884361211905304 10.409726266135282 -0.31467165948282577 0.4299110742748209 -0.30631814531180795
Ni 2.021136920150463 8.052411722212934 1.4426924717044483 0.9169381768363434 1.7938013400286723 1.07305376101741
Ni 2.9010923272563174 0.9406867633518881 8.782820952260218 -0.18339241761914868 0.41315030987671425 -1.3582680344710674
P 9.229540667780961 8.749743335555719 6.980958699578419 -0.8485563458278353 -0.6013152091838418 -0.6729605414349701
P 3.129164213333947 6.060000985796751 7.70565538934814 0.9571738844279386 0.04401291524584033 -0.7526783662815876
P 1.9973152068098408 7.309108873046934 3.5860861614583333 0.013413702302744641 0.9474368596458329 0.22087833037974863
P 5.377354758089833 7.681568367513841 2.361213831431515 -3.6963186919085245 -3.259017752927536 1.9659541801782594
P 5.154392863069976 7.601602145476301 11.523384825515521 0.06492729680100431 0.5909840024611628 -0.9331016739700834
P 7.0728815533432785 0.8717056208113038 8.87858517407436 0.016740966903764715 0.41196091755430336 0.4722957098886189
P 7.352679253839351 5.050931892384724 13.547483111598918 -0.16050188617422034 0.08723598760053362 2.6608498311234237
P 1.8206982215479555 0.5989040305586802 13.19683216214914 -0.9799962816390929 0.5033415234508299 0.16803624687805255
