# total energy = -340862.33071100706 ev
CRYSTAL
PRIMVEC
9.33053414941626 0.00000000000000 0.00000000000000

0.00000000000000 9.33053414941626 0.00000000000000

0.00000000000000 0.00000000000000 13.65617987251309

PRIMCOORD
 96 1
Ni 6.453622481605655 4.335740545117753 12.510740187351216 -2.013681311050893 0.7260088274102012 1.6950023301808874
Ni 4.654872800579352 2.7341077260299276 12.085363940039057 -1.284307166712885 2.0943427307577025 -0.26840748630896355
Ni 6.716640905404943 1.839132232312383 6.111523116626799 1.486093256347873 0.8678830711809054 -0.27475322602133323
Ni 4.303074345475292 7.074476216027046 12.152607232693523 0.3197596155286945 0.01652293735568767 0.16613954407597195
Ni 8.065276294242754 3.748887276705252 5.936874180634921 0.5545512135554256 -0.16894024674956065 -1.768300881764722
Ni 8.15916012766247 6.589577692971061 6.280381523199051 0.5015834031091426 0.7471661782141068 2.572347060995325
Ni 7.694508863453711 6.7031209615940535 10.988977672621978 -0.7100466476539901 -0.14871466373130518 -0.3663983984331561
Ni 4.4934638923774335 8.989260418262612 5.6403022234068265 1.5385183069168082 -0.04641869647385554 -0.47177506149845855
Ni 8.443246897303709 5.538129143553986 12.75095291987198 2.615289368884805 -0.4898401465302854 1.0329108702499374
Ni 7.4800651998197045 3.4360904538506873 8.225390124321171 -0.08505054991344062 -0.0001416677841868528 1.3198999762158299
Ni -0.08094704798576462 1.6077443188781166 11.97084283144962 1.3084935341511015 0.2758531439537314 -0.9695406335234076
Ni 4.845206364277308 0.029791462107515168 10.029972322170238 -1.2975396062427589 0.7830914313558062 -1.4540035749021798
Ni 8.904016659355582 1.6527734761116248 7.326158040978694 -0.6635186792957798 -0.8001417019698736 0.4375837603287303
Ni 3.5851270739275267 6.132484161327395 7.281884657001695 -0.2744737471077015 3.2288792816709426 1.3033096759573168
Ni 0.8228513987114743 6.080578400513055 4.814663794180299 0.8822169713050741 -1.2985577630946281 0.7185366874028722
Ni 5.9055189210238135 0.12851690963590856 3.5421944876907796 -0.6327600579566844 -1.3660571914981827 1.7243674136065656
Ni 0.1384492631118865 7.146106725782878 9.484995423542179 0.09413785692668948 0.41891215206115595 1.8492374095097894
Ni 2.0386657025648844 3.5237881432078657 11.367158212698632 1.8158230957154016 -2.0362298857753705 -0.42787373212981794
Ni 5.767081787606167 7.233720440333777 7.173973298719801 0.3898257762181609 0.9519884835722573 -1.3568156182952569
Ni 2.3167995914943593 5.440130544626606 12.818700994417522 1.101468050494045 -1.0818618462273433 -3.7269050493358136
Ni 1.7460414942852982 2.2411289605031137 6.73002462341898 -0.1685674367911742 0.9407527627574378 1.1379738587295627
Ni 1.0828178048292283 3.975134065888448 1.9174779274103106 0.19567252053808237 0.9783962841418248 -0.7339203689477941
Ni 4.584212666362743 1.9156612724344788 5.961536648185606 -1.7887900028570096 0.8044123043207695 1.0477908726855631
Ni 8.317275357351452 7.446465946774146 1.292811736783861 2.171373238580144 -1.7641655194401102 -0.5458577995464858
P 3.0808770232912894 8.124459871601257 6.8167687321981925 -1.1379419770503627 0.7229502430895356 0.30813951479126284
P 0.17125168855119882 8.005094349742933 12.295969955026122 0.587587318074788 -0.17768071194635204 1.217982989564354
P 2.8449824619200594 3.298511729563891 -0.13560718244605005 0.7638886331751102 0.08843412167369286 0.5701673228261277
P 6.745192339539741 8.051028568777447 5.108203327848324 0.07329315226719636 -0.6861775543458762 -0.03231362453104112
P 2.8818380713424294 5.382850396210421 4.125695295225949 -0.8949537021454521 0.11499258888851163 -0.15116415371306224
P 8.292810697122224 3.376822901685904 1.469350105917013 2.1311434445258204 -3.135953699884799 -0.16619379435267506
P 0.7823802073520997 5.043648162048184 10.901537506004054 -1.8018470931512838 1.7181324884404474 1.015415284568335
P 8.3275296142515 1.8293071799777616 9.541558986944784 0.7535533126873732 -0.35873805367442085 0.41025319083457734
Ni 5.130002254504902 3.4201818933278667 1.2859967147276337 -0.3081708822498306 1.4266876606960461 -0.7188711879241555
Ni 2.484739873517963 1.2433589733662653 12.731533279393302 0.28948307603234014 0.16269375161921656 0.5473253852309476
Ni 0.35525168574892524 1.7550921122953487 2.8625807821558906 -0.27480027720918476 0.6709005735821477 0.025261345669950044
Ni 6.898362386192304 1.3599160044812642 11.233586952778143 -0.7393273988959783 -0.7179319639393378 -1.7927009078756415
Ni 1.6513738960069781 5.6267039031100765 9.008804154843903 2.3161451156136175 -1.0710650127221555 0.41849871867282123
Ni 5.275735865534775 2.5923862446333765 9.532778021368228 0.12154504529504873 0.008302092107792154 -0.10072450900527169
Ni 6.685206336254572 7.058521002834071 13.163232829618254 -1.3079453749571153 0.2954248954380719 0.4579813501484758
Ni 2.158087207627394 8.968537302179808 11.003384950219214 -0.432886611963377 -1.4830873796420136 1.3497684816404882
Ni 1.2209656916919143 6.9083273965373895 7.16113634999998 -0.9555836571226832 0.47468477894608574 -1.594546758566286
Ni 1.2696990709357214 1.2149381667079011 9.157533800351123 -1.1293395800933326 0.4259014388947955 0.7250840016030867
Ni 7.905341610417729 3.401436850459629 11.171082638358014 2.2147719172807534 0.8524088868047062 -1.014323337055737
Ni 2.989829672216989 3.2090785608769505 5.137250213340167 -0.03372670282848385 1.222224024228895 -0.3337474451673542
Ni 4.866974500171584 2.351453194885418 3.6432908239164448 -0.11572483906884586 -1.3698755368030087 -0.01224179348183053
Ni 7.270034878782351 5.029661691535746 1.480111010814942 -1.1528271216923114 2.356651560368096 -0.3544641088894153
Ni 7.850132840556422 9.365336922915281 13.070957580265478 -0.5212104333114507 -0.6217639639564969 0.9444332969328186
Ni 8.524422543373234 8.97114052117445 10.786046954928798 0.33302265118618773 1.00735513326802 -2.472806544995825
Ni -0.0003928154827042465 8.269764278065704 4.50641653971924 -0.07026979205984027 -0.9976942131394881 -0.7980333973776191
Ni 5.694434249640959 6.467524977311815 2.498124524585404 1.012086220195102 1.7302418701094717 0.34256607190024874
Ni 7.887697570565146 6.138856916070553 4.236447801120275 -1.9834525940733387 0.335656489264609 -2.68874270087895
Ni 7.08784687129344 2.016804261330299 2.9434391900683607 1.481394308210307 0.7872154808265087 -0.9134031670998913
Ni 6.530804659109919 8.710221467532133 1.4829932127771115 -0.08968676313387135 -0.058424205575163896 -0.4981157562755164
Ni 8.420349766791686 0.9335572519356456 4.9065154372880695 -0.26658611682950867 0.05426750309431299 -0.3291410567435944
Ni 0.5750436114894899 3.511873051250305 13.301815519366784 -0.7328788150571571 -0.0007044822661923351 0.1557026650133641
Ni 3.145434988251638 6.146069418876501 1.0864007298971246 1.2537742882313503 -0.3237085728741135 1.3264269787010703
P 6.5411895434864 4.804450591629988 10.282434179766875 -1.1540206277797804 0.425084599420455 -0.946669128241873
P 1.0006531221524209 5.843349572775395 0.561368780813686 -3.032485309585803 0.2029932225692117 1.0795113437172956
P 6.501674731865201 1.959748045730858 13.216464459318397 -0.5776867711316244 1.0053910675631137 1.5967666490357402
P 5.227720937411353 5.637032804282372 0.6126232703526638 0.29327982407061104 -0.3630137982316393 -1.2943491243299192
P 8.691289813983275 9.269577652155336 2.3128107881961153 -0.403442338560331 -0.2526031722868553 0.21581865646865414
P -0.07029531033599816 4.733958407025936 7.3186059067340175 0.7125488452505535 1.3348853938810687 1.2382504815641384
P 4.266330702461294 4.342878403651452 7.077725107976633 0.7718968481915673 -5.011180334369499 -0.13048425676620756
P 0.593082332931583 2.4500862701269046 4.958258846810271 -0.328100531294222 0.7568836626121868 -0.2905505980649061
Ni 4.920317163226694 4.682481850777021 3.5274046581982734 -0.747822323740867 -0.3571411415009462 -0.3980391652668887
Ni 6.292428175686449 4.920457121237159 6.94123152479764 -1.0528636592227805 0.30856991746046214 -0.9562346604431208
Ni 4.306787898019622 4.92741769962427 10.578882973945761 0.09779088029824448 -0.8588489860030951 0.2754541087430998
Ni 0.4264277984974479 3.6252856923968633 9.350249449387189 -0.434240040667478 -0.9372486062589214 -0.9298754537233017
Ni 2.627105161762652 7.7337624201220425 4.462744042133837 -0.505447256939923 0.1292447279321516 0.6452821016830951
Ni 4.657830579867173 6.6266665657442045 4.803001559694977 1.1122944516855877 0.22969464311979795 0.6162006109361065
Ni 2.342010694446066 1.8467832702177864 1.5191676932152203 1.2976267666399264 -0.5847480488537801 -0.8220690981705842
Ni 3.223988754258456 1.1023466125560688 8.00170176756927 2.3496293634139924 -1.0374349833725358 -0.05172828161222704
Ni 0.5590100218106543 0.9381478746788876 0.46426871231348926 -1.163920146281679 -0.8100113956751017 0.7284832570926227
Ni 2.949307162920444 3.3656075997806667 2.9621758354559713 0.38986974208221886 1.6249621376333496 -0.6078211286231596
Ni 5.226778553474224 1.197070194038575 1.5124357129118682 -1.235329965483234 -0.887139348307356 -1.376418737238165
Ni 1.3097084008605624 9.48980624688855 6.346954883510091 -0.4961722593959004 -2.4554415713548163 0.20640764756739938
Ni 5.43788188592514 6.868672626905726 9.490184133516806 -0.7491076182111938 0.2500642079150855 1.417303905488301
Ni 1.15845111368435 6.465966778128641 2.4984940137330307 0.07648569106256504 0.012396573892139941 1.4244248328037985
Ni 2.202267286264083 8.379640646814522 8.85418880846994 0.560714404943344 -1.3789330190195865 -0.945231881574714
Ni 7.4786656197150565 6.131401819379801 8.631538940155687 0.6067983437856 -0.8850618969530369 -0.5955752213762712
Ni 1.8643806574002142 8.096626888586844 0.15516864704199906 -0.2852314998448378 0.033564723329322844 -0.49752260277620775
Ni 2.054182380658404 4.4841053667443616 6.7764972142670805 -1.33661934585304 1.1035928101465315 0.5416491607817768
Ni 6.94327957701744 8.849367721536135 8.60915592206877 0.502106108381832 -0.5969895852252944 1.0280869664987327
Ni 8.783083607780053 4.162584494570831 3.502837362094704 -0.5491449549381897 -0.9755963527991842 0.833799499233635
Ni 1.546032166797217 8.789698956408019 2.663720043407023 0.12321369124672327 1.5155480712738802 -0.6175694662591751
Ni 4.0674783611930545 8.036808834914234 1.9901422603367744 -0.3080793509772888 1.8874931105568784 1.6769040779182798
Ni 3.0288406350005155 3.35983199921549 8.887073342608726 -0.2762686342245952 0.3301710406700056 -0.1584439752039271
Ni 4.93817580536199 0.6055367297561347 12.34786265309282 0.32916882465773634 -2.473322565400295 0.7696790146046422
P 2.9536831833809734 1.5970981795487689 10.606590927804158 1.346646905292371 0.47873940863143355 -1.5181855088967273
P 4.004254662599136 8.618119766112333 -0.00424352687728958 -0.7926158259064736 0.2536802074011179 0.6843772679123439
P 5.684058695798509 0.8395371927190753 7.579603336862196 -1.9276272595736024 -0.028762931065305305 1.3232964034918888
P 3.562332579289843 0.41976113193231285 3.774499592620291 0.2823202397353138 -0.08870614438815691 -1.2111831930337011
P 6.390072214320653 8.442211208026272 11.071610748107142 -0.10179048837594082 -0.785324434451383 0.6495295641055394
P 3.256244410403553 6.804693155055298 10.244101546807402 -0.37104155363212227 0.7376590100546199 -0.9349942630071059
P 6.528350728659771 3.674728192227025 4.339469959569936 1.272874499395911 -0.08157827509412402 0.8186767846595836
P 8.989111129718118 8.394998705829515 7.96939106127339 0.26519257891609166 1.1430075644987283 -1.9709765730935154
