# total energy = -381166.9926852926 ev
CRYSTAL
PRIMVEC
9.25607956811696 0.00000000000000 0.00000000000000

0.00000000000000 9.25607956811696 0.00000000000000

0.00000000000000 0.00000000000000 13.54720806681146

PRIMCOORD
 96 1
Ni 0.3076544902768173 2.2586314530429794 3.9265908318768448 -0.45299392423621343 -0.904898729173306 2.628348773171925
Ni 0.48442709326274785 7.029427627973195 2.207652670541916 0.9369804401991992 0.7968432337242598 -0.4924480164667777
Ni 5.0642046335149375 6.015572234975974 7.039440854589081 -2.7556379200396024 -0.944260004579748 1.024850461839306
Ni 5.753662214340836 0.7342375670017091 0.511389126734196 0.1985863517507677 -1.4770128913131593 0.2365435477208313
Ni 4.550594047742275 2.4827211335482358 5.745031845976396 -0.828342846994438 -0.24247508271391785 -0.1495567000166263
Ni 7.025512306417899 1.3994914259955877 4.783587150952116 -1.2900067882008235 2.1000868323303314 1.4210489743530301
Ni 8.02577977496317 6.918863760412878 0.45735676366317446 -0.25809144909493614 0.5316388277336264 1.4494820328827425
Ni 5.952686432028734 7.203969515841333 4.794844394629543 0.9401446968597937 0.15382061749930284 1.1546934854770887
Ni 0.3931751096101615 0.739881924175278 0.31848132626554093 1.0373007717875167 -0.6018080896598603 1.5907461538732732
Ni 3.947366101926165 0.47639651883869333 7.834594530857258 -0.02893776608027274 -0.4528386296052717 -0.8684335443677366
Ni 4.3962304128068705 7.801838191727144 1.1804444575076496 -1.3555892020873233 -1.489122787202816 -0.7413935373963876
Ni 0.12513293642092338 6.061084377026547 5.773210128271404 0.3884862314711309 -0.26138837467865306 0.7085973168019732
Ni 4.247429681546958 4.755079352233069 5.172703469777414 -0.12545646453431297 0.19517758317953482 -0.014039251701885498
Ni 3.464189504980487 4.126628590251043 7.320423026677384 -0.604111026761424 -1.931099020172287 -0.067072111058149
Ni 3.7650768756613777 5.363981274676595 9.243991812948538 0.5986613165007626 0.5600258635167517 0.5192178283614542
Ni 5.783161339155799 3.8835361788875757 8.328444312874833 -0.48259374938051725 0.6365573202155876 1.4963990091492552
Ni 1.9022353746384204 8.583014262603706 12.202823452484264 1.3670797192254263 1.5793371407053831 0.848897531217338
Ni 3.535257682052744 4.445185816367064 2.1445095485893857 0.5693905925611031 -0.17304809827034714 1.4125026274449157
Ni 2.353098998653745 3.2491059896603454 5.019470927735761 -0.3577270959114032 0.7120202264405932 0.8833225456644271
Ni 1.298387271507405 0.4498260175227748 2.8404972933804418 -0.9831173437665779 -1.4477246838720035 -0.36761015935307007
Ni 2.7139194829765825 1.2292073346178434 0.17932450405636832 0.42696433294167113 0.08030275081581009 -0.7902761220297034
Ni 7.010822908526043 2.077564029249348 2.5594197836750716 0.11936629247617508 -0.5980547932650152 -1.0106317471367627
Ni 7.23660645154813 5.475174555631144 2.4778117090732255 0.495017834076483 0.8970401523608357 0.7599126792464977
Ni 0.7482994027151988 4.648634439973241 3.6481411230923935 0.742763935381353 0.7568075579586128 -1.1638730950938279
P 0.42483645455589786 0.8845637001347021 5.52991593437861 0.4595492088562279 -0.07062280452388482 0.5135246346314188
Ni 1.9097142867345893 3.5699587234494485 0.7445636490988451 -0.6158116030278039 -0.2225174086450684 -0.6895580407823351
P 7.625732026452754 6.446100252710009 12.069180476730152 -0.4226235394744722 -0.48145783600386116 -2.1380447996313436
Ni 4.1162432692462145 7.857411692006101 5.921375892489489 -1.280252537027537 1.0427121726110753 0.5765297747090458
P 5.664942693992101 1.9501170729966895 7.374449836100809 1.5452160306519582 -0.4148354108886211 2.027405345505205
P 7.785149480700668 9.445921513937163 1.5599066855949473 -0.1121738884927939 -0.073276440096648 -0.717118466899107
P 1.039078209163136 4.170271004277573 7.779118219411234 1.0821588086424718 -1.9967714226694318 -1.2524170028725075
Ni 6.264264574332241 7.737517696484227 2.230886355260472 2.413481167762631 0.45526189433478365 0.5426215519973753
Ni 7.729316810200557 2.21196230107654 0.16979166795755118 0.5102693609189147 -0.8260689633585966 -1.3564813748842897
Ni 6.037731288884673 9.288290482999347 6.5235088441212215 0.39291701354897496 -0.3771517802949182 -0.4614317705909214
Ni 5.096499094286637 1.7816564292463521 9.593658721682411 1.7023749684958747 0.2915376445685237 -0.576802311644142
Ni 3.5265291992474386 6.7514860779437935 12.537303911866426 1.1585375418135273 -0.6369977501871159 3.375611881975212
Ni 5.926371398502239 7.911920743162461 8.4758649627071 -2.0179226028257506 -0.008081234346237696 1.1895219060101836
Ni 7.812751109253608 9.349195484970624 12.790515069150103 -0.9344471322543842 -1.4741653945620352 0.0017511783631518228
Ni 3.8086082167359834 9.205624438530434 10.077618382939148 -0.8860422585884354 -0.1926062229079328 0.5926585619501084
Ni 2.2012530172952687 1.7189187235683423 6.921485082078268 0.0040332895291091825 1.0717774654081478 -0.7766143082718948
Ni 1.5235691693732398 8.266558166494901 6.228938747580969 0.458613584415836 0.22239039614890088 0.3262832755798251
Ni 2.9852892166838556 0.5406503703104565 4.8572831289452925 -0.0415359144602575 2.1557599575229194 0.6327176347545233
Ni 8.297380910653617 4.967904384197437 7.822740270063243 0.9520671593289927 -1.4347388131352967 -0.040289443647666096
Ni 8.3796581997908 8.473764758307816 5.973939315771324 -0.49068321125687103 -0.10226305713698516 0.5376804059420159
Ni 7.723633577493815 1.8251970264002855 11.02215684907277 0.2215324190239798 -1.7890859368308738 1.97323425877944
Ni 5.587858065357331 2.327163464379655 12.205600276282347 1.0435051008260159 -0.20487269898011165 -0.18493379396433957
Ni 6.810780522112181 4.070203530674007 0.7549304579450197 -0.1290251557221778 0.35506471858789174 -0.5648536239226981
Ni 7.626472512798909 4.076858651710078 11.525991163860315 -0.12708500127667144 0.7116893254637355 -0.1156155671844912
Ni 2.388272100096123 2.52495662351707 2.915711268383236 1.0145812187028138 -0.24124686673377163 -1.1270808659661429
Ni 4.527287239997037 2.49466147587999 1.2314741484450114 0.45588255863791805 0.07831143141739416 1.6329420705150328
Ni 5.888153046961297 3.8577579979620436 3.4530748049246958 -1.3929740704936848 -0.6757746138449974 0.5916735723290197
Ni 0.9355397058119674 6.627797089897873 12.863236381990152 -0.3664287374504593 0.14070156361884156 0.021885487219181664
Ni 0.4413900268242002 3.956603669094453 10.121362613838274 -0.04506089689438046 -1.3035107362245293 0.40304973110760267
Ni 9.298379609465714 8.942501871503465 10.967508031118571 -1.248776835016759 -0.533099728549869 -0.21624160293868566
Ni 2.9276978911116256 7.929285147979803 3.729681628315153 -0.28277866742897106 -2.4246343561659724 -0.9746260184661149
Ni 2.292934483028625 5.973734756418199 1.1609372703261203 0.1619062227209147 1.0067563233417565 -0.7028208193295121
P 0.5939329909559957 1.4090436998609916 9.861703671695448 -0.028166178021570846 1.0889537200771182 -0.8897600737596546
Ni 1.292306027389604 5.746303631275917 9.003650308361038 2.198279318942369 1.5878796309587555 -1.6841335057871836
P 3.4450664450910256 7.453133915243274 8.131277790307852 0.20037943909544845 -0.0014909827232296902 0.11514685507818878
Ni 5.550352431924564 5.168326269863703 11.643107409976174 0.14980429725105812 1.65090354008946 1.334176283629186
P 4.700042704555075 3.6844008882477546 10.55869384987761 -1.1689708213317094 -0.9289017769561227 -0.9977214668329979
P 9.085952588912406 5.057956779969252 1.3379523825904167 0.9542772796064339 -0.7296695640912401 -0.5227844626667899
P 4.3376857110639655 0.2982660490155004 12.344527547724212 0.39952937665917 -0.3179279616365944 -0.1748116179286731
Ni 8.360183408886915 7.041275409511681 3.92354187934655 -0.1460520292974775 -0.09269778204605326 0.1689847268342509
Ni 7.012368673773643 6.668394253825839 6.976892898537273 3.2522246412651024 0.7019494724681524 -0.7632479142673178
Ni 2.397315289598545 6.822970778585763 10.793358601013898 -0.999569061564698 0.290692522959409 -1.9108304997312382
Ni 4.815789976538479 5.994968202394203 3.347433320350446 -0.8547771299265665 0.8178720293701011 -1.7033198489076473
Ni 0.3630826701103417 4.435254043249256 12.609388406448781 0.18580591215664774 -0.6347940576675777 0.7321146831976231
Ni 6.503913724186086 4.028754807447963 6.187050360586895 -1.4618315555870307 0.21532706154421624 0.40720514803687285
Ni 9.234197955412702 6.482115657371139 10.518242006395079 -2.0324004847269515 0.20971177223996787 2.2426185071793765
Ni 2.7031268944813687 4.710113318862787 11.506225732065563 -1.3194528613760825 -0.8837269801916974 -1.3352288932634166
Ni 3.540311501365255 0.4272930180092682 2.240952341528521 2.1930658930622298 1.8343877460914666 1.0828650906808772
Ni 8.150486931735053 9.220591518802097 3.693578290900417 1.136642798622965 0.19751548728409207 -1.780526991517269
Ni 3.927132312517471 3.775943512791207 13.041368703029212 0.036803284871278555 0.07600540899203684 0.16413254094827218
Ni 1.6246455556234423 8.30538741927142 9.30374813547534 0.4466456134206823 0.5908847578791372 -1.3431527760961837
Ni 2.6744978411231384 2.6853922464909483 9.180347011496488 -1.0049208127949145 0.25418414362072994 -0.389733987835303
Ni 3.366250929622118 1.9636031805760432 11.274338730335293 -1.0703006237523052 0.40947620345923674 1.3138054332823181
Ni 2.529612431418521 6.022181075615411 6.4916049898971195 -0.6353134205061575 0.36072345953556584 0.3473835478935501
Ni 7.82579292502527 2.6825876544548852 9.098576029898489 0.25746564258547916 1.2640630717518682 -1.3604123345075796
Ni 8.809279121750794 7.5164362417602275 8.437553124764953 -0.7995331218515972 0.2113639631314102 -0.70863871156287
Ni 6.372218227522362 8.937901600077975 11.031057494953556 -0.3171221779058474 1.0891300977539826 -1.4830850656491683
Ni 6.918512029398454 5.914912372295485 9.359657631433866 -0.5992696395087228 0.3784447880747289 1.3152519359208574
Ni 4.69721034428103 7.28006374398812 10.59757401109043 1.2224770207799656 -1.5117860331282869 -0.5457037904671247
Ni 5.784012898453877 7.667208517916779 12.79251993593232 0.39963556321973104 -0.8043218014894922 0.6354872270798604
Ni 7.370060603283973 0.2915424329924101 8.89846977653727 0.7851056335723575 0.9513639626143809 -0.30440138790506927
Ni 0.410666322714283 0.6627880394611815 7.83401139785966 -0.9652098673585378 -0.736365745164493 0.45985902678716284
Ni 5.425015861758448 -0.16932608716740602 4.006437474582774 -1.3492249504321927 2.412961290703419 -0.9778782068548255
Ni 7.996715685876572 3.7713802656830246 4.5927471586051 0.9008749527258937 -0.392133341305415 -1.123498290821207
P 4.574113745312034 1.9671667711169156 3.7061498978422693 0.06442130369886324 -0.28961291674198514 -1.661730969722267
Ni 7.874711304268155 2.1982355354346854 6.835053664539153 0.604836592073539 -0.6798415848255195 -0.1655006249403924
P 2.5278537763464026 5.8374019640116765 4.269849756892675 -0.040876169389071536 -0.44481524508016296 -0.08557582628929133
Ni 0.8962374673818407 1.887518208508583 11.901208553968276 0.13603398293984315 1.0307771117363862 0.19957262692343694
P 2.284974254807455 8.319502940245007 1.312060351889163 -2.044608339647053 -0.8227015895482606 -0.9263604985915079
P 7.228877625310133 5.674587528650774 4.997253560527303 0.695128592891577 -1.7065661237590866 0.2879141888833235
P 5.012740832457142 5.120972168027071 0.7331749690949763 -0.6196034659700684 1.6576627131901644 0.35250955626620584
Ni 0.044026541318597685 2.7240456337602565 1.8789979874881335 -0.24337599726163245 1.1710086776973445 -1.8343795185613505
