# total energy = -340870.7584749649 ev
CRYSTAL
PRIMVEC
9.22840005094035 0.00000000000000 0.00000000000000
0.00000000000000 9.22840005094035 0.00000000000000
0.00000000000000 0.00000000000000 13.50669629552201
PRIMCOORD
 96 1
Ni 6.3290490993101285 0.3519822570934592 4.586077465220366 -2.7584969867549525 0.7965917798350862 0.7630823352237309
Ni 3.9439506149856 3.210874189578609 1.8484457883113994 0.9442188669291675 0.17021011460091978 0.22978694572328814
Ni 8.408595253546343 9.029435875916967 4.516612528516235 0.8296551380479582 -1.6349372465681906 -1.4371134840150603
Ni 2.6462437527280063 6.178829201116906 4.3638788141129226 0.10786626225637551 1.2461666510874214 0.07041583071940131
Ni 3.600847924549071 6.155379836249664 7.215601202495215 -0.816798079579632 0.8570116756840402 -2.547046377447007
Ni 5.084110229303969 2.7891270727750426 5.558843128603309 2.4838841429662253 0.5662623313447668 -0.9792920564832168
Ni 4.914252295519447 5.210954589831419 0.3567496486284524 0.14019634184764887 1.0749638335559293 -0.5334951642160748
Ni 1.0469896860619023 4.73230515749404 5.068874140600381 -0.5167092030069875 -0.0975813353905997 1.8595624455848814
Ni 4.840665032453177 0.9766600482605416 1.2040561343515461 1.0190744785874772 -0.42026120988988264 0.287515410783008
Ni 3.2043681674489726 2.058385432614574 11.465915323945293 0.7963696365219511 -0.30198840758820256 0.19597179694605604
Ni 8.610115828361762 3.00604984749736 0.33804460429574307 0.5095515089162836 0.0022517721486541866 -0.43426729436098754
Ni 7.783694135094811 6.946567497614556 11.411659713584218 -0.3366823594259621 -2.0291935477538794 1.2246683720043294
Ni 3.8535215215837453 2.899406454972426 9.323820918942767 0.9964176604199099 -0.8139428695190241 0.2709533926592688
Ni 2.627574699156014 1.194681002604741 2.5526843859837793 0.4147083983924535 -0.44127535024770453 2.73839404535749
Ni 3.9158132228249447 0.8450427591579878 5.420737351331468 -1.1827743028737048 -1.5291929157508244 -0.20660896494492803
Ni 9.207636283467718 5.449573333386042 10.058531694022324 -0.6625658284642073 -0.3208528485928732 -0.43419916012721343
Ni 1.433511999363593 7.920883532228391 3.0557687763280397 -0.9188734461858432 0.9241501212037504 -0.20672929257287623
Ni 4.729001390228211 1.3767573382327218 7.626705205366711 -1.5250308139533348 -1.59898551106393 -0.13300213809205483
Ni 1.898540313029563 4.026175660623983 10.859343653938984 -0.03044931762879272 1.4028625332519906 -0.29956514285869057
Ni 2.3098408808249755 8.345343798686018 10.167908538681722 -1.5730785613901812 -0.35607156258585126 1.5542426596306005
Ni 7.258505880630117 5.303137079268211 1.9729775117527693 -0.6196430609587522 0.22807587656945236 -0.7888962109630414
Ni 7.839396758604718 2.3400177494262677 4.775144313987636 0.4651570419613086 -0.33832735122855284 0.9477191667729422
Ni 6.475743748633108 7.190104978467188 13.262062845574617 0.08154536497365956 0.3164536910839131 1.0489707519262774
Ni 6.2106671817512975 3.3249095306508316 0.9559552096079853 0.8713489182423187 -0.529726955422894 -0.35670971039048244
P 7.1970816490062015 5.061934383662102 13.247705300568535 -0.21778297928387652 0.7794160393867481 1.362940757356388
P 0.9280817496925898 0.8141977543833823 4.743429993915709 1.5999992970404249 1.7544657756538429 -0.7446436689025692
P 1.0808302295361956 2.4604022298250015 12.106619154871705 -0.9452185118382754 0.10021928723407901 0.7509061048725133
P 4.341593150508867 7.479424552632054 13.194138128861177 -1.0851099208509958 -0.6299117898746119 0.3623460827406534
P 6.968512633251826 1.2430562763686477 6.8437889590866305 -0.8223395782231515 -0.05503986248396328 -1.269143314488253
P 6.959358060269415 4.784547130934993 6.197764032614194 -0.520439359473381 -0.923285716320926 -2.3854546006427175
P 1.356584055430757 6.531520199344488 6.507499596505862 1.8689791109130909 -1.0303713916575352 -0.46313384088369275
P 3.9237773321836347 0.33557877576660994 9.49576170264879 0.79587161383961 0.7349449535575665 -0.21726438777624518
Ni -0.2516953866151827 0.5560950895205308 6.735316497645252 2.0218196238873114 0.18936740425566095 -0.5388345741511171
Ni 6.849724666084904 1.576118467405113 2.6129781385851687 -0.31410730233892353 -1.3022894622229184 -0.4493907802659874
Ni 4.766957800184516 4.209663941480098 7.482925807661819 -0.7138217984257061 0.6111987868461409 0.09905843415675843
Ni 6.783187900759118 1.3747824605933714 12.831605041837486 -0.22696130334903492 -0.57108366399281 1.3861058826189419
Ni 4.062018766938179 7.139311863855103 9.169007123138009 2.2812719578855165 -0.03026522664244465 1.7706393000899119
Ni 9.080515070934752 7.262169555503117 7.793796464776105 -0.10815011204538148 0.5200464949103366 1.19257380546263
Ni 1.8060809715872548 7.014894572576014 0.4678826578428447 -0.8270747789152918 -0.2584663159358516 -1.8363975774326438
Ni 2.4174071133682977 1.8859896887794843 0.4366795911411048 -0.7235086866961669 0.9468267368656599 -1.3624221658487567
Ni 8.58904739074196 6.655162305008131 5.521361981256475 0.15378513627567708 -0.8548632618824697 0.6413981932476567
Ni 8.492296843214147 1.134807142211718 11.219674844678803 0.03602861148878311 1.1269798216119045 0.9584234405643237
Ni 0.19657784367693235 5.368760232975792 12.706357194541848 -0.7356759181863202 -1.7404180393115254 1.5947380486414857
Ni 8.503813886643632 8.345353027086203 10.02195492989351 0.9775984708308776 0.4779377386657446 -1.1013829469794063
Ni 5.9816182891873595 3.672764847182059 3.478284618866923 -1.2898041852717141 0.23938255983152318 -0.13770417155341447
Ni 5.995423975862447 8.710160914755221 8.806852400521857 -0.2367170971842181 -0.25137109965196713 -0.5517574528603723
Ni 2.1212492946671744 8.341966204218718 5.411674139510878 -0.11413795419770022 0.13693772570103513 -0.0796355495454564
Ni 3.0300160027749 5.629111858963456 1.920111698459386 0.99516244785657 1.0868431014920186 0.06525588378501665
Ni 6.304750721625968 2.739801273792196 8.172969280171353 1.9615843332453382 0.882090473029539 0.7896469730861368
Ni 3.3455165482614393 8.332654748433182 1.6340802032800357 0.4980720475217745 -1.01308586510421 -3.3889193977173964
Ni 1.114190896200927 1.9832293415170434 9.86161701373868 -0.9684162901109774 -0.9335796420477663 0.8624104781021082
Ni 2.0672077831903644 1.28053280951539 7.782409541789214 0.8030367641294814 2.2247639954964584 -1.4816876710810094
Ni 6.064313983235122 6.313923751408747 7.428628669499917 -0.5022827431690123 0.6398910125745109 -0.7017000754615076
Ni 1.7011079194956034 0.3511932288777373 12.15986240973261 -0.5859757506132941 -1.0373889606259488 0.2780151846020567
Ni 7.957178830151598 1.1642826523990355 8.848060898702961 0.028265936824228736 0.40301553543555757 0.4857976010297957
Ni 2.990324653584026 3.8535030647833777 3.989742859538038 1.417151696181153 -0.38560196794480045 0.8073199648858675
P 0.6335564349839949 0.021857465835523216 8.745262057694632 1.015058929670181 0.2130189822363299 -0.41208227362351607
P 4.499103484847356 2.6156423777182556 13.292264630856405 0.22852376274014838 0.17132700181418237 -1.7608750216142965
P 8.44470598346587 7.073661024946971 3.4608881616802885 -0.47216895450276747 -0.5285797291923284 -1.5601880785807583
P 8.240555314598044 3.2661615350802427 9.607609912877432 0.40883522744112816 -1.7241992634598178 0.5149495400034035
P 1.0348081978191788 6.712295330546541 11.504112595146395 0.9888545033606712 2.329608440207375 -1.2948111515680023
P 4.777588917196346 1.642138442320601 3.5083101417052003 -0.5847066540928834 0.3208253377890475 -0.31050647236154266
P 3.6934549203943217 5.042130236867493 9.607083894066951 1.3801450370498165 -0.4539825134017278 0.1892959275877772
P 8.094765048493086 3.2128675240183275 2.6099530690048924 1.0218942074244595 0.6269503932534428 -0.8609614043604076
Ni 2.698319614965649 4.267867461439839 13.023035283891849 -0.19601113482442373 -0.49855258670261876 2.0775660255199964
Ni 0.7423906497125824 5.561236975611008 2.806448779920188 -0.046153615737926965 -0.4961473196952359 -0.32904052660998817
Ni 2.607456786755152 8.381020793796905 7.888274980178647 -0.3299062170443931 -1.1216332125880102 -1.8680368016044795
Ni 5.8548385274611965 2.2548303873288584 10.868379180559025 0.6232323209719072 -0.9305364843460683 -1.1617496209929217
Ni 3.194659890455529 6.1438074224190755 11.682400672498895 -0.6230407737863914 1.1358118180812375 0.13386294343045332
Ni 7.132981181328961 8.317187949724996 6.447421788468776 -0.12467742027644335 0.3878321428268998 1.409069690503967
Ni 6.250949148553939 4.764678385339097 9.31948541653638 -1.4757263112912522 0.455102485938784 2.062000052760939
Ni 6.2687691893090145 7.081255998298306 4.619587631968076 0.44636639161736674 0.02881820978327295 -0.7831384825436577
Ni 7.512185373284834 4.1553548063979555 11.413455560260001 -0.49315635538771196 -0.38912052262102015 -0.03487135795588833
Ni 9.397372191248321 1.100652833131173 2.203252858701145 -1.364507844733192 -1.060119312343929 -0.6414753263424953
Ni 8.719112462933586 6.991149898902887 1.2292644322938369 -0.41406716526402887 0.5454749622857703 0.5493994941511571
Ni 8.639259116142458 8.636204515681595 13.092311038392209 0.5134618997142835 0.8863878148533121 -0.3053871488571063
Ni 6.062634414401655 7.84850518958621 2.0855012408748728 -0.026212910949941954 -0.8826697425717767 0.5802789573388328
Ni 4.773574563116358 5.347793307758014 5.160516768626415 0.7303694183717422 -1.7468044024538432 1.7825604770075298
Ni 1.869756932856037 3.633387263597437 8.540176551888178 -0.704207929485026 1.1295223855280998 -2.510560366705831
Ni 4.632463095904627 0.22252164511387829 12.189253018638233 0.06998388538830527 -0.4323770193168102 -0.35602811094242554
Ni 8.048890671179011 4.7363933387755 4.071417892525462 0.15102917079709474 0.6630093437595291 2.264106501849823
Ni 4.18758037984007 8.371266374802543 3.5230331313585643 0.4775847262017 0.057204217125133745 3.5100548662788515
Ni 4.705838105766668 4.117232285238342 11.45035624123527 -1.1010484464581232 -0.9409756774015213 0.6425819291431127
Ni 0.9876510728795445 2.81204119043162 3.5394836775263516 -1.084932514732867 0.23142962353303367 0.5900468353588741
Ni 0.19615610578852896 3.0148445128725987 6.729698247613305 0.3552164136744076 -0.11239860290909029 -0.33753108057950254
Ni 8.065806328716066 4.546675887795264 8.01918260530706 1.649329767844437 1.6206737946706409 -1.916490526230493
Ni 5.525338498895709 6.12265592919762 11.217189636509282 0.8416737597753892 1.6560691434507995 -0.16609095022622364
Ni 1.993685118925381 6.022177107995518 8.861351640647788 -1.9955465491233952 0.5846747724136834 0.1334507955936992
P 1.9344018761441264 3.891920894748876 1.8132339045697814 -1.3006488412957018 -1.2613163622446666 -0.2426604592518466
P 7.313350262922924 6.751894395735577 9.049608235878914 0.49293009830951884 -0.5517739079206047 1.3885546012697505
P 3.2750392560571364 2.9550075660803117 6.509241918460579 -2.1141389395480235 -0.15374168463225135 0.814526509936636
P 1.4979077758467176 9.147199490663478 0.8505945647086108 -0.7938427563350393 -0.26358101145459767 0.18921390939693222
P 4.981628845261966 8.056153422123726 6.445327864467052 -1.088307601852687 0.05029771981328757 -0.5222638142766296
P 7.271545610089941 9.288569353080359 1.1764715233619063 0.5364311069159472 0.11638509836066407 -1.4564625779656335
P 4.621472071285624 6.142949181201976 3.2728890388142924 0.8763463714569102 0.6716096838340304 -1.0167103492306748
P 6.5414038159414245 9.055653760839373 10.874200455395016 0.305748388851267 0.6565075380852693 1.4839412430018766
