# total energy = -381174.2130583792 ev
CRYSTAL
PRIMVEC
9.13247738725637 0.00000000000000 0.00000000000000

0.00000000000000 9.13247738725637 0.00000000000000

0.00000000000000 0.00000000000000 13.36630378121371

PRIMCOORD
 96 1
Ni 4.4873888359197345 4.523361663963774 -0.20891820346958118 0.10249677041434606 -0.06464293279136608 1.1266239809343823
Ni 3.1366680473445454 6.601895230139822 7.199666097374315 -1.47159094896664 -0.4488284800046141 0.23159545968693662
Ni 7.509161186482845 6.514470025045738 10.803875885802551 -0.20747594093091365 0.28485431901107716 1.2072689455809593
Ni 7.4379735260098085 4.650376158108611 5.539036518469374 0.12563978418971267 -0.7012174793981343 0.09933662751880956
Ni 0.181585612189305 0.783367463449425 7.999665628463701 0.44532560905767826 0.18456149822658538 0.14558023186738153
Ni 7.0467747288291775 1.1148836950465544 13.43647684914334 1.5445246610118883 0.729229648340344 0.436413651280029
Ni 2.4840246903150236 6.625502683933639 3.053558851017563 -0.9466526731816406 0.785218505001138 0.07774450317033062
Ni 3.059279434791817 0.7708093939283892 0.2600244596303461 -1.6922635910934856 0.1841285244542248 -0.7861952670921104
Ni 6.248450094074718 0.021058579382267628 7.122114926725831 0.28036054490578166 -0.045886992340101615 -1.3767018156962225
Ni 4.728212262048533 6.26114423750737 2.3918332453234568 1.6566368430288116 0.7469754023595394 -0.005972929753983262
Ni 8.090141994220266 4.2617801169555385 12.043374059962215 -1.1501701436854386 0.758083596457559 -0.2991954182240977
Ni 1.6958919002158448 7.877547055393861 5.647931264423761 -1.3072354933742842 1.3749146418888127 -0.6135276920896336
Ni 2.874967778131543 1.251094593822096 9.214222093897526 1.1094713804144956 -0.44231921813118663 0.1452105072327886
Ni 6.17588342953094 8.392125620758037 11.348219021149244 1.755545638981583 0.8830356105516276 1.0113866230249162
Ni 5.344599684238035 -0.1939318082372202 9.312303986740936 -0.8198965159992976 1.8041243192212348 0.5102922437370503
Ni 5.061976909554381 3.346651097666103 5.279008405848112 1.34512944020658 -2.1722669540390074 0.34968597077448166
Ni 0.5368654629419046 3.440030677953056 4.927327664395374 -0.04028121611754998 0.5766688713900714 1.2847979903063742
Ni 1.9871083360290849 5.75975296934949 0.8314453901409329 -1.3999782697256598 0.07682044869416448 3.232300648647665
Ni 4.198391592087886 4.839217523504565 8.746441081908847 1.1684249761305683 0.19165234363509573 -0.27413307593883113
Ni 6.0330880146295405 6.657895580880125 13.041368438434997 -0.44414135894158996 0.10298528001499037 0.16130381325022541
Ni 4.811144288316096 2.195228360983548 1.0437745738782085 0.5765716836905747 1.1493684737197496 -1.3896367785903359
Ni 4.985127113161744 5.17249814971406 6.554100410244294 0.0987388460338106 1.5857810965585142 0.04757312179327291
Ni 2.0646248032638685 2.234461483420003 7.276081187847964 -0.42091298454126863 0.4431039188160111 -0.7759735893641023
Ni 8.570784273975999 2.9788405748243365 7.115043649560434 1.920441026237809 -0.6800742696616159 0.18814741580563082
P 1.090280801228163 4.604558519546298 11.271723564875446 -0.10571090647626954 -0.547800010874521 -0.46648784495759016
Ni 8.070105339046714 0.5593697134791282 2.3982762080513242 2.9784998565082836 -0.3614192000510098 -1.6596936275772642
P 8.670912754980026 1.2490854488183671 10.009850821356073 -0.44742517189918424 1.3059558553309123 0.5240065079993492
Ni 6.638845233253857 1.7689060561468173 11.2417562538971 0.6704920252898194 0.4559861740953179 -0.7836339341228375
P 2.890109425477829 4.285241451112721 6.375873723202133 1.5656051358312715 -0.17626943342112222 -0.26338920715876574
P 6.8711297931168085 1.9019114553936822 6.019554596533968 -0.2414659247231132 -0.34201945536815936 -0.32712248365166885
P 5.392928754055009 8.024844781599072 3.6765088713874268 0.6644676734726105 0.7604266427684387 -0.0016737881579971172
Ni 1.0336959719413203 4.735573038744013 7.199492580305812 -1.3015780379781907 0.36470686966334614 0.388706317901737
Ni 6.6905259222361435 5.846474973692269 3.73804715635619 -1.6122570313618556 0.44165407374336196 -1.915792985942836
Ni 8.844101054301472 6.5327623770569625 2.043052978657921 0.4149521389721434 -0.1459828666224389 0.5054385151891747
Ni 8.961279870405326 2.24020581163521 12.06254130329779 0.031150971681507645 -0.012078528431088876 -1.5396585911688387
Ni 4.019486361983102 8.920749936193737 2.0944596933215163 0.5514908294625469 -1.128314738373244 0.777864378628912
Ni 0.8298773437902951 6.866280447675989 10.831584735147162 -0.1488352484695695 -1.3621138905797188 -0.5653454759574522
Ni 5.178014165997025 7.197935492927922 8.127714832285458 -0.30743760362823186 -1.067513033704839 -1.5660255111981418
Ni 3.630095795305827 4.341945002604328 1.9250686780571178 -0.6615741539748994 -0.5798824932313625 -0.2573784821883116
Ni 3.9417781127252347 7.39004628519358 5.098362525571915 -0.387002704947069 -0.6452628184093855 -0.2095924730532842
Ni 8.476838480097086 6.717978148968914 4.802566152397902 1.1719461019099493 -0.6789861788037597 0.024104863468003647
Ni 7.934771158090981 2.877342222226859 1.5758737969226304 -0.47598292893221905 -0.8315726667856453 0.2693762779801361
Ni 1.9784964099449187 5.373631829541919 9.239537320944512 0.8295425237294939 -0.3677549124610505 0.7584870025435647
Ni 7.2352142652243865 5.005547332381464 0.9774152541482242 -0.43044174996731027 0.39097120267651375 0.23963478505164537
Ni 3.9718878903493016 4.990177373102936 4.297253398491833 -0.960257922669901 0.5220884650410298 -0.448308345835086
Ni 7.633417672486199 3.5111270136531965 9.67110897372735 -1.163101764145442 -1.3282748305430867 0.7826011219829491
Ni 4.9500401354148025 0.9862892823306038 4.900648045241311 0.9418753063976553 -0.44007515929201635 1.0693603713262227
Ni 5.597797617094347 4.765198795071727 11.247129803534344 0.9902015043068687 -0.1375820441532534 -2.0179740248889764
Ni 3.4026423159291164 3.544725397601921 10.451848110212806 -0.8300667716640802 -0.6973788223783344 0.758487773874513
Ni 8.828438855749674 5.255046611935456 9.424487337767335 1.21150072427412 0.8562570569062028 -0.7637197116974137
Ni 9.15092489380277 6.070996927858992 12.919855348609463 -0.5098947511883153 1.449499002163607 0.5132425846146257
Ni 1.924888768254511 1.3602094324791643 11.408033094405717 0.6024277255217303 0.05384095707985566 0.4625250036551002
Ni 4.41076735145934 1.816385805575851 11.896665378542188 0.06932696853059674 0.8076338965818608 0.1023288773779141
Ni 7.878305051008905 8.431294815853464 9.202874077617373 -1.6091693935754672 0.08676650416328283 0.9079141189608623
Ni 3.921704927642523 8.849361361220327 11.262781956361124 -1.4093286005923082 -0.3788160553712186 0.6036402577725927
Ni 1.704695608323094 5.713506104354562 5.083846452919973 0.2795868999645507 -1.3318581770189708 -0.2570550374106218
P 7.897008364498164 8.106562188387107 0.022814754765072633 -0.11863044275141504 -0.8822002591345258 0.06783701424863156
Ni 8.380655229282201 8.088571208126442 6.56586212774567 -0.5133914514876642 0.4972814332996791 0.7289889930844476
P 2.0304236758140255 8.871525883602374 7.51581876242702 -2.4233909706771746 -0.4685807229308769 2.175167929735886
Ni 0.73857814182993 3.803439346741198 0.6224020717324831 -1.8605849733121245 1.0283867571273386 -0.3543381248345123
P 4.906322966629117 6.773667995481369 10.773521357787121 -0.07513046258625125 0.002618925680085812 -0.593889606143732
P 5.40309320127842 2.8624745491992645 9.607752412530212 -1.2523869209655205 1.1979270993547433 0.6987129678087257
P 8.128233556995513 4.445169393409555 3.1860318268384398 0.9758804596985063 -0.5296799042350426 -0.45199376510647316
Ni 6.698206335636763 7.9942966450651 1.8205036395857668 -0.9581696726823048 -1.1825598728700537 0.014451142428323498
Ni 2.5658608193078245 2.9741921438838905 12.956452838100118 0.7092616898588495 1.1518519022632356 -0.543055039990368
Ni 3.1593622534093937 7.529115649360791 9.481374452052465 0.08883547087716959 -0.5663278944753795 -0.13445249738533618
Ni 1.2548754394200228 8.888530556315754 9.994693648798394 0.509933831956367 0.4111211952618274 -1.535774425623084
Ni 4.4802198412473375 2.324863876110522 7.646875291020268 -0.06365434362585166 0.4176248007083001 0.10951742470655333
Ni 8.865489316113896 8.917370919596555 11.64382817853882 -1.4463260037522638 -0.4393331389196692 0.9919287714106206
Ni 6.525903886612415 3.5764059613198125 7.425128696701877 -2.124084995017142 0.8304107852670601 0.8464269581896584
Ni 0.8949608564429118 3.0170782572362165 9.119468075778476 -0.10866793222206447 0.00424360576770237 1.7732739094992813
Ni -0.02540381207669624 1.085093554127626 5.746628686236494 0.9227041327858431 0.22147045543779276 -0.7971949606367238
Ni 5.2277587697938985 9.165262883147564 0.22377765726761562 -1.043034074726868 -2.1495990801278464 -1.4862416090002792
Ni 0.4832331635628148 7.277205395802324 8.369324564708897 1.9931104288780772 -1.0530626626074637 -0.9464199883455443
Ni 1.5756993666063974 8.964658887002507 1.879288482651693 0.3278328794551322 -2.2723859682497958 1.0110580360409038
Ni 1.0285543872272318 1.4566392601808704 3.368883200380094 0.010311666338653208 0.9430333312614985 1.032152651927674
Ni 6.62972188844147 5.673798093099044 8.813727348083733 -0.10843319050343905 -0.6686549720810807 -0.5130433241196262
Ni 2.707551204457173 5.779680034795566 12.232466568483636 1.0183149747136335 -0.023301393730101806 -3.422919151701608
Ni 3.839759208922246 9.257774878091999 6.895021266954333 1.7067844104174796 -0.08923270631558826 -0.629412224530374
Ni 1.5625577317865516 4.0861443137204585 3.017242641827431 -0.29944121568631654 0.6711515132506892 -0.5398966968670443
Ni 7.92234185649973 2.292480111641325 4.029806974568166 -1.1660947853354948 1.0568311285109606 -0.053150872991366525
Ni 3.956097837115449 2.3626997295216565 3.1035217210216604 -2.33709343573051 -1.1013526079621032 0.9921537429372334
Ni 0.34692546052800244 0.9684992165703119 0.41540077524600527 0.5085271814168274 0.20986578131932887 -0.015764461923108333
Ni 6.019343636308576 1.2260898710029586 2.8169482366624923 -0.5454037427282026 -0.4276515888166828 -0.5035955484431649
Ni 6.7740241620956665 1.5500827678088518 8.707772346568893 1.0897936994799102 -0.6352416867279577 -0.2551264529293413
Ni 7.441973551062687 9.174669334755933 4.454774933022837 -1.1274169091493227 -1.7534635596415737 1.273837891750445
Ni 2.9790962841884476 0.18611075468634028 4.094553498808794 -1.2537251801609697 -0.2444437764045145 0.2194436548157511
Ni 5.767122878522259 3.638643794048965 3.0424647176060624 1.4466664178108182 1.259319900639928 -0.6827785559666564
P 1.8897287306892523 2.354279585460574 1.5927953640926742 1.0712578454592518 -1.1307004649966013 0.5246050608152966
Ni 2.723414317509343 2.4620428174787694 5.110178124689299 0.33631854832864017 0.04662412761644228 -0.657772263730306
P 8.112598755875585 5.944402527669482 7.147818284057629 0.016344245685978302 0.09984339195189902 0.47034912768520937
Ni 1.8529796420755895 8.071027719252971 12.443855107060074 0.721425321804577 0.808820460690794 1.2791500479919775
P 6.323564719782317 3.287883606307027 13.106729578397221 0.35990610584059307 -0.12138023758241032 0.07270591230515866
P 3.735183211478147 6.888134465830188 0.6495958493579561 0.767177331228711 1.155231874479062 -0.9441036815075419
P 0.4526841137811142 8.009118655706247 3.6340711626700237 1.1227842954733178 1.3124772013891977 -0.9271482846001258
Ni 6.188120949099108 7.195204882218308 5.544877650943852 0.5216446926353919 0.17191552732780072 1.327517897772404
