# total energy = -340874.35020035296 ev
CRYSTAL
PRIMVEC
9.19463466574424 0.00000000000000 0.00000000000000
0.00000000000000 9.19463466574424 0.00000000000000
0.00000000000000 0.00000000000000 13.45727724123216
PRIMCOORD
 96 1
Ni 0.9580625198553913 2.6698919768422544 10.14388022945732 -0.7509750104372357 0.23818005488298977 -1.1098794144861919
Ni 8.092694284926793 2.5950660417323372 11.820454699593368 -0.18335667928520683 -0.001697185196764819 -1.1865821066555693
Ni 6.818373118715944 1.7993439876302884 4.616990062143018 2.433595422014002 -0.4788800479743559 1.1684892537096006
Ni 6.339130382196023 4.842905908299901 1.4084920304163604 -0.016514966935887686 0.9052669111460023 -0.20794748125069348
Ni 1.3107227239769055 5.7105024198551595 6.776774753561817 0.5106198022797981 -2.244718841351831 0.14305103768762462
Ni 4.89081914839056 4.692224239022275 8.0924524660409 -0.036671644389420714 -1.0948515736187918 0.10373501369682134
Ni 0.8570162456998911 6.525321729698582 1.7007306137488216 -0.0379782790159862 0.5210052592791802 0.2698665873529933
Ni 1.8491053492443057 9.201622366748703 0.8477397790087636 0.41915100754483947 -0.05362395597304313 -0.14955695712694245
Ni 2.278715449032433 7.611722957131294 5.931348344579307 -0.10592533647992079 0.2613989162016143 0.32309536477014683
Ni 8.299306915530744 4.268075752094222 13.385549743869657 0.645481619288411 -0.4268699734556519 -0.7683474402774123
Ni 9.031962971977482 4.015434781460749 8.441063353153027 -0.9557860029414764 0.2579024730125816 -1.468044369265962
Ni 6.6781825273395725 8.219451515379646 6.053110130138426 -0.5826633984106094 1.0392643232717909 -0.6721475586153715
Ni 3.358386204051718 6.484699834722468 8.426758340884163 -0.07516285848608345 0.3278670751271773 -0.7852956380959766
Ni 2.859981849349312 1.1554897106492161 8.715659271913244 -0.5230446583067121 0.3705782408424585 -0.5010298445985177
Ni 4.431363265195356 5.082407746312082 12.848334837176717 0.4569289976245614 -1.5919203766870327 -1.3226184035882576
Ni 8.919062055632597 2.812794985379774 6.235657644010601 0.735495683854714 1.0209611540872288 -1.5395040678688456
Ni 2.9715035705275117 2.4874704294619696 3.993998410716677 -1.198542364341239 0.07390661748147917 -1.4361076684583656
Ni 6.557898319535696 8.96314113315987 9.851991961697196 -0.4105473250362284 0.49420845080131015 1.041922329719928
Ni 5.582347604966731 6.901189191158193 0.04450111124827836 0.44077629912409894 2.007212672607414 -1.0722364073224373
Ni 1.9954379564296503 4.70967565519807 9.018582939933742 0.43282850503193204 -0.10380057682743415 0.1869523670562651
Ni 9.17617161860613 5.0936711735066815 10.463544568411049 -0.2897895515291654 -0.013153249552506378 1.5680805939549574
Ni 7.795045578687147 4.0314610292976365 4.061325201973602 0.8434269950210701 -0.5663083540913537 -0.8697730891147666
Ni 6.184917973291681 4.456832402606817 5.603475955456911 -2.0151208717108977 -1.8767199312007743 0.6510537140595497
Ni 0.5157344017035335 5.491991932279934 4.222220271192259 -1.1977185828883632 1.7685857599949926 1.2591154979386057
P 3.062006357365422 5.448602452336005 5.114639537357525 -1.469447677371392 -0.019200227077534677 0.403396315813744
P 5.29134661943051 3.187761372663817 4.002961340373244 -0.13301370805628057 0.8220562426547777 -0.7579213598480818
P 4.934392521023381 8.127321278245047 4.479833700133355 0.21065870953426946 0.06568757200579654 -0.4736589087847326
P 0.6322175476280234 3.0407391678951297 3.892543894791838 0.3056799975071768 -0.23654380483114743 -0.3075263066872962
P 8.520603377342676 1.259591361830647 10.056905423855794 -0.934106461085514 -1.4248853173799847 0.918135025357922
P 1.1724446165650046 2.765148389688008 12.955104771273964 -0.9400415956230262 -0.9427237704408797 0.2208546762306648
P 1.6212715023422852 3.054944878111992 7.600643422625586 -0.607005831810716 -0.8274388471229298 1.25294947833721
P 8.089632471656751 0.8114752212959319 6.20181311408358 -0.7534165299991928 -1.6486977906873928 -1.2033338721926117
Ni 3.888024731962332 8.410129844491156 9.534238267781053 0.23567245796978764 2.552324852237127 -1.4772640880920171
Ni 2.082557117791959 4.525396791659982 3.059404275817608 2.302467103905893 -0.056952763235959984 -0.5679831706906153
Ni 2.6578194218165327 6.610491628558642 13.36532338701849 -0.16254488474617815 1.9427458603825962 -0.444611356599473
Ni 4.57085506435394 1.5548494631147054 5.350209749681207 0.6096185868432147 -0.3667043597093491 1.7734705988911197
Ni 6.731658521269196 5.060359012914001 11.798963161042627 0.04152254472381881 1.734561066310116 -0.011645040438096074
Ni 1.2729695549474973 -0.21203102868213666 9.976188486457238 -0.7382753034823801 0.888275004573696 0.18495256301741697
Ni 4.106434078558667 8.875038145911992 12.744781186208183 0.03257793393602131 0.33720994979465796 -0.5156619926893958
Ni -0.08220187086135212 4.246027018696141 1.9335819726672445 -0.280818972599439 -0.21956372533338311 1.6761034363938554
Ni 3.6047472393595488 3.0485638018074592 9.7228284954102 0.18556834222454494 2.297293273014437 -0.37042757419720723
Ni 4.270135350209806 3.473971953654418 2.013451164770009 -0.004358791189327977 0.3853502569453105 0.5209345539422447
Ni 4.164893564357248 8.637844161145397 6.882710734314939 0.07630854205475245 1.0042857503140767 0.26071988785671874
Ni 2.5204515832146446 1.6853029366142764 11.37256934438321 0.47138682492110434 -1.8476029592301602 1.3002366934589478
Ni 7.188264067786584 6.539205627709884 9.615103238794163 -0.3985479865825072 -0.3467428289857577 0.9893345283208832
Ni 4.599294068690996 5.46796635247627 3.517583943751906 0.5758422617237179 -0.8019710418691285 0.5849748201526055
Ni 8.798704290753165 8.692579819993929 0.8684865521694933 -0.12784501937114756 -1.4861176818279052 0.6525125579932632
Ni 2.5106409082622876 1.2496795458993997 6.472183178853075 -1.0737181340742863 -1.0300106658840067 -0.7747600286719754
Ni 3.087604219659107 0.15620304726159154 3.9206022412628903 -0.6731076085357955 0.0015483183237263657 0.2743981566747597
Ni 2.0382297851346833 6.724486706402431 10.650143238219503 1.7343695191246002 -1.4412519316634662 -0.030162639626309346
Ni 5.2720562763658005 0.8829156920033583 3.247765557049086 -0.6163466495956675 -1.830437760304783 -2.198034035700782
Ni 2.7777818174148488 7.110054507201065 3.639520427365471 0.4992717242568305 -2.076946389658126 -0.5181796169049269
Ni 8.984353154823495 1.2045155015076678 2.9742334574941043 -0.6051443531219449 -0.48160773131816415 0.48095004312950723
Ni 1.3844269136845853 2.401629322287456 1.7250347909761559 1.6357265752387056 -0.06169670567884858 -0.27395335582785724
Ni 2.4433086002246958 4.512634639050917 0.6088760486270359 -2.1625841795336047 0.07123884084132893 1.514999397859262
Ni 6.74860423255054 6.314847352627911 4.442125584812725 0.32500800841182736 0.5604007303576671 0.07090588298194239
P 3.8533517654718548 5.091942582231103 10.623780382340028 0.6170120510938084 0.2318726246077232 -1.2974791853184688
P 8.362152241959386 4.990626905286376 6.055034567127674 0.18999603897859538 0.2886618656826254 0.1970136079470091
P 7.0224848087509715 0.3688786198182926 1.618547132156359 -1.1830517249048078 -0.20175472217642026 0.9306092465655329
P 4.278336964134363 5.901199138235559 1.4697898998679806 -0.9566699482083266 0.3371515857528968 0.23370942070614587
P 7.20300306680123 4.340538666151885 9.760024469592267 -0.17522170888289823 -0.3200331809050553 -1.0872146258988242
P 6.783975991258805 7.56617273809289 11.710226663481519 0.11924776462043979 -0.08075217964840287 0.01997232935686883
P 1.841768030957538 8.380771376709642 7.999072678085284 1.2171553514567361 0.12694719014722655 -1.1990169899848124
P 4.843724230765468 2.4761978076329254 7.28229759425121 -0.7366951034794538 0.7801668015098435 0.93804564823892
Ni -0.05498115558820019 1.259591361830647 7.95825677632239 1.2275135547626086 -0.21684426951969105 1.4998332316417846
Ni 4.468408447372531 7.150446536316064 11.070508133073613 1.6732595391871572 -2.398486237015695 2.1602408761124083
Ni 4.770295880091125 6.473289293376756 6.124555198163074 -1.2700385726090127 -0.26737878793413306 -1.0237916815574883
Ni 5.164975563624328 1.307237957522413 0.6434681023344003 3.6866842541425537 -0.2552974312895668 -1.0488735642267808
Ni 6.594584910969535 2.602182688792435 2.1945450069364982 1.10523728772849 0.04887924219920614 0.012844974283468199
Ni 8.145177258336403 8.074470519457654 8.140777625754676 -1.431996217393153 2.3701061432111055 -0.9007741654819713
Ni 2.9593942369640116 3.4596651024586658 6.071775238060904 1.168356070565846 1.765139196207289 0.21018048434627026
Ni 8.47036389473754 1.6920701875654804 0.6697739514803175 0.8063342039338306 2.675655785788005 -0.6303280514764241
Ni 0.8153967328865414 0.15879133685773822 5.038579682305146 -0.7872705024341603 0.7432714711453908 0.3538087346936036
Ni 8.888425533663288 7.201807764323437 6.065665403472486 -0.2889883957841088 0.10952950889141136 -0.4623450264338102
Ni 8.051998832875123 8.155236188418764 3.875817015810275 1.0083396086684762 0.5050363946547496 -0.915993553534887
Ni 6.892987577233636 3.2042657414918216 7.606940827756672 -0.033504816625664874 0.8685029641530913 0.7504183666028174
Ni 7.934362679791283 6.576048527929279 0.33461481456059944 0.36697921063729055 0.0026027277301697116 -0.5691640783725941
Ni 0.2467122703436134 0.526497640784348 12.121332561449947 0.9632910530692701 0.3872842407432298 0.047920992050994884
Ni 9.16602993681377 7.395878913544993 11.334646994080021 -2.2032371771682766 0.5513136804547344 0.5614556539847427
Ni 3.794404964047711 8.171253241621207 1.6893320254278874 0.3101082084818595 0.255741717915837 -0.1693336255332374
Ni 6.722408719017958 6.014467839958227 7.171113316157125 1.9130722445775632 0.34301061563683505 1.7705202580135442
Ni 6.331324137552582 0.8946471260911862 7.678587258275657 -0.11505043870964057 -0.6307679672273202 -0.49976563317411354
Ni 3.6245524819531547 2.831349757688918 13.277555084464394 0.3568891733911402 -1.4672000189877958 -1.457489219457935
Ni 0.5537817990351676 6.84674776061189 8.816669686994413 0.7936949179032653 -1.3258631357778006 -0.19907588979267649
Ni 7.086378323506294 0.46603188574996135 12.607476790583963 -0.9207557508102208 -1.2721713026812993 -0.2720826211677056
Ni 5.939972911688314 7.407675629537378 2.3503269399405284 1.0730794720490229 0.5790273443199189 0.9668857123990638
Ni 5.752954047085743 3.157345521921177 10.885658282736518 -0.41672285771932105 -0.9559058163487925 0.15910603426795825
Ni 2.1781813160154955 4.199695255729949 11.631985841138887 -0.6581833831257954 0.6420854491226683 0.00668204000586591
P 7.940440333159145 6.032195095167359 2.576314504246079 -0.1643215170306267 0.44567039399160663 0.15645162736424667
P 0.6622003310883244 5.806687490779816 12.59266055663998 0.00862553688548192 -0.644081910727407 0.9095663098523045
P 3.4675449041776627 1.437286867106423 1.6066106577204171 -3.153838036364388 -1.0442728322299757 2.1255438389508554
P 2.145889759846163 8.313696518436497 12.060533041185222 -0.8769284692126252 2.0793963938605153 0.20023288621525517
P 6.057296447201038 3.370109362968546 13.210254957647358 -0.01649774054470707 -0.7854452762999634 -0.03801016069518615
P 5.702484698619494 7.774743825833535 8.09771455533353 0.44558091960159385 -0.26030696868901626 0.9655983610462081
P 1.0417336933009858 8.180447876065777 3.2270822268660244 -0.9964976217282259 1.228256346465904 -0.8766284214737032
P 4.431133399334241 1.2710478763485822 10.402730336731214 1.23515024537226 -1.5884229050567353 0.6897292762528766
