# total energy = -340860.3336899945 ev
CRYSTAL
PRIMVEC
9.35945300135146 0.00000000000000 0.00000000000000
0.00000000000000 9.35945300135146 0.00000000000000
0.00000000000000 0.00000000000000 13.69850553548912
PRIMCOORD
 96 1
Ni 3.1938946297105 7.226162265142111 7.6068486579381 -0.8267189382377699 -0.09683648680477516 -0.23701817336440473
Ni 2.0042051948211195 1.6208139200976595 9.679076485535996 -1.8220413087109717 -0.2982615935559186 -0.14190046902294917
Ni 9.176522526645748 7.420604901969979 12.758157768905647 -0.06781695964397352 -2.1397959779944955 1.9884940131519884
Ni 2.7091217596984993 0.7261662670508567 1.3803302618939264 -0.9406877138474573 -0.8610395658965108 1.1364749055865329
Ni 3.833950185046743 9.168501475393692 6.02828798857254 -0.34584499976183664 -1.4234948647903614 0.14724990626032058
Ni 4.711745206956494 1.0981633436479992 7.753299763377346 1.4254522456270482 -1.6885249499866597 2.2057041506515302
Ni 7.909982622875809 8.542288551098046 5.9026317158892105 -0.9936701795817596 -0.3873161224224297 -1.168790072779471
Ni 2.236684648788261 2.40508928726931 13.607383060422281 -0.4497761886298641 0.19469190179236792 -1.6663224457476913
Ni 9.092362324943887 1.765071169745212 7.662067558961302 -1.6991590326617383 -0.04413504264600141 -0.6227646373068694
Ni 3.733354783813246 7.764639676676053 1.340780021198691 -1.1995296679551728 2.5039986543279134 -0.15552525889523539
Ni 5.301587296753315 5.701254660306795 11.547169026741699 0.886431523607054 1.2289068355657093 -1.5718333761291705
Ni 1.7905288820037821 6.1579491712100785 5.4483613033223115 0.861667943509129 -0.07455145015432967 1.0564750307231225
Ni 0.09903611635765978 6.894285419930113 3.9744842442764794 -0.2051940868752724 1.1838441388991159 -0.8056140379383544
Ni 5.933546925213212 6.158089563005622 8.901987306405571 1.5502798183281108 -0.8005425369527182 0.37482853147838024
Ni 8.826563218167735 0.34491737112739196 9.554830682425226 1.290931356897622 0.3156476502428499 1.7948053558131543
Ni 0.22636585924387018 0.8690205346882768 12.530420749791968 -2.1765843504674387 -0.6370016068418578 0.7833421139140315
Ni 2.989399940321713 6.60730587093295 13.428069979427494 -0.3502822095975839 -2.483655571895187 -1.0936778650256649
Ni 2.871180689020978 4.6837698018311755 3.93347112107168 -1.7215289157165061 0.16641773743802307 0.016607269539377852
Ni 0.14746567014837508 3.9923121304199074 6.1335883868473555 -1.456643069407556 -1.5988304735433045 0.6228386850779144
Ni 3.2872645332000205 9.079736422798002 3.464803997844439 0.3157450950526627 0.29650630142770873 0.5445462798239138
Ni 9.014454237870233 2.6448878335107904 10.228852628775284 -0.620622394152886 0.4158412264453161 0.8500195606369232
Ni 9.071677933733799 3.0262855447375316 13.384412810739956 -0.30082266941487545 0.8522237673770935 -0.6404993355824711
Ni 7.841228080871597 8.320001541487368 0.7139418854402249 -1.3143029417440268 0.5075966991827581 0.9013346659711315
Ni 5.641616225559878 0.9066782939795845 11.810208030817464 -0.1559651746461314 0.03621141692355054 1.1684290898956264
P 4.313200977767363 2.5975757984126018 6.592995267240541 -4.025741027337963 2.2030237756058897 -2.221829852568799
P 1.407474547589627 3.5561709783842046 11.210350390326564 0.24430030884811474 -1.7853804629548282 -0.3366515061880267
P 1.0475474216280183 0.09012404517655297 8.086268856758675 0.03782555548820583 -0.3285615300910406 0.7528421455529615
P 0.535291453720405 3.8207814346247546 4.063470179963826 0.494921931928567 -0.39645613705048494 -0.6551880479428974
P 1.5371497694067187 5.1947865781567915 7.416822746998035 0.4835995649372123 0.9662938444513359 0.7531236813491223
P 7.358167990765227 4.537266283454926 6.9724022228064735 1.8825074844168286 3.3437883097067127 -1.4102819656445131
P 7.167656324212581 8.240530425756663 3.3491061831916666 0.5785838290245972 0.040278130793756445 -0.9225205560201273
P 6.264665654729275 7.21054133802463 13.311618728805305 -0.016463287762345843 -0.835696973366664 -0.06597296445669928
Ni 2.3607535582366457 3.646040446438172 6.043876157604396 1.9592775394890323 -0.18836004603706916 0.21890578003441008
Ni 6.1414858933193335 2.6721987174705357 2.9295350068113213 -0.0201618196598556 1.0679714613984963 0.8990332715314645
Ni 8.69880668422307 3.293067394082489 2.1659122087094356 0.5901339957560418 1.0923678879649896 1.391063226624217
Ni 4.768276303295378 3.937362781644148 4.912023462752455 0.711883957973045 -0.9814391847332067 0.25196502448222413
Ni 4.5947239656443974 5.325753404492883 7.188345395149188 -0.2395964756145422 -1.5862109850070811 -0.9171279242496462
Ni 5.617010223527607 0.5538718398879467 2.031858634761991 -0.824747930554328 -0.5521994254937973 -0.4188481315924399
Ni 4.10688119503651 8.203448272827085 11.78224947270761 0.3304021828442052 -0.4463879888839215 -0.35797417892520283
Ni 1.3073377595549054 1.7168138298903635 3.9331968890977183 0.8930850243678295 -0.206472953587696 -0.2454218240470677
Ni 0.6997829048870025 8.262206918988593 1.6647659115558382 0.3534392671693268 0.5932699702818621 0.2627135212479798
Ni 4.457177443823828 6.56938136723011 4.570149785752448 -1.3648022360451593 -1.8216409879487596 4.4426801148331485
Ni 6.443112986318209 1.3592546455469234 5.07432386596327 -1.6607722053534237 0.5223440326952618 0.3431918784097057
Ni 6.5317470065713925 2.539341281621123 9.141916884989557 0.1598357133451312 0.4353875240083598 2.2811881399224583
Ni 7.515912212238001 3.3992784671377296 4.724080030112954 0.3771605220456666 2.1865093228906343 0.09928957633095803
Ni 5.959949942228441 3.5198001438853797 12.43587342711049 -0.7602703196962325 -0.7304406379293097 -0.6430272442106474
Ni 5.617150615323149 8.718630005753827 4.737216958394619 0.09114432151600431 -1.327247931940469 0.15684423481697501
Ni 2.28777790291309 1.2821046741692048 6.787458494865087 -0.6425248506529322 0.858805020139037 0.3472747902298277
Ni 7.003931412249652 6.2564761333225665 4.821024308717014 -0.6505770315334474 0.2638941718196423 0.1877013294071477
Ni 8.248336209588887 8.017241954671109 8.19151497020588 -0.8986064684066911 -0.5169835397142967 -0.4671815285905051
Ni 0.9047624139430664 6.984342077044803 8.663811689320575 0.7983110765190381 -0.3339873290923022 -0.5322144977314383
Ni 3.4880996764516383 3.445055551937975 8.642195096588075 1.4734953650782043 -0.2594158243333145 -0.3501639388521647
Ni 7.713162684976738 5.303758689857722 12.420325503726689 0.061049044792520664 0.1445535903750801 0.3277009818629582
Ni 2.387474796655108 3.139890585691401 2.283910576918516 -0.9282248054937563 -0.2956496098543682 0.11800926422764836
Ni 4.878343471001549 3.11095115690335 1.1220299488904086 -1.5051777837831497 -1.2940195089046425 -0.9027994234421162
Ni 7.954786324560286 1.073136166229096 2.93691867931161 0.2191508061656806 -1.5440502924786312 -0.09525860079469402
P 3.923332961542826 2.183644628431894 3.389037353625477 0.8310869853984785 -1.0324573276522866 -0.02965844629638118
P 5.9022582737130636 5.07210286775777 3.33217493264911 0.7282929954586876 -0.6545015633988341 -0.7069266139677696
P 4.456119825630734 3.0628622872031532 10.573437739319889 0.2394332105638005 -0.24148366533492605 0.32262125334720565
P 1.7958356918753295 8.096207659937857 12.85636276583369 -0.5880316047010582 1.8622543905947477 0.2878121160878205
P 9.032134244655689 5.202639159254195 0.7777040951949069 -2.3294824561524723 0.0983161566740952 0.3873012100240943
P 0.3300985491351147 9.13155035480662 4.234523543654131 0.2589121452240186 -0.1750288761458018 -0.49232306085313915
P 6.264824765430892 7.531823282399607 10.58117800698086 -3.4478015167655847 -0.08306385850071502 -1.4477835621343969
P 7.412012924082711 2.011617881625821 12.138862416349086 2.1916111628935737 -0.5245798640043159 -1.526177011742636
Ni 0.7247398864081339 5.488570449511299 10.73043694833098 0.5768426779637743 -0.15483080393137205 -0.710706392725176
Ni 3.968511041348752 0.8873744220923416 10.285564362557768 1.6591223284548264 -0.6335020783290316 -1.359777014916426
Ni 8.931931940449713 6.162965838037502 6.106328043934005 -1.0273058653583338 0.8268588062497436 2.144513952295455
Ni 7.521247100468656 8.50992356249873 11.72983840759528 0.8790961662879052 2.5889059937952705 1.7446279636278148
Ni 4.098832065425344 5.557062926830495 2.1740483812338387 -1.1150434751856344 -1.5654979208294457 -0.49115835112107664
Ni 6.946707716386087 4.319396935677354 0.9300563357735024 0.07502993245264498 0.1666563358113904 0.1645788844570714
Ni 2.2158317874235203 0.5372981204513746 11.763440715885984 1.6652988895791836 -0.3617372455120609 0.33897835454899045
Ni 1.0608940016576953 4.82570590712574 12.955183614771517 1.3775520795116598 1.2871680332004478 0.6898431761229217
Ni 3.6404622124285733 5.7369703330930815 9.726802208458388 -0.709390759237546 0.08829811031646083 0.0735669747538733
Ni 5.004602492460414 8.286878437192119 8.723071066219521 -2.436308450069791 -1.009030978308546 -0.07934141534380529
Ni 8.122956976715429 6.596336591974478 10.372206691204841 0.644920090357986 0.34403108648154945 -1.278771067386004
Ni 1.2263316935262565 3.2838389733887574 8.430978448028663 0.35834647466295705 1.3886559027343053 -0.640265365194794
Ni 3.2532522808663282 4.433863046310557 12.055903968417079 0.2968654845393403 -0.5294117381753205 -0.898076306934834
Ni 7.6130633347541625 6.2561391930132615 2.3478010111797945 0.4836180768799736 0.1765972490741862 -0.24554009479248678
Ni 8.839844282026156 4.810655906643468 8.556387631151837 -0.5183020014154042 0.7855211238432214 -0.08152248215552411
Ni 0.8465438082217487 8.384534970172236 6.227518921573747 0.9505275827560145 -0.3241225204830805 0.10942126544832122
Ni 4.906197203237396 5.234947991135292 13.688834636415454 1.1185147215636866 0.9654471801803244 0.6952283516942349
Ni 6.2584509779132125 2.927234453255014 6.990237596512332 0.2874884141998146 -1.6160681775778296 -0.9484007662209989
Ni 6.549904345461697 0.09911192792725332 9.55069380418321 0.8518974943859265 1.9491196251194238 0.32468070697939566
Ni 8.617950369443003 1.4228895667403125 5.192542181318701 2.0288474772683704 0.051433890300259806 1.3190669387915734
Ni 0.7513562989525904 7.879657995038395 10.84721671575474 1.511701186723964 1.8053808173361552 -1.2856382268194826
Ni 7.440175518268754 1.6124184907241532 0.5100789591313842 -1.6694067410999698 -0.8376618104025187 1.021457376997357
Ni 5.162627497524273 7.356511367577813 2.822343999023186 4.214458970935084 2.4638133403582794 -1.5627596959626764
Ni 1.3856951003742985 5.839044527906306 1.9299136004006685 0.8687616171311168 -0.38465708753302785 -0.002746709507201721
P 5.411233289072856 7.268242365993043 6.807554176479195 -0.19917230616122472 0.6985802988856034 -1.2189268415348622
P 7.045908559117185 0.726474193055749 7.229523244727425 0.12248144106638904 0.06002600284464501 0.5807646387259998
P 7.243112234590741 4.691416474961782 10.053730710850127 -0.6576892170981964 -1.5208931376358774 0.8516121019350238
P 3.0224762473517823 4.270886890590527 0.6046496804454543 -0.1333741767194929 1.989910690993857 -0.6857006147094579
P 0.10524611344720439 1.5393773192293438 1.29190214960754 1.7731034453596883 -1.7871905195803734 -0.7099610299187192
P 2.8598557508471285 7.847583149483204 9.843239419901021 0.28257632161017787 -0.23147461783835616 -0.3678402730860052
P 2.5634418731894386 6.9416910495586635 3.593570416771712 -0.6174527381756527 0.7706339223187437 -1.4583423114868497
P 4.227674295922211 1.0974145874051 0.02214633777434882 1.2866160173517196 -0.1562017161369697 -0.6059997591437047
