# total energy = -340868.56055475434 ev
CRYSTAL
PRIMVEC
9.27114237489224 0.00000000000000 0.00000000000000
0.00000000000000 9.27114237489224 0.00000000000000
0.00000000000000 0.00000000000000 13.56925400708751
PRIMCOORD
 96 1
Ni 1.2864637133431724 5.833866327624613 6.71607485812597 -0.6175766653480267 0.6996848448036918 0.8783952835661389
Ni 2.993151225122441 2.668670513798589 9.138675347078077 1.1120825927850977 -1.4828043011839558 -0.9078634682285848
Ni 5.060430547702873 -0.15571717990011957 0.9531735625524808 0.031123203767365753 -0.885737582863823 -0.08595892066032294
Ni 0.41391571317695264 8.173995369747344 13.205639020434285 0.45008240701637325 -0.17967588799950993 0.4925619163368226
Ni 5.2764667068865165 4.198297748859582 6.256199310946739 -3.539505824550117 -1.832858968151766 -2.4097319851328436
Ni 7.570184410374225 3.21662284047574 2.953999190952304 0.5847022832175091 -0.5415352609117319 1.4695744327572433
Ni 9.329272418750607 2.892874549398026 1.0337203202287144 -0.22458534691769064 1.0428867505157264 1.490732554892097
Ni 0.6531139673090358 7.652623408205354 2.2894177476629123 0.04411293115881435 0.6461192528724099 1.4476511503215908
Ni 1.7558709219787894 5.72478206666183 3.9379464563276443 1.134976980884768 1.7087495045636505 -0.8629907760856104
Ni 8.094124478348876 8.795922141284434 6.372528969660875 0.577316018055767 -1.1325195204832106 0.38130256923849815
Ni 7.323136280009165 7.202537260240011 13.05252332307931 0.5937453672563838 0.8154253676018215 0.7091326204801529
Ni 5.31878020060011 5.770396087054222 13.305480879582195 0.2855467170924114 0.2674844602740619 -0.27492908947756517
Ni 2.481532505339149 2.1171766107413776 1.8262045892354575 -0.8944831902669369 0.05804908162393229 0.5604855767619895
Ni 3.4118823696391916 3.846745301855692 3.7616825707377646 -0.709164759269669 -1.0593004159870594 -1.5970214453590237
Ni 2.839074110305129 4.437057477958217 5.874781733070895 1.054986619103054 0.19847116632914205 1.0568668668449026
Ni 5.271228511455277 8.824032244908365 3.94169199783954 -0.23469800987166034 -0.15312230588069756 -1.2600462372829913
Ni 4.490895001620539 1.6284946971472682 4.952980789137483 0.255423929565102 0.949154870778204 0.35001995707513267
Ni 4.9504933416433206 3.680587888548281 12.036986494353767 0.6666878210523808 -0.6579877221752217 1.3557516958071167
Ni 7.864895483592391 0.5612675413290934 0.15269478749200574 0.3050030260448102 0.24479087533128813 1.8485190432865262
Ni 0.35878950072712196 2.710974736369826 9.40248848416581 2.351620939922724 -3.5442610798469154 0.6160651137995067
Ni 8.7700556541107 1.7013102492126855 6.8044112296098636 -0.15158684307277764 0.7378664980797357 -0.5912205439520011
Ni 2.1456575600595547 2.3383582539327015 5.341916336349951 -0.4628229945114933 -1.2778187307750637 -1.6633263392338453
Ni 7.317953711432063 5.345694326860094 11.71656190781074 -1.6812045050658464 0.41135182321539476 -2.0187139883787943
Ni 3.5780212406618905 7.794397717116018 10.609975971347888 0.14142635760000805 0.9045493162536872 -0.48628071131380124
P 5.924083813892575 7.02330753621039 5.151825469050068 0.6056464895693441 -1.305381470884681 -0.8373674190905513
P 7.7840140376771 4.911860491445129 0.2462007479537039 -0.6051232700760224 0.5892341096495917 1.4786877079124212
P 8.93759446762918 2.220725999717523 4.546555231870086 0.08292399048874106 -0.40093885541218693 -0.029125456611046614
P 4.345245355204993 6.19988175670414 1.6585155832108063 -0.6120284818362879 2.0688476718103916 -0.21254795613718233
P 3.9740102729789384 2.4124810370703393 6.921093191733534 -0.9616990259918018 0.3004773702603148 0.5484746683440425
P 1.9574811836562223 7.088715445533221 11.88543205737157 -0.6525143577654762 0.07496102688792251 0.6182405241842708
P 1.481454379378295 3.8412938701502592 11.055699119720414 -1.0455203314838317 0.05172802450191091 0.9116239637122816
P 4.091280952642227 0.9245628172413175 10.828061052992247 -0.5128849441648908 -1.9405079721910132 1.0609801176823275
Ni 7.459561139780316 3.5364865229062157 5.728328278613068 0.6703436726374132 0.8325273173894306 -0.5868350132897958
Ni 6.833768301880699 7.743934889271345 8.20625060111872 0.16368799721168584 -0.49110692905785097 -0.2663495753386703
Ni 2.9368846621628 8.048501186814127 0.3962532598741991 -0.3802327332130871 -0.6060177568658337 -0.21585593746449278
Ni 1.8895886081819355 7.19950559668954 9.100288182152324 -0.6613242427476222 -0.34059583554775535 -0.9909913471980158
Ni 0.679236338011801 9.150293015564603 4.692600756064241 0.8420925924803626 2.4656334242861537 -0.6625478307420782
Ni 8.782729305711594 5.687512074389997 2.18352368678489 -0.5340780333027383 -1.5789131657940871 -0.511591422164448
Ni 6.870407856472312 1.2837843532022373 5.2431462212584155 0.333033192709149 0.16167996564272155 -0.8102823899483014
Ni 0.42692405301690506 5.781771778725253 13.060610540556603 -0.747854719640699 -0.3906007067109724 -0.7781803672074339
Ni 0.4948945060869839 5.87452028685645 10.499264624901594 -0.6567160545516496 0.5692656369474648 1.8655960533734708
Ni 5.143917184620249 7.93501313323216 12.251529999618066 0.2751077811472746 0.1432425848731404 0.24587022443839593
Ni 6.752339858566393 2.8226456460499825 8.000893870815156 -0.22181626881298572 1.0191408130490385 0.2756770233871833
Ni 0.9266330633294518 1.3172624482503938 13.294463054006114 -0.3394236696165251 -0.651438351092478 -1.3734984782675763
Ni 2.025939298814236 3.439964659836053 13.113558034552732 -0.4221116328350601 -0.35967959165208374 0.41730212726155874
Ni 4.758951540564696 1.603453341643233 2.6460721043054063 0.4312395632782573 0.9003489050190946 -1.034627852941044
Ni 0.5494088231413069 4.235354504857223 4.974366533210477 -1.7169343543672881 -1.562739384247702 0.751611358469654
Ni 3.27170269721379 1.1005402245323914 13.396666273112142 0.5361066336969929 -0.014078589580253173 -1.141643080051034
Ni 5.8456314072746025 0.9699283710185647 12.607329556935321 -0.626314816551973 0.8824900224608027 -1.9592531140090002
Ni 1.7804765337920838 4.610483466872871 9.100681278588226 -0.9616123798152666 0.9760023299883515 -3.105085549551033
Ni 8.908631418908483 0.9332239184304584 2.7175683728135396 -1.7274465667525214 0.1867363943907171 -0.09158809392164227
Ni 9.162734888606593 0.43572051288444613 8.849745758233222 -0.435757762863585 -1.245019939077488 0.19432089160619437
Ni 5.662925004861415 8.74788835273708 6.1760595564199425 0.2771986022380323 0.9061228313883943 2.126517258607718
Ni 7.149209649407278 5.41838935407488 3.9984517855725286 -0.33808875285518547 0.17972731006273562 0.6336085219999088
Ni 3.498827142655423 4.458724137644604 10.48787966208821 1.4887672036356103 0.5442218066049594 -0.4618729718933981
Ni 7.869725748759959 7.3773724627928035 10.268301926524503 0.08734757347773345 0.3013371471574488 0.561918195443458
P 1.3770520453053816 4.1417437804869 2.3750265490656184 0.4320049806893721 -0.16218621585517876 -0.07031478636516277
P 0.3181958039205993 7.168679048355251 4.833110481157523 0.633837093070947 -1.7626310850734546 -0.40783686808360087
P 5.253196139572512 6.206798028901848 10.638471754493834 0.5777106823910244 1.193639270612667 3.8599169576198813
P 1.1726418986363831 0.19561183257298642 1.46789440656815 1.38209933256271 0.17104906556244734 -1.0330399396286338
P 3.3273480936355666 5.503479898619876 7.864549669982504 -1.4230729467615943 0.9159200199844743 -1.7455664162816842
P 6.71065680253302 9.239277439899194 2.2374474320711246 1.539493012125252 1.128687034110998 0.6779808774676969
P 0.5644160212732512 3.5154410297576932 7.398011879906126 0.09668556304920768 1.1932150385910547 -0.7432581014089522
P 5.545172225795605 3.5749895771114204 3.862881725126618 1.0315504995673008 -0.10987043717059787 0.31711883547173775
Ni 4.661066819568176 5.850545112723376 3.820585846583502 0.01778869144198872 -0.4928483372289899 0.00010412967803207874
Ni 1.777602479661669 1.5365249649739887 7.394063300376629 -0.17183119514411052 -0.14954050206671018 1.766040624975636
Ni 8.65296112615218 3.6648918445392726 12.297869023342711 1.731422006460502 -1.261143327001912 -0.05610429919273564
Ni 5.2867391326171616 2.3222913642294456 9.914104422606398 -1.1836955291363935 2.857130931779783 -0.4629628625234672
Ni 8.217467756255461 6.0329641097235225 6.101618773099487 -0.8572587586978397 0.8101288950895725 0.6039500757035277
Ni 3.2578423393913045 7.685823368982825 3.06557924343737 -0.7301665583323167 -0.3644731563859852 -1.0310439922445276
Ni 3.4639861896809085 9.37915116462684 6.500812839329066 -0.08244062309441931 0.35438311913983483 -1.5791911020458222
Ni 5.051715673888065 0.2759833656586881 8.722926729057308 -2.0588458234026734 0.12612109470150537 -0.4581014206661078
Ni 6.81203674419782 0.7921588519100415 10.049063514771035 2.624076371048816 -1.3453199589508316 1.7269644849097805
Ni 2.0970860452555415 1.7588562298174784 11.19209709317873 0.5344863244847504 0.5455312694450024 0.238666250490789
Ni 8.542013365575805 4.398369000905889 9.218015002019536 -3.4044452612671368 3.0868096340599807 -0.9519190637869026
Ni 6.386908511455306 7.1257073035343685 2.2633927239548868 -0.5509701810723866 -0.23879994785517586 -0.6951100809488159
Ni 3.069944097258658 5.339482661481455 12.483102739162193 0.2994995797280777 1.9665218797562711 1.1730151666044122
Ni 6.926173777744719 2.780350694621102 0.8166763878709526 0.21344347136825823 -0.5252421801786632 -1.1679930307994724
Ni 7.675513858682756 8.009849794331224 4.046270483617221 0.5087817206297948 0.008590312772172303 0.01864898255975498
Ni 4.3403501920409315 7.555647259159739 7.814194387389163 -0.64485606988927 -1.5581314531620456 1.2650295494301955
Ni 3.538164599672684 6.832377630527273 5.7862553031687 -0.04861647545612272 0.005749757999583646 -0.6745949917145995
Ni 3.7726225187180535 4.263696387040056 1.1984026947872575 -0.8052934213741421 -1.745454316183852 -0.43942209908904967
Ni 6.1334818351491975 4.786690798494378 1.799323839087957 0.3195305302370239 -0.13346287977855725 0.348235097260568
Ni 1.8349815797040507 5.9743148631783445 1.1996533718911058 1.692166660504305 -0.6532589492409846 1.0577181591016043
Ni 8.764956525814803 1.6046678612918925 11.244799829016655 -0.156610264429298 -0.9363260944446519 0.251015001864129
Ni 1.229307120717339 8.423537437406216 6.855146629039808 -0.4101228359043001 -0.5408929993420426 0.5327757695515469
Ni 5.075384900323386 5.3038165768372405 8.883736547453676 2.0323706599302804 -1.335385730556255 -1.9342133974315525
Ni 1.262646148630153 8.93505417462359 11.055562833927777 -0.8189773466191379 -0.3275554574240294 -0.9541551522062728
P 2.9478895081395833 0.3296336122454153 3.9433200104372848 0.3495813268758173 1.185689676748287 0.5256970083278947
P 4.880561114850675 2.405221732605453 0.39311497818663305 -1.0032848198533881 0.2970282353694497 0.8724748043166457
P 6.8372635225489775 3.0918147220768804 11.099513611381472 1.643247051985467 0.34840941805490316 -0.01638101246118469
P 2.724760925053462 9.048254822792515 8.442029657949846 -0.03621295958544731 0.08031457789035201 1.131781870986238
P 7.960935247260032 8.952085263131888 11.796023941831303 -0.04264020326802979 -0.7725727912126694 -0.40147955840700533
P 9.111372759953369 7.070683073650455 8.060733532038867 -0.7756398601737674 0.22507334229770268 0.6297714076420057
P 6.9992674640808215 0.7290399876349503 7.936019052177806 1.2723659351906087 -1.0654870044137457 -1.445308104010711
P 6.605781640199941 5.092805376810643 7.333747102435812 3.5656176911458206 0.7769228406512491 2.1509301402344443
