# total energy = -340865.58574450033 ev
CRYSTAL
PRIMVEC
9.34248157872568 0.00000000000000 0.00000000000000
0.00000000000000 9.34248157872568 0.00000000000000
0.00000000000000 0.00000000000000 13.67366614297666
PRIMCOORD
 96 1
Ni 0.9358364013039715 6.754997378808276 5.0439283779762745 -0.27530575609069363 -0.8185963091306353 1.5990659865928785
Ni 1.1374191309728923 5.910764011494375 2.9694415065989626 0.6393078863775313 -0.5256381300655013 0.4006580909469745
Ni 0.7548398302681075 0.3027057526070678 7.763019399941689 0.38272901727237957 0.5976526727305901 2.2190941988051907
Ni 6.904430375103144 3.4994507755019852 0.5074088711951812 -2.200590483574049 0.2539350037244014 1.9179789378505616
Ni 8.847461053653582 1.1986590991324964 6.1212902989846825 -0.5395786514059934 0.06355381349224538 -0.874804738001403
Ni 7.699718480298331 7.997435347627409 13.642695369018382 -1.1274590752411677 0.7890972712302539 0.10625058102982346
Ni 3.3098170800475772 7.498500107419376 10.393531549273748 0.5083626308145052 0.12363149551043225 1.070124503185757
Ni 1.1178466316144833 4.682685437192604 1.099272843559852 0.48785705466198565 -0.10649972092615205 -1.1196305803356845
Ni 3.270653396367172 1.9385182598439412 4.297305260445981 0.7767279510316235 1.104623308293575 -0.41484749507347907
Ni 5.440145833603926 5.646736133514426 2.0726548106975105 -0.7067291532449829 -0.3421801493157397 -0.14146620969900797
Ni 7.36176354388254 1.377147213806674 0.11987058115414663 -0.888529029566031 -1.0151167794913099 1.3207929203437447
Ni 7.646120662246211 5.565251007307245 0.9309867190047114 0.8227159877259638 1.6102801101411428 -0.8256053934586168
Ni 5.015193706722499 5.596398841608408 10.503782176924622 2.845799565927363 1.2616945715196917 -0.7608534458932121
Ni 7.614122662101795 2.014762253764693 10.486471492408537 -0.14762374465997155 -0.14843929858273144 1.0838652498106174
Ni 7.8646413114076354 4.412192561811214 9.758526798728967 0.1286060659068882 -0.035429801562519625 1.271190941045901
Ni 6.278829766732196 4.825503956377328 6.737589532481534 -0.059541607009058736 0.11267062562355434 -0.07575858308855339
Ni 0.3950244207025587 7.064850129987745 0.8722290482577705 0.029275351925349583 0.18884315632107476 -0.33611877361300824
Ni 4.467658876222131 3.645389683605902 0.3068052336182706 0.16609197866748815 -0.7064705002669576 -0.8407337644596231
Ni 3.0180140036940957 7.648942091747996 3.549561045100409 -1.4956523607912178 -1.7837534688743666 3.593046219670419
Ni 6.785285704784391 7.124193574343169 7.779167879722601 0.6738935947722008 0.43553484821950156 0.7459099372095025
Ni 4.35474564125997 6.18274234148101 8.24129654440685 0.429817229009434 0.33598636180020197 -0.13619596243900417
Ni 1.1376433505359482 7.356784001086343 7.650170628103906 -1.4127815921379152 -1.2570948679641512 -2.952924322032024
Ni 3.72869659376291 5.238675213716533 4.360778081754349 0.04145441049004474 0.7471654068831584 -0.10383862915422117
Ni 7.645139701657842 1.5682663638663261 3.2299248469862722 0.15546715196379032 -0.022341343809677654 0.1872732407307936
P 3.2293596268377365 6.096614001822216 2.122139134015737 -0.4029078062130997 -2.2813285221550648 -0.05203809954316199
P 6.996556588073679 1.0446949991675423 8.710385358027624 -0.2630891594198437 -0.2227737476302486 -0.9382765333028035
P 8.575529436075918 8.355233715373634 6.598460359357255 -0.04456518820488454 -0.7132389293390426 0.6826029496207405
P 1.1732382061710498 1.4621918255773645 4.45076486639406 -0.2951433596419111 0.04479633037908414 0.24516368528967453
P 8.104257284459889 8.44661252980065 2.086314453328503 -0.9367608679892253 1.301742588580513 -0.5847416210958768
P 1.0389587153460325 5.354251055989982 8.807933013183211 -0.0530274600396248 -0.31055223799781356 0.6114412418742501
P 5.29345952695649 7.690133093977697 9.540472339409064 0.7412379856551298 0.3223394604407287 -0.9007924203144163
P 5.929972154062818 4.004822985666077 8.754606127103116 0.28706726750199596 0.4573275186145608 0.16141848445121879
Ni 8.07117555642737 2.9311008955646076 8.025717842762354 -0.6389373904119899 -0.9271791378380614 -1.5114276213476034
Ni 8.090804110676544 6.6341056643940455 10.007673971707451 0.20596387516176143 0.6009688815880166 -0.45066167655861095
Ni 7.886484033841984 3.106758238255206 5.330541705693195 -1.7580393519377142 0.9546958552010912 -0.4382332209872711
Ni 7.6670197940193665 8.848292534533247 4.561794657026554 0.6595324409545222 0.4765670835704632 -0.02780956601310049
Ni 3.6106730212594353 8.349665596224417 12.689285759459917 0.13486670210461937 -1.8326874755709082 0.10753638972078253
Ni 9.428432626494642 0.9249580155030497 1.5329134785096887 -0.6357286536667051 -0.08271444558109627 -0.19366834562386
Ni 6.015876274158556 -0.008223252475069939 7.015465771224714 1.5106444633246758 -1.0862635748394647 1.2735064765529551
Ni 0.03411126952621604 8.087982681174758 11.84877910813364 -0.6812068406041624 -1.091196750475024 -0.18430515924140514
Ni 4.696250720757478 0.5125463019336963 9.109396215711678 0.0444173497731106 -2.5996375212801617 -1.055402366484234
Ni 1.6533016331552226 -0.04601732832447681 -0.036474917420095496 -0.9212288337918971 0.9614946232904797 -1.5707082613857917
Ni 9.374433081725378 5.321664479492545 6.989814118962956 -2.3914447567878816 0.3974544964080123 0.07678162503642906
Ni 3.8313050713063013 5.9521885757689255 13.591515385254548 -1.156519482942234 0.00953133652920294 0.009186037374642245
Ni 2.14168921141784 2.624630122794562 10.569607435148717 -0.25951815423913366 0.9227694388061398 -0.9494011824610552
Ni 4.501413262943817 9.507843721743555 5.379343093592281 -1.4682176616190328 -0.44583160215981926 -0.9516763516484772
Ni 4.842955712368501 2.3634330167981914 10.017040743954105 0.3166889470231707 3.4520021851104934 2.00744072945782
Ni 0.4999937433952914 8.275607743043459 3.2371036099967743 1.2845989869216907 1.1669630468730612 -0.010485987132988393
Ni 6.374711657383915 3.8256995822299076 11.97059759674183 -0.851938632036507 -0.43901535056893426 -0.8662198245458694
Ni 0.8022828213143472 1.8361526868271933 12.679577052379601 -1.1901238012602406 -0.8007574811770015 -0.6139077011368717
Ni 8.070101171021062 8.934645093755096 10.012364831816214 -0.06272334717115004 0.8575819463652135 -0.0871529409684241
Ni 5.593810974151472 7.979946221709059 4.027045012861261 0.4692078149919145 -1.5561974693641265 -0.6915089938611187
Ni 1.1180895361411272 7.353224515522832 9.789169204765077 -1.1548585503000435 -2.453527899271871 1.6986473831326423
Ni 1.1298330357561726 3.2559670149870192 3.1083529998974404 -1.1609708338453681 -0.3148212976868126 0.9392993181403629
Ni 2.896290808400201 5.00233845177397 9.932099833731328 -1.9456090408630038 -0.103702360686673 -0.013029579490448528
Ni 2.524908472125513 8.001714204289055 1.3609520216167925 1.2526481450467073 -0.9114524711314238 0.66923347029237
P 0.034387806987318144 3.207386109658272 11.062050584758106 0.7246697968838035 0.5879346741118777 -0.7801621735241532
P 5.582076817018221 1.6559922679118915 12.135200914973783 0.4687822974187216 0.409556678988185 -1.1764676439293869
P 8.31019361064481 0.45968373719876304 12.28957701838585 0.7172935590243904 -0.2066999819968376 -2.2685383123689316
P -0.3959988415536719 4.927159500777733 4.568659512648778 0.9394317299531693 -0.19313561304884155 0.09523803196940372
P 4.150640441506671 -0.14241398972304434 3.068083166372626 0.5499869912235109 3.133242985821856 -1.4982936550688069
P 9.022015983492489 3.0925950358555174 1.4356255443479746 -0.5028244746050953 -0.7324496979395386 1.3146022181520005
P 5.835585060498137 6.601108018697673 0.03051347978735052 0.5906674996620086 0.9993764859379174 0.7739745566562025
P 4.102012823768954 4.201753159401591 11.617557354973286 -1.0742945754030466 -1.5313683261355886 1.9314600030561317
Ni 7.629593811952643 6.621642793680863 5.433340769865183 -0.0565825243807348 -0.2191803738520354 1.9646547446405453
Ni 8.084937032109918 6.57066087053106 3.1843643660215215 -0.3972570356852255 -0.3326094749081691 -0.966206169833536
Ni 2.774334051061456 1.320419664353567 6.528136696149356 -0.15025321186301865 1.3600222981580126 0.8011786278748202
Ni 5.432821327877438 3.51161468679776 4.510450245583144 0.5321057400677158 -0.15340538433875517 -0.614076365504252
Ni 3.1175861746544404 1.0969848697685038 11.805063767323201 1.5970245306828175 -1.028735655826325 0.2851348263659734
Ni 8.826720744070924 3.679433687263201 13.141377795952883 -0.06100405048719816 1.093166472606885 -1.273128010167614
Ni 2.310806816852646 1.040201265424633 2.34437715668299 0.3085889436238556 -0.4114058163817818 -0.7935126266891301
Ni 5.042240191516101 7.074033789591238 6.133350508732543 -0.6585127414407562 -0.413777659048068 -0.5883321666606125
Ni 2.4086973410900723 5.03577519411466 6.773045185137905 -0.8046737855122722 1.834390317194628 -1.069256498758507
Ni 1.388264767141522 0.07575818486746436 10.219206444486971 0.8486386211289966 2.356843107553612 0.2090887939439883
Ni 4.731509247047995 0.73568493984589 0.08884700186084425 -0.719004113957594 0.9777473377039161 0.8039785592174605
Ni 2.104534161323142 3.7745775218531947 12.74783602711103 0.8140426283216818 2.2772196421930135 -0.940523163245135
Ni 5.750213461864658 8.611376538719457 11.492730587227426 0.27019260323384436 0.2847144509991032 0.02676724079151519
Ni 1.1532639800954991 2.894057955251437 8.443871445642294 -0.534821339226666 1.7831870548479356 -0.8164036723546907
Ni 3.8284182444319583 3.9050826500334397 7.999395400307787 1.5308317369058282 -2.3228454104519285 1.5806949402848582
Ni 3.0938656133795 8.30385006550669 8.19074530966775 0.7349228420703795 1.1758392663167685 -0.5406142917593594
Ni 7.409709160449296 4.0944360710340275 2.895097773475108 0.8632707692198744 0.30677297346103943 0.6940399878130886
Ni 1.3896194270016506 8.966755203681041 5.626782460898822 0.11262177466348991 -0.14404399772851323 -0.9408298958522765
Ni 7.016727006266902 6.256323728090474 12.036190227169257 0.7007639368004834 -0.33968283681518274 -0.5412755794924421
Ni 5.7887511992648655 8.6546789418346 1.6135334909027457 0.7648188582988634 -0.678930642975476 0.10233016292949473
Ni 3.3254283671253346 3.6559747154784925 2.424190912897225 0.8005535926963115 0.6078828350990305 -0.1713064329888921
Ni 5.7375263715884195 2.3510168584939786 6.786158292583949 -0.8546971686182506 1.7367758145732477 2.1806572349852313
Ni 0.6733061231555987 3.477234353795877 6.013172559927375 1.4514764376049518 -2.0261958985781363 -1.1663963757363138
Ni 0.2856837507784181 5.326167555717249 11.769567007746938 0.33459616632089473 1.3300416926355223 -0.5355029386747229
P 2.8334719608174126 7.327317813508098 6.12535147582053 0.7918321536629137 -0.3974547535183284 -0.23190219229407802
P 3.730742597275794 3.4295690116829403 5.956741167147138 -0.32528568755324627 -0.2271471941075959 -1.2121188174740931
P 6.1069748141317515 5.817124316473214 4.151612059613246 -1.2829362545072873 -1.0195431906937797 0.678546777273496
P 5.9457235783674856 2.612475553980581 2.3546464126709434 -1.7091295136108888 0.2368176273178244 -0.7299822102356525
P 2.5708174276611797 1.3629559839616032 8.6547742351489 0.6719351854942492 -1.2513170849401094 1.6604644443050176
P 6.34950564150373 1.2728290620949825 5.2156562728243205 1.9335860482601992 -0.656091019373141 -2.32290377449369
P 2.7797526905019705 2.09720031311486 0.019782705198773683 0.7044886939502383 -1.869846601119709 2.1001485388062022
P 1.7298259015297939 7.187245983970807 12.58003290886464 1.5055230829377104 -0.9521306655770764 0.6514897731557038
