# total energy = -340893.5415599904 ev
CRYSTAL
PRIMVEC
9.10524768820275 0.00000000000000 0.00000000000000
0.00000000000000 9.10524768820275 0.00000000000000
0.00000000000000 0.00000000000000 13.32645036422909
PRIMCOORD
 96 1
Ni 6.606594526848743 2.038164108297291 11.421114288417785 -0.6199153407835323 -0.5842176302716068 1.0508330019459966
Ni 4.755597884477244 0.3038976483501584 6.231674127588175 -0.99752606299274 0.10499536846648369 -0.25613278270666856
Ni 2.756759339778586 1.6703940598341318 4.800134381173238 0.77718046518801 -0.35874216743947895 0.5454680203072348
Ni 3.480052878927604 4.424440035882134 5.059480053906793 -0.21796655604959236 -0.5360043037911737 0.02181503899256243
Ni 5.366286828807024 4.89478980175724 2.5712854498725535 -1.1798280757611874 -1.1000596001822924 1.3113947669582962
Ni 7.248040996956753 6.24090958004432 2.798234652292625 0.6079684528343013 -0.319012967170657 0.05492981926866024
Ni 5.234597635399515 4.4890417663133215 11.571849838374407 0.4316326849516179 -0.18144789229826816 -0.9211036210679426
Ni 5.4480883716109405 7.58303215471487 12.469586260182469 0.3786985559567478 2.03790084571989 -0.030249542913160805
Ni 1.9869288810758259 6.3294307954427715 0.3492299436704905 0.061622143687171296 0.5104547374568436 0.599462215135503
Ni 2.83942588108722 1.9346647608961194 0.15258937833094027 0.548461812828236 -1.299871339699729 0.11182473268349127
Ni 0.6255086450274251 9.108343202189516 4.665283845862176 0.4531844429804647 -0.5094427512525613 0.1662994666926039
Ni 8.945140747468075 2.728314546844544 1.3626558181230324 -0.4682927593768129 -1.5225201317163393 0.739658556983152
Ni 6.815969691227202 0.7583605785302208 4.770656142657244 1.1334952541329189 0.026703734543431428 0.068351749101521
Ni 0.6678434928977294 7.316430510313857 2.6028287585029646 0.5861413296568809 0.9655628798225822 -0.6063347738856203
Ni 7.545345535651489 3.7722949000578945 3.738082843409248 0.7362788418776416 0.5393215410898647 0.04156522503629616
Ni 7.808405238806873 4.000654505303024 12.643856143140567 -0.219179602521087 -0.5438117156507344 0.5852422148813792
Ni 8.262474822298476 9.073670420021514 6.800580912565926 -1.099496528589971 0.525003838915612 0.43624807223644224
Ni 6.847892688674946 0.4096696655068799 0.27084377917309027 -0.2887415698806253 0.571259527449042 0.04481561365279379
Ni 1.6622084424052892 6.465863822755093 9.388364160235277 1.3682822241739596 0.6715934858841144 -1.3419145328137085
Ni -0.051490174149170995 5.0773226967472365 1.4912565116063325 -0.16316400638741577 0.17251613702627708 -0.4826176606399172
Ni 6.38870595613439 1.929083244228844 6.929940983683893 0.9520959556843989 0.9234803488302353 0.8881608475933349
Ni 3.5301408449743925 4.3609309351411145 0.6124152992402443 0.8684019197988528 0.7583124246389134 -0.3018022597193254
Ni 5.905927527533622 5.6453444516759514 5.079762903055279 0.08070410001928681 -0.009324362724719426 -0.7337306215344912
Ni 5.548036672519065 3.068641379589648 9.336843938769626 0.6722372901157003 -1.0028089086582341 -0.04868718079305809
P 0.2084509817655254 5.645808819294273 12.62582502167857 0.3695510851295249 0.0987838403391331 -0.19490118958969657
P 4.105801902486866 5.9926367986958775 12.56748223832256 -1.8625487819067148 0.08371023383546228 0.345647796149366
P 2.3117312669731254 8.398962481095305 1.3070810299821165 0.512195117186718 0.3000184283460252 1.0760516673034692
P 6.365442048981229 7.914927528350844 6.095425026273698 0.38208032794478713 -0.603653113288399 -0.16704277261653167
P 4.796826444786253 0.9457438388198219 12.48022027864203 -0.07098918672436808 -0.7453579213607744 0.34996262147463597
P 3.784932983474172 6.0644225693399205 8.369850273525518 1.3417224714075602 1.8627279877970564 -1.399886995563434
P 4.862784857082733 0.9956861209079215 3.841615880225867 -0.7246001199881327 0.16763309790236292 -0.804871246235059
P 0.16387533250563477 5.5149755191440635 3.6338295815218604 0.0152875222866898 0.045429593087708865 1.4749999746481888
Ni 1.7107758321332607 1.389733913419623 2.6272963793647954 0.308441619412714 -1.0598166935018458 -0.869951780784476
Ni 1.8658746166526203 6.5949762311432885 4.84901499141239 -0.07526621683316716 0.5573485737949047 -1.0396854699696094
Ni 6.02683610799814 5.682694176584865 9.429315921022775 0.37710318644516994 0.05103794041342177 0.297302572076759
Ni 8.663752181260122 2.281256003864854 10.273133799195268 0.535221145768246 0.2938899468507842 -0.697286005554212
Ni 2.3102471116439802 5.537629374720216 6.908831378069846 -0.7528277473752583 -1.3999921536827307 1.2613592996674599
Ni 0.6588165506074574 0.11960288798476579 9.027190863526506 -0.5023801879788251 0.24912395548900318 0.34813379579601333
Ni 1.2508606797992596 1.2206494688661123 11.522368281805662 1.2257685470470436 -0.43491752635047676 -0.09256459890229865
Ni 4.147594988135795 6.864682764913862 1.7354637999826086 -0.9831160582149971 0.17131774584280174 -0.49093877891110294
Ni 5.562850910068262 7.8187123788841255 8.203309835100615 -0.44814533789466043 0.06473163585043046 -0.0007253082017987508
Ni 5.291669326215961 2.940831021582236 4.813633820995264 0.4459527011187159 -0.15651410517106593 0.23994486009289642
Ni 0.7998814172813498 7.428607158504447 6.868691805352038 0.01331548616198352 0.31581682883086254 0.37511803769434104
Ni 5.2319024821637665 4.350031953981688 7.435546267561756 0.13212513480374022 0.8178689440463075 -1.2571802285891058
Ni 8.377228255508378 7.4589185271591925 9.177926413483128 -1.8644989636545504 -0.42150999469531925 0.06070785940301803
Ni 4.441439532811666 -0.002044128045356125 10.305250738413017 1.3795153738856176 1.4188044012932275 0.3473925467546146
Ni 8.147867073047262 7.159446939578957 5.05169779893857 0.19743604019640837 0.011317739005664379 -0.6052042598256029
Ni 7.220761675692223 6.0681101945442375 7.182303842172533 -0.6441865546260712 0.5238494135961945 -0.5853805402314562
Ni 2.2693281297471857 5.327025001940316 2.691370005445735 0.1751263209556145 -0.5353643562143297 0.013677240376776447
Ni 2.253985787847742 5.270863835865677 11.47560555211595 0.1671170774978928 -0.38654633413594075 -0.2303032232380743
Ni 1.0015316897503206 3.3649534463158144 3.926824606613625 0.16796168488637525 0.5181665042788044 -0.8338162114041833
Ni 4.0805894723862375 2.8181469178711964 2.7156637160818806 -0.8706392937698038 -0.2943704860316285 -0.40950140027021736
Ni 1.2891300346973968 3.416944409072979 8.386654918160303 -0.1377360532326144 -0.20064554827264153 -0.7502653859647208
Ni 3.6520965288919873 2.521151957588675 7.131502935252908 -0.3716447344337599 0.5084132815467826 -0.4020549712945012
Ni 4.07120196229821 6.951783561715095 6.047676198288611 0.3588329273810723 0.5959056081324963 0.36059284749497256
Ni 0.5212517410410701 7.3338943748617105 11.287543040368961 0.9920005051888205 0.6059506510733241 0.8131602257167286
P 0.019416940119028673 5.778526905660024 8.095604773917037 1.190226645386692 -0.7922910955772032 -0.5340446089616415
P 8.442813352660718 1.8205031687683906 8.113862616039746 0.43399707141873645 -0.8044357013595372 -0.8361240336017537
P 1.9799087353164961 3.135665105834042 10.585399169922631 -1.0382101709756635 0.8202443862570197 -0.0037923771628966953
P 3.9860041622073537 6.131255085388535 3.8807684441235564 -0.11982009218414202 1.1473074774256629 0.13640833556012635
P 7.220024150651359 3.9382289290047545 10.52136560693033 -0.7868745525473223 1.338776758515675 -0.8088284311105942
P 6.436699715275024 7.7924710558252555 10.359169282048587 -0.9042875779518684 -0.5255851653403787 -0.7086824203166118
P 2.556325528364669 8.694910337924748 5.91143984432052 -0.18084188328315307 -0.7019458729237266 -0.9055242785724469
P 6.968000007366673 3.9021630439817896 1.49081672815604 0.0015722295831263244 -0.24009835495162524 -0.40395758763385264
Ni 5.2107509924115964 2.8768211322332227 -0.009403899533379983 1.2100051135652001 -0.1915960364758636 1.5105799286353276
Ni 1.4277210056478002 1.0709774118079205 6.9398420297263 -0.09565892155690622 1.0940866704283092 0.20640636201581875
Ni 6.8416009627090615 0.674935570111662 9.261349600852203 -0.09300991396983337 0.09088206899355317 -0.3216154377905106
Ni 2.6166204767671113 1.4621115251458408 9.212748521708786 0.839633846527225 0.4295236090284152 0.2535912472317374
Ni 6.5448882650965 1.9688276492087082 2.525189224293846 0.12381250117298676 -0.7372262933925755 -0.6504379348524217
Ni 3.933994988955353 6.862524821275781 10.455506441830707 0.24901082694990662 -0.9392391543263889 0.1561207263873892
Ni 8.02419960261507 7.303637637691472 0.5459315141677418 0.04093504765146498 -0.6390608033637317 -0.03771782626574795
Ni 7.857145628235789 3.951522590235133 8.18466593048738 -0.6206607035899891 -0.7268711754104966 -0.07400740472540157
Ni 2.856962587614418 8.328724602512333 12.432525171616708 0.9258154247213152 0.40881980082216046 0.07637307674410074
Ni 0.20207730857287826 4.8250436065348445 10.069518614333479 -1.0389203096688107 -0.6396058772339243 1.6854059447417038
Ni 8.77231404622574 2.4370285766931503 5.750349807000072 -0.6767585750248215 -0.8124989379836459 0.3431078033363317
Ni 3.9455040216917903 2.4414901479280036 11.100746158013084 0.2940946066624225 -0.24542568070180962 0.3931003332043746
Ni 1.2176447372181496 3.5593140577018803 12.83562358006197 -0.6509359575347629 0.08466488443924773 -0.35912809002398793
Ni 2.9397748128817405 8.300088599382512 8.178095583950503 0.7696977836577197 -0.3820379047426259 -0.7563815261647877
Ni 5.558826390709476 7.917039945751835 3.9341679886562964 -0.2826002328695778 -0.47933230502042606 -0.18872077181059754
Ni 3.166495473591618 8.475719716829614 3.442941711501045 -0.47240035378728323 0.31789325174391697 0.3778143535795816
Ni 3.5872580620279297 4.3669403984370385 9.432327936868672 -0.8584684627352247 -1.3444920637328974 0.7636474636985816
Ni 7.43467125328488 6.315335872439603 11.691147700570667 -0.3122571365040622 -0.7641318595341678 -0.9441556177913998
Ni 0.5900127484928314 -0.21344885207330258 0.12886474565842393 -0.01676976325917112 0.17191269911432328 0.1677724516937046
Ni 4.585912493594141 0.4902146841671039 1.4317009092942374 -0.556809413461983 -0.6071945507827542 0.1823351799992279
Ni 5.980153504485707 5.596658693731546 0.4332176563794857 0.42628247638329814 0.2094351215398135 -0.24532617900946782
Ni 7.909036433271353 8.982244630696702 11.366328925228014 0.9278018590237247 0.15356813516886456 0.40771294091122684
Ni 0.04598423103546565 4.8438186267109 5.865783402192105 -0.21232581282404725 0.6960881285913689 0.09517786815542963
Ni 7.7775566605544615 8.564158985001301 2.7440629827788334 -0.44630545647244424 1.0912617993850044 -0.009424635748009575
P 8.740427469767669 1.3362405848384773 3.3214440215285794 -1.0313597237127332 1.3067536686418593 0.2573597131352342
P 2.0772074092259643 3.3438930090378247 1.7130084388001707 -1.1441478487507586 -0.44288486082666956 0.3626438164867303
P 4.795342289457109 1.128467944005598 8.37587339469257 0.009517966792764255 -0.1825904905431436 0.05027175167135858
P 8.595726877799741 1.5738693319551997 12.748401683470076 -0.5298097449446876 0.7430403289711913 -0.23099973508446667
P 6.0452104972877985 7.754984752205073 1.4890839995723817 1.5917892504258069 0.3163742439962293 0.058452487709938036
P 1.7733379871428014 3.3719553815803085 6.071970819449499 0.40581623810914624 -0.49218499261337817 0.29621628099111563
P 6.9895339175104025 3.9625763606006665 5.885986125163313 -0.21235692317229882 -0.35054214812718987 1.2502842728002208
P 2.3355414889713715 8.559843097725137 10.295255908322206 -1.3488696239753026 -0.24236169706450514 0.512099472149118
