# total energy = -340857.1271832424 ev
CRYSTAL
PRIMVEC
9.35531293845965 0.00000000000000 0.00000000000000

0.00000000000000 9.35531293845965 0.00000000000000

0.00000000000000 0.00000000000000 13.69244613496121

PRIMCOORD
 96 1
Ni 6.011733330879497 0.4571464221812502 6.167392637664223 -0.23208319795663254 0.20655522888885716 0.5802707298087167
Ni 3.205176926002247 3.6893611375731417 2.2018963467259733 0.9300520885104822 -1.5928999669914825 -2.44192502492562
Ni 3.176755485856322 2.1809292197822443 0.04047108297276958 -0.14143561357138867 1.4191095912384721 0.366008362083589
Ni 5.6215138806073774 7.252425552970512 8.343861244325474 1.6547388546751503 -0.3669671264524325 1.3929501592342848
Ni -0.15552552581234705 4.649861742689017 10.311288194097765 2.155119238615127 1.1122638555579685 1.3244827104905061
Ni 4.375105562423815 2.057233274552018 9.065399095772035 -1.137472236502796 0.6589128050926523 -0.6650986221883901
Ni 3.308356670363476 5.17433928629036 3.8586951050100398 0.991799702031924 1.0366435978194921 1.2032166298884568
Ni 2.7652901203204103 7.523523805948994 -0.4372860287362912 0.25087821917594855 0.10392604666170488 0.8898801442772868
Ni 6.123164461089543 0.26001220736527625 12.248768787745266 0.31960586355964954 -0.742931828417785 -0.8307856521079757
Ni 4.859776250257904 7.53948396950691 11.768301441931442 -0.640435058003439 -0.8196288641602079 -2.085539530643776
Ni 5.466917337351479 9.3914242609904 9.74572118135063 1.822142610175526 -1.8086648874040658 -0.9308272761136098
Ni 3.629178410628198 1.054914421426831 2.810593222330498 -3.4641303358325954 -1.5852303662613665 -2.9036732983156957
Ni 0.5890310726648434 6.634769094341711 9.397481825998462 1.1862170100066667 -1.0601157127995033 -1.2328262252247735
Ni 4.3173739274203555 5.7170129131977685 13.50290178766961 -2.11823085022921 -0.6980989883738107 -2.3475742806571764
Ni 1.8159223373815099 9.079452646590735 1.3115409411065209 -1.204424791263945 0.960865731457229 2.6404864369757233
Ni 4.548234980244914 3.060525080203597 6.324403787141867 0.5521289772671781 0.1978705566306657 -0.23036004461793877
Ni 2.7896419994184503 0.12185575521156163 8.66678418783469 0.4615659821759405 1.4090108122415732 1.264918220663312
Ni 6.06908139806005 5.118983900726358 11.811679220576803 0.577318074938296 -0.34326515484980236 0.5895303007337719
Ni 1.759818526797206 0.17777058847823968 12.709286864642971 -0.7112872049293105 0.7001957230018393 0.05608553013965825
Ni 0.24642455112171388 7.700011781048693 0.5324379792235178 -1.2943676362726806 -1.0618661198317068 -0.9985023108630803
Ni 8.074009119005792 5.057594338436179 6.019418720306712 1.2578895959513046 1.766288479320384 -1.0301106817969807
Ni 0.447521676420181 3.3299019556353873 7.92406497278234 -0.037588242666419136 0.5169246614519033 -0.47614953641707025
Ni 6.913127070017112 1.8570857134980576 13.613508714826049 0.42139300950148073 -1.1363594630545915 0.3940285014455988
Ni 5.628530365172697 2.0732682806119644 1.999151750851569 0.16743486584862777 0.6553304870580327 -1.8291954032572495
P 2.65208148068715 3.0568484422913684 4.168473834100222 0.09418953610023133 -0.012909251862500347 0.5252061847344052
P 3.814581998782231 4.409673443048961 8.007930673963427 -0.4474655382188165 -0.2823312954789073 -0.9446410420682505
P 7.99920403822672 1.9971628113601194 2.344749165882076 1.5900393576142358 1.6294291722657679 -1.1366808509497521
P 5.939828397054091 3.8400003835341994 4.668274869250969 -1.1772567154895854 2.2168552821723435 0.39528885621526116
P 5.103098579670471 3.7381865148350197 14.396922604825985 -1.613219652385441 -0.9036738556272695 -1.0948551731632177
P 7.403261260499399 8.573779281624452 4.600442303067275 -0.08552491844669786 -1.815525619079641 1.9450182013565405
P 0.5236870196736498 6.1438303469626 7.117332965743653 0.5519819101663526 0.46315672370182814 1.5226813398845518
P 2.6723731540500575 5.745537261783984 1.4890804533597428 0.5056992250497291 1.015220909169342 -0.6147543654078832
Ni 0.4584711344671827 8.820965355204322 9.397632446533795 1.6854398833034328 2.614736067484497 -0.19974926171061727
Ni 5.261455958653381 4.127105576634367 9.522589487923227 -1.1183635406978032 1.0898713467953811 1.5144003308226823
Ni 1.9134046962756983 5.570630334539671 12.372658387949496 -0.5105910059243917 1.252587981232733 0.11805091609886122
Ni 8.994815132107462 0.503764881164516 3.846318026236814 1.7482107958830666 0.8092272092109094 -0.39450801218517867
Ni 3.323474855773554 7.653328770407427 2.5270776627339475 -2.903887728319347 -1.7663787250413452 0.9858918211879214
Ni 4.556477010780977 6.138731701511801 6.526983729511805 -2.369973474287983 -1.3613132490552944 -1.1041761934538272
Ni 8.729573304912833 5.877072959101862 12.553878280240047 -1.458824650439907 -1.7282814039489913 1.463528997894112
Ni 7.797428652753605 6.0231468124390855 8.471009299961839 0.3057756425447766 0.46666422263445434 -0.19154127197852816
Ni 6.824887760123638 0.5339348292641195 3.211029609661 -1.8278334899127164 -0.03183025713671937 -0.5166346410153102
Ni 6.5544911556016885 7.09958780851232 6.0992447974407265 -1.5320990336540259 0.5755900365035957 -0.6101083819954396
Ni 1.4626470171739916 1.646750216855252 5.4107340066087675 0.2108469142856756 -2.1324174261422373 0.02348831292992729
Ni 7.122891892581938 3.9681681682607235 0.09839543741895546 -1.4998016070729008 2.188264100798212 -1.3584279570876991
Ni 7.430662971555163 3.872294923160182 9.482251250391561 -0.662433159541085 -1.0794241833201281 -0.431838630314837
Ni 7.261762155098764 7.371078984626461 2.3232796586434703 -0.17412616182587431 0.9659115214112527 0.5679060375957768
Ni -0.23745467725340796 3.9887872775700126 0.9669005745707239 1.5158008107146346 0.3255417694281103 0.51370718295587
Ni 1.48406132806735 4.895943889363944 5.666016167845742 -0.09282093788747885 -1.088629761078796 -0.17430176817179013
Ni 2.9038610128291165 3.5836273928301363 11.926831894200296 -0.11633650451091578 -0.3214488303056593 -1.0623973097448283
Ni 7.742756205020627 2.9496272028205146 5.077254528188206 -0.15179458820820954 -1.4131677718327404 0.5158465978963761
Ni 1.9381588538221495 4.459733721594335 9.314039920485115 1.7337717376396011 0.34410693402480735 0.3068495923352457
Ni 6.660355874723247 1.8594058310609904 8.289680886043344 -0.2403035289838958 -0.62449730372726 -0.5325914214548828
Ni 0.09246697572689719 7.4275663630336695 3.0831967451310605 0.5357145404648967 1.1147017755754995 -0.4468762413742497
Ni 7.784097332079496 0.007662001145330163 1.0801971541438697 0.6083826575535846 0.08514542362009207 -0.5896051198357652
Ni 0.516811800330911 7.506459715486135 11.634540115709443 3.6487440274533545 0.29905117933674946 -1.6322936382977564
Ni 7.120347247512915 4.259361633034285 2.8100459365344026 1.4536217660827289 -1.4387458774121609 -0.10591942294264985
P 0.7647537831812848 1.1648954781600438 8.055827068668858 0.49414828698733604 -0.37308789463818975 -0.8725102855402715
P 6.19245926265665 6.3806975105750725 10.22231449215312 0.6726728349912222 0.23871304456832435 -0.9521545768364763
P 6.804886101456098 1.692553828097665 10.498942670500352 0.5438749647885021 0.9623955378381943 0.8633463596528163
P 9.143499117702982 5.584925252427419 4.109390356403845 -1.2826279792382491 -0.1120990693908005 1.6118420553116242
P 7.086209711274442 9.031394404974666 8.135681211741135 0.028498107439692857 -0.4110810860525114 -1.2309873722438218
P 3.5300027401255787 0.8495727907319826 6.367754435380244 1.5659792313412384 -0.9336403200823726 -1.0478867748334793
P 3.5752356772900122 0.24822544882681288 0.42830399296140537 1.6950069581665776 -1.7052021535320245 0.3166089857148547
P 1.7362057174067134 9.437358846611366 3.731410461807471 0.6397781411457304 -1.1793629631993108 -0.8387488728191104
Ni 8.80874731674791 0.787236470791123 11.685187907895754 -0.22054691518225888 -0.38160158853615567 -0.2822215093739204
Ni 2.5584067340837424 2.3646114303895853 7.241387219452349 -0.9324599266210264 2.133426584133042 2.99424452093705
Ni 1.9115429890377 1.5251685723073756 10.823864844345048 -0.07275604881680374 0.3414998354192635 -0.6267953557328173
Ni 1.1506099155850509 4.860721136846035 2.808403143614842 0.8876795370815422 0.17298716312542467 -1.2772209492900648
Ni 5.161223137809587 2.935753274006687 12.105204029288602 0.7531157109293224 -0.9737029924312133 -0.11228238904620017
Ni 3.2132786268470044 6.64462023867142 8.497025489198773 -0.8799883390848716 -0.3773261010892534 1.0253739384429439
Ni 7.881579690973684 8.097874521840636 10.05018702832795 -2.2527365694499846 -1.0509085923789385 0.3229626958470244
Ni 1.8678256125393753 6.930378266735047 4.477882092805356 0.27815633816561125 1.3392333864371193 0.9970635215340248
Ni 8.360478150838704 0.8425937274176769 6.10704993487119 0.5821810594575522 -0.42715845123034824 1.699930877830756
Ni 4.889170642930221 9.073558799555867 4.219409769919349 -0.5069523807305397 -0.41243194365345104 1.5943297574594735
Ni 4.1779984780148265 8.356876355428506 7.176088071962373 -0.2811748132769609 0.7892286546017956 -1.827472249918556
Ni 2.582300202856848 8.383913209286876 10.789524297819817 0.6195096207046814 -0.5144849416621591 -0.4683768344501869
Ni 8.220335565787366 3.1495034598046163 11.749145503536841 -1.5890636239645277 -0.1484801791229959 1.0344296208873087
Ni 1.0019165746767755 2.139073550521918 1.9472849614134435 0.7339692199078586 -0.5712952657829838 0.9151093511577207
Ni 0.3745315263153386 2.9979661038191976 4.040284532154365 -0.6099065503972787 0.947681371556471 -0.8236007043237623
Ni 9.068712747549418 2.032778487013687 9.825055169033796 0.19239230712491381 0.18218245647144754 -1.398472888824727
Ni 8.646488772346682 7.589768775558375 6.148634300061658 2.040885639379827 0.7597383584521625 -0.04554503561965059
Ni 0.12187820796217065 1.798942444733434 13.630857206796623 0.08505697767134383 0.34013663652314974 -0.5539521465188461
Ni 5.767971301767504 5.993378207256618 3.7271247930349727 0.27891558492913904 -0.20265666516539935 2.291191530992074
Ni 5.52587451832568 5.71661999006211 1.547191914061004 1.1798198482310713 0.4001184163934206 0.9758634904176418
Ni 1.7212465723134498 8.398049086857807 7.038027043998747 -1.358975087840421 -1.0856647649132014 -1.097571800763432
Ni 5.146703692415751 8.485670946109533 2.038996963401112 2.560414828334113 1.4821391567961315 -2.7180602188961447
Ni 6.119721705996159 4.679106450357274 7.268361392715268 -0.9521471206373084 -0.0221924769366392 0.4936885737420981
Ni 4.872134618405623 2.1235437313506753 4.08603107598898 0.6067978295649678 1.1024622960865142 2.783157208505794
P 4.199861843920366 7.1212921341010444 4.601004557363777 -1.169820056705882 -0.316533652392229 0.6472505382633756
P 8.228596306948937 8.277852028597488 12.27318241190748 -3.1179732041469785 -0.2777655304850958 2.8445140143467205
P 7.791291567587138 3.452325578331102 7.373327066281189 0.32458197661800225 -1.2810935448715937 -0.447556555270726
P 0.7627582949709076 3.8126080277911876 12.42864712818693 -0.48844995105097816 -0.9310175377475449 0.606784202718213
P 3.987917233483913 0.8756114327195252 10.811664580982868 -2.021640932217602 0.8119088698081307 1.9934277030081797
P 7.703295495825263 5.735012534936003 1.1440705519701722 1.7269662846819935 0.1949274148419417 -0.6320296075485631
P 5.554398866911896 7.744543069756595 13.69144595431508 -0.4855970549832153 0.08718482264762405 1.2636771491673593
P 3.17306949263134 6.2011503482048935 10.735206416440207 -0.2399767417720964 0.4194677674543099 0.023396267436753257
