# total energy = -381165.7697588981 ev
CRYSTAL
PRIMVEC
9.21759485656327 0.00000000000000 0.00000000000000

0.00000000000000 9.21759485656327 0.00000000000000

0.00000000000000 0.00000000000000 13.49088180135586

PRIMCOORD
 96 1
Ni 4.091128109240823 8.066630707874609 9.90103901995397 2.564824270255718 -0.6717991741370172 -1.322160747225549
Ni 5.385001907384146 6.607937095065754 12.958693152663555 0.8070304586699069 -1.8450254283109706 0.23627281055794788
Ni 8.582124703466013 3.1647690379320976 6.8181572517229885 2.7757403472164324 -0.6479341945939616 1.3779112626232914
Ni 6.49706786343458 0.06790141293739965 9.220882830570071 -1.0638533254650646 -1.0359540279516353 2.634715595930217
Ni 6.665040095560859 7.835379686660534 0.5403999370502857 1.7248924328721005 2.365102519348927 3.4568867668963046
Ni 4.395437787746941 6.093659822003059 2.6536561652035386 0.9079840529668491 0.06918478652577763 0.995196386418299
Ni 7.6038060496244535 0.07320982584863953 4.669571825781577 -0.17382097188062967 -0.046495315348061866 0.8786408239180417
Ni 3.137503392175113 0.220619447239732 5.506492573635257 1.2091108838857048 -0.7936470953844654 1.0184093341996525
Ni 8.791585330302295 8.787925945121252 0.28322903893673784 0.31509743416633473 1.4159296508485937 0.38351474639846855
Ni 7.483451912826296 0.7492577331791616 11.657794625435917 1.1424645475110646 -1.0798779830280951 -0.600245887379063
Ni 4.349377465959363 8.70183360862016 3.5902744196520633 -0.13590105690640464 0.7178638297055637 -0.21003521701765765
Ni 2.6261757494850473 0.2038019453182923 10.797278678120191 -2.0504750828404754 1.434643168097697 1.040128471044299
Ni 2.280967602343453 8.058722011438 2.3678388256148195 -0.11019413905860377 0.28882564495399937 1.0612567683824818
Ni 1.1852167892916206 4.477944479826308 0.8003545488280017 0.28722101947104084 -1.5837632947975369 0.9339452529173012
Ni 4.486129704110353 0.2572962574043846 7.834276340549273 -0.3103390935457429 0.7100078239962546 -0.032912948677936864
Ni 3.072270472965451 7.140022761503193 4.550042663728264 -0.15467885173454007 -1.5395770871986258 1.115306241928718
Ni 2.1552396077101625 6.898042459808682 10.553040065671636 -0.6775484179159686 0.6515936457234198 -0.5540035685820717
Ni 8.99159792235125 3.6744282959426458 9.35260779245471 0.9363196666867486 1.1114107635290538 -3.3654796786372168
Ni 8.197114981483763 2.85917811373287 0.25755342830249817 0.29744012609588777 -1.1040424960894406 0.07512917703467062
Ni 1.6166831896427696 5.816200997482777 12.484894025908236 -0.8483203185576293 0.307102074665684 -0.4201627366388054
Ni 5.658054721535317 7.745425177890279 5.587059883744622 0.12388500628213502 0.7757409045280059 1.18060094937147
Ni 7.904207467886837 1.5119252234398854 2.3988403625906365 1.664403374348108 -0.7574706454639084 0.29725757777143647
Ni 0.9302028083880572 1.4553660610447339 12.694029271644037 -0.16012059157540168 -1.7050381171503344 -3.8862645943754743
Ni 3.2517370459500663 4.557667458241508 4.831907498617661 0.09779576539425093 0.7279842059690171 0.02152321878375648
P 4.0709047059984895 5.138975081522186 9.495247308477568 -0.16647147349409394 -0.6688681165331513 -0.8507415264046122
Ni 0.37132528057223685 6.642890214981401 1.161645555576353 -0.6114319859028696 -0.25427413223137496 -0.1678300444045174
P 5.203396852379375 1.0689460470405705 5.822030204506683 1.4072094973667766 -2.196957514807152 -0.6607765977742684
Ni 5.557905552789664 6.168875396505086 10.74765944293614 0.06178540873791295 -0.257329374117931 -0.7187266919264912
P 5.5952091594085 5.583834647284051 5.452177895601778 -0.01329748843985452 0.09837580626743703 -0.6220681254604771
P 0.5147934583779045 0.4066544783603948 2.277854820540838 1.2594266014211213 -0.13760775518486626 -1.0902295014657482
P 2.3981324513012052 5.800816831570535 2.1383179469661893 -1.942438356444506 -1.6128596979428609 2.5921134449889744
Ni 7.795587329414793 7.207412597922841 12.287967484636646 0.9201309727420282 -0.49819186092909046 -1.5475598482937865
Ni 1.4755249411226667 7.3846116425584984 6.738371593662369 -2.432501931839507 -0.14031589814464865 -2.7985403758300835
Ni 2.185224443966914 5.782888609461903 8.106117962728682 0.3911789478119456 -0.05256800390470301 0.11974758707499376
Ni 3.5364777704527763 3.6394936112168272 1.8433401615514757 0.6427171691693964 1.9428304496766025 -0.630141903607547
Ni 7.282167292679143 5.242921899372598 9.487827144571424 -0.5269949012037117 1.9388051305672933 -1.2606902986248933
Ni 6.335861345975518 3.6686396463363624 8.25430186209259 -0.974694152699889 -0.8004080682573828 1.1356917475636055
Ni 8.979817836050566 2.4594847630518784 4.591365141729806 0.6190823033592758 -0.8724735187650653 0.0983305548517984
Ni 3.5633009716538666 7.642464642695716 12.211218102340851 0.8609791449722204 1.6007919681450495 -0.947631235044826
Ni 6.515586011617739 2.1748638672830567 4.339989345538982 -0.24299007467712347 -2.0210974010093063 -0.8722498327900333
Ni 5.571612116427472 6.541312319024008 8.311934874295275 -0.22460257330887123 0.6079692241652497 0.20568516757907798
Ni 4.577946167053329 8.159645458156467 1.2138918053110268 -1.4496041602829035 0.8898850293732932 0.2103720315317861
Ni 8.386757779253948 6.89324931045316 5.14539513638011 -0.2517670495388051 0.16868185088185145 0.3253000857309495
Ni 7.35601866313383 5.604297707994161 6.956776052844156 0.5263027602326936 -0.12079608294416616 0.2544294268623167
Ni 8.54931006557052 4.8886805092148276 12.785241060360626 -0.23342814202030124 1.2037704455093978 1.0208518822028743
Ni 8.903689719652007 0.3259046598717236 8.607735790935852 -0.32460614498771834 1.015891195763489 1.179119736840253
Ni 6.296824831512763 0.10803666471395916 2.659025414241214 -1.710177752369745 -0.5938109303869967 -0.6084374220509199
Ni 3.349176241790866 6.269577620945606 0.5272869865249691 0.8225300969674028 -0.5080507560010412 -1.1928720534293393
Ni 1.9004652842743754 4.655032913322993 10.06781388650086 0.7047224072275992 -1.2445543122949791 1.0327208657263183
Ni 6.739942271835794 1.3026397309069784 7.51819855861586 0.5082273907882215 1.141513239341389 -2.7992317454701534
Ni 6.478715631959883 7.17920675748458 3.5669078165438965 -0.8589171202368692 -1.5887355512011478 -0.6525269561709666
Ni 0.8788552741575436 4.871701699382386 5.786738798857675 0.5101636885789859 -0.06654297802755636 0.8224532209828802
Ni 5.775698885428621 2.7311365027760495 1.8132013914596523 0.15654598685026588 -0.49308230761666694 -0.2412152421648878
Ni 3.831523766069857 5.08368794722523 12.115391985610081 -0.19099028457106462 -0.6536554133484548 -1.427498843743432
Ni 0.6560872055432501 1.9282194625618267 10.319121472489316 0.8504741316758384 -1.2616547194206915 0.2208027399468068
Ni 9.067633862800665 5.77538548720153 10.678788339013739 1.8250597838223215 -0.23324713635774666 0.3874068823640231
P 3.329810074875577 0.7507122696566639 13.133063317419962 -0.5468366185199872 -0.2940907500076806 -0.9220294753163217
Ni 8.510743648448404 3.5203561969473784 2.5194360003755527 0.8676316172917314 3.300571665109922 0.0400583014734665
P 9.104863728660186 6.380373111817465 8.184890607108201 0.21870806220130723 -0.038384513315469375 0.26613308845249006
Ni 7.724925246800511 7.982022404154744 7.498744824548884 -0.702488375690758 -0.5909436361415306 -1.3472770826772025
P 0.38303807843004634 8.80346681014704 11.138112154715381 0.5879580711506455 0.6713322618029277 0.5234781462997049
P 8.048260041210082 5.805093795610847 2.707485075985026 0.5502392164436329 0.26237593540290294 0.7090873690645143
P 1.1742109809637504 3.6121818774852694 11.969649827139015 -0.5594028852207721 0.20170355722351066 0.22693327832457694
Ni 1.9914060757004781 8.216730023461743 8.639695957782774 0.4234828021509739 1.5171483258814644 1.0530726899097929
Ni 6.146034196307045 2.3634742944228204 12.518216553283516 0.5464188142562783 -0.2343596526956351 2.484039180486851
Ni 0.8335010201404146 5.722863631378914 3.5275956959931984 -0.08328085960752753 0.10439244477516214 0.7477315637992736
Ni 3.817900160786279 2.4001234518027297 3.755146774608608 0.8595218437004036 -1.5934201011610105 1.2612119754563182
Ni 8.158659175500619 7.697576642689296 9.952924861727487 -0.45619726166485947 0.1969778696130672 -0.44800007056604785
Ni 1.3306243490672915 2.1061559147906412 1.0412185997783712 0.8313273835440587 0.5523650045373841 4.531392429868893
Ni 6.680120080840922 3.5147611168342987 6.091173836654629 -3.7540433003135023 -0.0032899836051814304 -0.9083900301560162
Ni 3.1699677614638553 2.8464209623712518 11.112736115915862 -2.566337364466135 -0.6827446174049274 -1.050052157915914
Ni 8.464286970079504 8.04519979969848 2.8660028210075392 0.5420062870108794 -0.08553083198396884 -0.6449506864856054
Ni 4.06177928703317 2.7315144241675426 8.562082886843495 -0.3372014651542257 0.3685462980140943 0.9249901006065423
Ni 4.414002023904671 4.781682667447729 7.054733277519148 -0.5478714875424048 0.9128269828814471 0.8790892243093699
Ni 3.6481028448669366 1.2343742229704575 1.7236220388024164 0.15442791206599857 -0.6569417974092105 -0.29987033280393516
Ni 1.9197392752405198 8.107897880306666 0.14179610608818385 -0.7715487208235292 1.8191236208435444 -0.8857100720599973
Ni 1.62828814164008 3.5219784936523246 7.868692074681407 0.6669187061162642 -1.1982448877054783 -0.0037815785296192945
Ni 3.7114461571191337 7.471976007157789 7.014151894148729 0.45266276614903983 -0.9154286821703523 0.11855793764226678
Ni 6.486154231055855 5.152700080349823 1.5432355498453372 -1.0215175408113313 -0.34193949405984336 -0.9463513398911378
Ni 7.71763412922317 3.684484691994326 11.074948585564018 -1.1699810077637784 -1.4578946824264698 2.1903886033403825
Ni 0.01436838695266661 0.49559412993056723 6.295600734908121 0.19518658204059933 -0.1042878008764978 0.007508649672219325
Ni 8.007370790169519 4.559243666971882 4.6731067734312735 0.22512193614745102 1.0275298084436821 -1.1904140788071498
Ni 1.8722502262412009 3.4255808860368586 3.249103579083004 -2.5687439170250985 0.08133247763190508 0.8478760319313591
Ni 1.6501522767771886 0.948490516698354 3.9887952922599346 0.21502932779813935 1.6254097666937297 -1.7858106085137115
Ni 4.877508784178497 1.2883432411946447 10.960315809929268 -0.12770900801391555 -2.3942184628782766 -0.7865999587296969
Ni 5.313095449456412 3.504299146606382 10.799154458685285 0.3556239335254714 2.3038652698049997 -1.788946583039532
Ni 1.791872798587074 1.9949271969578033 6.017716057502789 -0.5220128746080881 1.4824152932756534 1.081605507242163
Ni 4.0012842116095415 2.9721766097892854 13.167154592211109 -0.009191179580964817 -0.9699224423428585 1.4372579800127248
P 1.6018612970203114 1.080514128658223 8.272608927352206 1.0864996021096707 1.844204217961256 -0.9132018497223627
Ni 5.502507807353735 4.079255846990994 3.828726226013317 -0.230272627110455 2.0267921374012383 -0.21308428825662656
P 6.736623937666588 0.9659670766561779 0.7098469843628789 -0.05782513853858428 -0.3147133113540386 -1.6659923161017827
Ni 1.0109028518641903 8.165415672572921 4.58378366991266 -0.5245762644598901 -0.35426716238726086 -0.12338029873157462
P 6.0617577260041 8.22512725242882 11.247077952996719 -0.4260436208996146 0.6282014920517245 -0.1970040948653123
P 6.1006744117329665 4.489254468786356 12.911637330625215 0.10598807139705617 -0.09114175041284303 -0.38167589341751684
P 7.404798175421174 2.1948291778677858 9.484643387287969 -0.1526836756813822 -1.265936377515181 0.22773160585615618
Ni 4.109673910208725 2.7126091369979766 6.159221809351169 -0.8295672063198423 0.5643887684711376 0.1128922547160572
