# total energy = -381171.5336271528 ev
CRYSTAL
PRIMVEC
9.13564220762471 0.00000000000000 0.00000000000000
0.00000000000000 9.13564220762471 0.00000000000000
0.00000000000000 0.00000000000000 13.37093581572327
PRIMCOORD
 96 1
Ni 5.811876374929205 7.357828035976258 2.9461121744725234 -0.8656783502201028 -1.0662035708647961 2.115187949637828
Ni 4.055457786607909 9.058583155772425 3.3710803286600544 0.3573612279315523 -1.9746522221728895 1.2731987155045494
Ni 3.0941050118880593 4.401689494081064 0.027144733961713657 -0.6349904899490999 1.2267779621481645 0.10088520295285205
Ni 9.077941581803074 8.285826580664063 4.690751265614056 0.08821352102245453 1.396813755954749 0.2271705911463636
Ni 2.236012402068842 7.9837108898506575 4.726706413008501 0.6360970927497174 -0.32071735145627345 -0.9046724720951129
Ni 8.01713820502109 4.469393739155698 4.1360049176258595 0.03635925535532448 -0.6004549180660755 -0.2829473317963514
Ni 7.996345483149567 4.979491462538139 6.442598378529152 0.38288739722711473 0.00478302321094015 -0.04529178195826394
Ni 0.8797139344472211 2.6607284125289326 5.318958226889209 -1.4276191713713802 -0.30627623633027895 0.6907024387994234
Ni 6.88866712573367 6.19543631683428 11.072672535124626 -0.3606242149535402 -0.17194303813162645 -0.29244498687414155
Ni 3.0168083423999366 1.7274403309502615 12.231585401679313 -1.232461128575871 -0.7784958415653237 -0.45404036322285674
Ni 6.454651031413643 3.0369341623836656 5.539739294318527 1.9626793660817294 0.7918437236271394 -0.9974234759766046
Ni 5.959736745531411 3.3460294839131715 1.6417105500563371 1.2179379952590315 -0.9142817130501028 -0.823162588345079
Ni 6.7270850203990245 3.5172040136613045 9.442996366668185 -1.283187708396461 0.8921257457783539 0.5911110149573304
Ni 3.8477955015193235 8.175468021697448 1.2180012873775479 0.2710703778531074 -1.0918027594901392 -0.9675601127582693
Ni 1.2114957964967428 4.645894348363893 6.874759937462571 -0.12612032337055698 -0.4481610216239443 -0.7068569370720988
Ni 8.335314354995367 5.471774683438385 13.116647341128113 -0.421903373478996 0.44525310394852996 -0.3433361172970539
Ni 5.4791745537002186 4.154177537286157 3.586699758190686 0.9847625926794847 1.3273173517258237 1.7321935945192037
Ni 6.304260087894736 7.517436842574413 0.8477400999664882 1.5014946785046077 0.6934753735588702 -1.8102656562322823
Ni 6.352048632758508 8.630468686377268 10.399111677658269 1.1117707179716338 1.876790893648026 1.7406759209586022
Ni 3.0984078994106814 2.3304932147205575 4.4567198625949045 0.5851051750828826 -0.9197756462851385 -0.26278139837143777
Ni 5.203369512706669 0.4608447350582092 12.66604731534351 0.15895948138776497 -0.42945470346369263 0.7938658962634909
Ni 6.961286346364929 2.693708081226737 12.758145552483759 -0.21160307572540976 -0.2018796777900588 0.21272844757910458
Ni 8.042115051065357 0.23400034183533594 7.709400439937152 0.025922890513348906 -0.21539519577799032 0.29250103692305757
Ni 5.793212257713245 0.8652129294267156 6.429374536301985 0.5392027561238134 0.042258651558894966 -0.5199968726193238
P 6.0843469064837805 0.6861114028561209 1.5589178781614002 0.13745168922297618 -0.08140318296884044 -0.05583613313301352
Ni 3.5357036893158904 6.877220165933572 8.11356399591817 0.257553317203279 1.7182641289223053 1.071590289098006
P 5.605529622331614 5.417874393876876 9.260121819828283 -0.27246185888399527 0.8095375413624768 0.43117451436827675
Ni 1.2572653644125322 1.9074033485896105 10.334837866266746 0.25368740648996957 -1.8728185392638392 -1.8711020707933648
P 2.7401902292418145 6.298148343196999 1.7285813726733517 -0.22272901043524224 -0.4859732073757115 -0.21158919176833882
P 2.139941987657177 3.450769622866171 8.807154749124123 -1.8965192253148886 0.2664331361914121 -0.23895729936864654
P 5.722182638841935 6.28220664738601 5.057703523384577 0.4371821540149374 -0.6021145651566856 -2.423813917147206
Ni 0.8360336879251123 5.969795087702127 4.290011748366538 1.372969859457616 -0.6632032049378901 0.4705273051342864
Ni 7.842811878679955 6.0773672757676795 8.703730142662117 0.030072393905348212 -0.1321801564113917 -0.23507416226415645
Ni 7.479734046808253 7.553632257361311 6.314170432660215 -0.02547911810771096 -1.4230999433447877 0.6786817601894634
Ni 3.547671380727005 3.5821858373309676 2.4579527825058474 1.4921548891609204 0.837998624916647 -0.6155223539221593
Ni 8.617569159451701 1.4384434224775897 0.84861712162715 -1.0356125854518166 -2.3107044042140203 1.2039712486662941
Ni 1.9389578570888395 2.647344696561541 1.0893942829195584 0.3396877219111892 -0.9745463142681151 -2.286317490729224
Ni 4.6229456149099075 7.405543495701641 10.323552607335333 -1.0133892552772419 -2.9507563678464277 -1.7939211534359878
Ni 1.483491274651793 7.819086615630592 2.5414808736058188 0.29209840216800015 1.0087139612887595 1.681577572134549
Ni 4.43440422915221 4.272356206060339 11.391930345147053 1.4692417320081728 -0.026318326179554676 -1.0038286081720003
Ni 4.8276388162514605 7.718758991907798 6.290423244069336 -0.21216768997962818 1.2404582878487347 -0.6774075214627301
Ni 6.1003160092216655 7.736299425121034 8.349427095218182 -0.21539056779230004 0.08515416537084045 -0.3740268615126914
Ni 1.3871376553288723 3.4001855714590397 2.996306133953506 -2.2962064677081613 0.7070970781073629 2.6721675701290883
Ni 7.967714380185877 1.493869364302958 9.924697773094007 1.6070634029760582 0.3476031201035239 0.7649263304110052
Ni 7.743936822082632 2.2562295784755566 3.088030723323746 0.5629031850645466 -0.33103981642820407 0.5721182759049114
Ni 8.152126455624625 6.7846395668799575 3.3299114702058206 -0.9682221718223002 -0.5972055578908424 0.1578852744869797
Ni 2.8031622116057937 5.973102190214205 11.02447014566473 1.2941375225397456 0.6549245098688656 -0.47708387530588153
Ni 8.84774166716394 3.549690357674987 1.2721802140291627 -1.500659327087506 1.0918338698383907 0.7634533454099045
Ni 4.900422478444094 6.956700253931051 12.454812994116187 -1.4495524811093614 0.32433515071451885 0.6525830062198826
Ni 4.2490055043452175 4.12997722083727 5.686752790879657 0.47292100217744354 1.136185142260256 -2.8396880537129867
Ni 6.066596353497677 1.290117134118157 8.815417937583172 -1.0164385836265268 0.1861686948127052 -0.1816939468708032
Ni 7.908679859652578 2.6775562656428815 7.487015153720207 -0.9618856880813111 0.7041619067384388 0.07572927251251474
Ni 8.521133319348092 8.22216942512769 9.818438376826757 0.7277762037232692 -0.3839466917295646 0.8664052010837981
Ni 5.565908341682755 1.7075063594548017 3.968520273802115 -1.0428664388007525 -0.2562055449261329 -1.2043260609025517
Ni 4.030700195978809 2.841851656740199 9.335627903425888 1.2085457554108539 -1.0342164764352382 1.3161659630946945
Ni 7.8883165129690855 8.731234820930394 2.4003507306849623 0.0942692402982312 2.167117291517268 -0.5540945856339812
P 3.607847856547625 0.30166621721231596 5.333385233207096 0.5388176048702527 1.6565345131229923 2.488280215151392
Ni 6.691181946165681 8.811865999857492 4.536959122467394 0.20428854434186755 0.40707967820260216 -0.21143312580644877
P 2.2824397362301276 4.4423156953827645 4.8800171078060295 -0.5486533600137519 -1.8200631019386784 -0.7665836635087702
Ni 8.978518386667837 4.053283503740851 9.12099695039196 1.220372572842453 -0.521774790455353 -1.5764942719399495
P 2.110397320463631 0.3054894835142636 8.76026241076984 1.0725477679152688 0.9609222957267772 -1.210922997393779
P 8.432654623686531 7.467665863331854 12.101499336733188 -0.4389292186130312 0.21315165115945228 -0.07957075774579199
P 0.47032479107142566 6.783022558193112 6.314625387646683 -0.5475940655113022 -0.19108053029202576 -0.3541098108737901
Ni 0.5215145355629514 2.092171714078002 12.38191422283059 0.4795904437778192 -1.4693543463266372 0.8249286791065664
Ni 1.7223791851168588 6.252890371249928 12.91467930188422 -0.23843716519911842 -0.03792402873928307 0.43867185118658647
Ni 0.46853511874513765 7.80076051717968 0.5897824497674066 -3.591415368935215 0.0009993877987918272 -1.0334240624409299
Ni 0.27189041826861676 6.0536785552875125 10.817702239957175 0.1596009716265058 -0.5515761900875017 -0.2136064793086837
Ni 3.5886173295091544 4.704517764993756 7.7378808048029155 -0.5560959323347261 -0.1555841371576288 1.4756347800187104
Ni 1.0343465566853505 7.616704731790575 8.173011447483365 -0.691341615045319 0.8131121460876125 -1.2105435025671731
Ni 1.5843579012702025 5.598148023354376 8.94581096011053 0.9253731949775741 -0.004375760470192464 1.0512253522884087
Ni 2.9612727728669856 6.2462030810873825 5.877568951569696 -0.796127695714474 -0.3452240783483861 2.5252051132021998
Ni 7.843962969609573 0.3859964177061007 12.226196286287394 -0.5680235370102475 -0.21266288444849182 -0.34256864300341
Ni 7.389145017775725 5.277340808398115 2.030657780224873 -1.8519614933091717 -0.5583345918572578 -1.339308719759745
Ni 5.8009410110978274 5.593324404220736 7.04037268817934 -0.18205287287211872 -0.5494066932400086 0.8440792838930882
Ni 1.397543151906933 0.3192084775540123 6.2074305016080595 -0.003199223663588039 0.738956902930437 1.157929218805567
Ni 2.1898134589650198 3.8101383839646563 11.026837190584288 -0.8164229556284004 0.308117660414392 0.43440381993885185
Ni 2.094546981075628 8.046774228637624 10.205848078396446 0.9879692725422403 -2.725875086954873 -0.8089724128876262
Ni 4.226312568875593 0.21903524618606351 7.9646521128874 -2.238178212019836 -0.09832566975579195 0.32282951270326987
Ni 0.8398962374889439 1.7798606464594033 8.003066575188619 -0.1778187801861131 1.1598750296780282 -0.44473194133773736
Ni 0.6270375990609374 5.715915588225123 1.715744881679644 0.5894498252048236 -0.6623169456781949 0.786807960975445
Ni 1.081340300669147 8.922142338043418 11.795479072401376 -2.41028142987841 1.11218338002902 1.307401329528187
Ni 3.712441825223847 5.871906680473048 3.82845991459442 0.34507983946103793 0.30135514487957776 -2.0922632225208546
Ni 1.7867123781833238 0.3917281196842177 0.6494080463574232 1.171663280562208 1.00599167726159 0.7331912040912534
Ni 3.9440303574923634 0.3800820028820124 10.431964360928124 0.02549531605762706 1.7725504010696957 -0.06524611359300377
Ni 5.16737508205034 3.067090917611215 7.28387044374826 2.2688375887769054 -1.388165336251132 2.7343597273871167
Ni 5.911464011625816 5.0071267804912845 13.035098030150008 1.118801656676486 -1.101296043692555 0.40982638770980384
Ni 3.0279538260041807 2.373047036547254 6.919071456867509 -0.8435509221934439 -0.7690220977469336 0.12162500660336471
Ni 3.915782951505213 1.2957355541317714 1.794005361430265 0.5420415111241891 2.0524962270355616 -1.619935888063352
P 2.981033167158772 8.366658743721729 12.475230241089239 1.9330970244389223 -0.11794035866292592 -0.2885055426104193
Ni 4.5580825545901265 2.7579133753010225 0.00045952280761760747 1.1951179120407223 0.16651106848277777 -0.1561351245650924
P 0.834658773759179 4.034573708313399 12.952398541806517 1.422508589617692 1.8060583030191542 -0.6835786832704486
Ni 4.727978094416461 5.759090633728121 1.4211167632941395 0.11702376038592749 -0.6001967793086824 0.767345481375459
P 0.7514321588550604 1.0081455345730783 2.649304291834582 -0.4952433198237277 0.27586368547669265 -0.15855761796365597
P 5.805134270912867 1.8632873319298604 11.080949427047123 -0.05363038373094634 0.0006456040037988881 -0.8925983145393982
P 8.078502314340524 1.3599408482060569 5.829446955762028 0.22762413374401444 -0.5739812972555793 -1.49591255643114
Ni 8.524924610901996 3.5747768314268344 11.177300305677353 -0.7121153572575607 1.2838767640436857 0.9271451992763323
