# total energy = -340870.34971793764 ev
CRYSTAL
PRIMVEC
9.25132036621406 0.00000000000000 0.00000000000000
0.00000000000000 9.25132036621406 0.00000000000000
0.00000000000000 0.00000000000000 13.54024249374781
PRIMCOORD
 96 1
Ni 2.1505619486238947 8.16384622165987 0.723639209659967 0.6136217944653367 -1.3512543221573954 -0.1544561942007727
Ni 7.690557919458846 4.302585605876726 2.238608615480315 -1.4045545762424327 0.3972166693655933 -1.6527531917036893
Ni 4.342736336570298 3.4835847102913515 9.326329217272402 2.9832011186386946 1.376250587091417 -1.1614009794042515
Ni 3.384863869915521 3.9030858354756868 4.741360006926019 -0.9344011095077972 -0.5472284546417672 -1.009176502747475
Ni 8.186012385425261 1.8471741462356475 3.1668870331913896 0.5791556423676671 0.05237979915329689 -0.34339242445628604
Ni 0.6755175412784732 0.5191600494524071 4.889584662956527 1.0741601067077113 -0.7671534199693111 0.26808095620748024
Ni 3.3362759349840374 0.022348414777986502 12.051573940079244 -0.24286640461506562 -1.663976057002702 0.6605282292088882
Ni 1.1080491512973465 8.659605981200682 7.161556315326297 -0.5050842171735495 -0.47833960208985365 -0.6861657272713344
Ni 5.687767312164081 0.5069150017229113 5.435053617465704 -1.0082257087984312 -0.7056958268844621 -0.3430137009606286
Ni 2.6326112512781004 4.167007504882649 2.1464673141987856 0.12594780234843472 -0.40802044484931665 -0.3998960159699694
Ni 8.708591722910928 5.323737104315843 8.14919490548489 -0.5257309468896236 -1.1985428785618712 -0.3919201968533444
Ni 6.530109289210258 7.398456728002893 4.909543461665817 -0.01294164776233255 -0.3834129307132816 0.8205606319458578
Ni 3.8324797579057925 7.243173314479483 4.566582210979223 -1.0203811132140428 -0.36045272237268244 1.4439091667806552
Ni 0.3039724858398221 3.031537439812089 0.7913773778946058 1.7178396397903772 0.10599064250021747 -0.19579644771045634
Ni 7.6213302886339624 0.09702137281168104 11.576596346766552 0.221914742064063 1.7520150001205053 -1.2162369534075248
Ni 8.42877628499439 2.7801235556350132 10.829838087336253 -0.18229789900338927 -0.6649911500762483 -0.025607673265775253
Ni 6.352067627413533 4.936828381028616 0.17183680118009467 -1.5609609521910406 0.5668688545805141 0.17736035249245585
Ni 7.094264060736688 7.345613185670708 9.893503619789241 0.6156444813223203 0.2835931929104665 0.37454416746874203
Ni 6.87416589623651 9.02797505833355 1.5111726639132874 -0.6645280943969007 1.4845907036604173 -0.6997743191937046
Ni 2.3085467477147072 1.213042386928993 0.19708365465077615 0.07818596158312341 2.121448328725243 0.8620811197871476
Ni 0.46287964157813427 4.847506882216074 11.151920032930144 -0.4642443003390521 0.13732750494028606 -0.6452108821255275
Ni 5.950948875936139 3.6229558526643144 11.193624060324973 -1.347024343236448 -1.419353588928478 3.3006385137921153
Ni 1.5150054859700492 5.747863889718331 3.6985983490797345 1.682392868946993 -0.9973226887326824 -0.677695227906478
Ni 6.853572456945291 2.722709861007293 8.95256477006108 0.9064372773050197 -2.0684411804005927 -0.6967638145021549
P 9.083464478310518 4.116800588874812 6.055927309455088 -0.12053871551772143 1.0349759803090819 0.5330015124091079
P 7.509306049470722 6.649423568877308 3.106632258057679 -1.5579468479550653 -1.153078061360853 -0.11582176965802633
P 8.91294414002851 7.535524291587216 8.367368795334315 -0.7888823270059704 -0.010814059896368472 0.10419575538332379
P 5.453496124755482 1.5119710528669406 12.524006495139908 1.6871951754316425 -0.6552464119846585 0.7498236704416119
P 0.4433815586265739 3.891308904560268 2.6810631917991703 0.8019885253706253 -0.04491820066892909 1.8349562170004272
P 9.30322034395455 8.04382884163966 12.815893981093783 0.262321942236516 -0.08949727283088457 0.9896546306644635
P 3.141748420169813 7.1516129961213535 10.971130728963836 0.4455462097089165 -0.4690383792935857 -0.17144655811118215
P 2.350584747777286 0.363191113084666 2.350654132680558 0.5312313078825626 1.04125410000831 -0.1405886921900611
Ni 5.52409295100494 1.2297410203165269 7.901029159913002 -0.6380894405893978 -1.1424306089493357 0.21150948757033894
Ni 6.117722429441443 2.871878151722305 3.7353464441168325 -0.2746971759724172 5.339299891827115 2.504381491588629
Ni 6.74400906901811 2.288166088793523 6.371794217979869 1.576789434582865 1.506052730188935 -0.5774391738971926
Ni 0.3136216130548901 0.32596472478101074 1.3366206001851364 -0.37373041331819506 0.5340212119228738 0.9792851145046811
Ni 1.8646498905398312 5.835150098034886 5.861652355688775 1.5548746367876447 -1.768601700834593 2.111018648751487
Ni 5.667599433612932 6.517342467008155 1.8001755881551214 0.6807167883416212 -0.5222455594441845 -0.09430883528691501
Ni 8.62373861186912 5.1369066881046255 4.113390552161989 -0.053073482786211816 -0.7731296921574039 1.0127907024612945
Ni 7.693213048424067 9.272043394084196 7.268253644182311 -0.03597101877797031 -0.7773977234051386 0.345241818960199
Ni 3.3462858636961217 4.7220774797406255 11.509679695786655 -0.2562410261497587 -0.2421570372528668 -0.6868465553884429
Ni 5.205014909156716 5.25325129391162 3.844887628874967 0.43362349012940166 0.23719686503411405 0.0981526345130374
Ni 8.928356839875397 6.422599694419936 5.992355935944961 -1.073765185262138 1.5026352198669541 0.9196044108145969
Ni 1.7350573938680445 6.445182167604961 12.596067805414433 0.09493618445826875 0.22496869839903835 -1.2957493471115555
Ni 4.2304808143961505 2.6344245100836168 6.623426433319241 -0.3472624489346536 0.6889368622585684 0.04553552253795383
Ni 4.445916313396429 0.5439480374294478 0.7123923794055487 1.0600123544524196 -0.9448863253098372 0.6862737136041084
Ni 5.069001996102132 8.373582907271382 2.9877361380743506 -0.5165490232800394 1.1930291478324937 0.25780014310676247
Ni 8.585447396583247 7.428366246973473 1.4654739163540622 0.3112958010320574 -1.2215090004397415 -2.032268072914145
Ni 1.5729742598239482 2.1265547720916786 3.518418707130178 -0.43959564855243644 1.3063368928194148 -1.0592546503507885
Ni 0.36653916595056546 7.981576706423752 10.658838530655643 0.20215838537274217 0.04337553877215755 -0.23577735897876811
Ni 3.4299363030812082 0.7334206307572742 4.353662146005576 -0.23615274004031586 -1.1154417390653175 0.40717738012273097
Ni 3.525807736762656 1.3081459610142276 9.013793709236735 -1.0132612143398099 -0.15275155280484018 1.353552631273269
Ni 6.880021982072693 4.71241910120512 9.697169322093806 1.2139065055021352 4.070846147206718 -1.6518540769281873
Ni 1.643756112482132 2.8239008039396176 11.666002032595065 0.26250371923001886 0.2180848267950115 0.6971875323031348
Ni 2.233888591793711 3.255021587591954 9.517097920593354 -1.8110624411019647 0.6058218388049438 1.1006329561872594
Ni 3.9758289680663674 2.211398631813049 11.402861174632925 -1.825842684734933 0.8494572603755499 -1.935365508758125
P 4.753966781284575 4.009624041620197 2.109664636371113 1.9375717723808241 1.6485011012955544 -0.059615397669787656
P 2.9944859014646803 5.205292448769805 8.262323752308225 0.9648743383959898 -0.24459341460850134 -0.04953513061565017
P 4.925810058388975 7.922257239786153 6.572108433727005 -0.466319694810842 0.023759050092810693 -0.8147666509719
P 3.0590971233918474 6.8337283746094135 2.4151321355934425 0.6594969597308964 -0.6980388245598365 -0.26207563055366473
P 6.755212418066477 0.42597612435770615 9.502541893018869 0.10464826953971008 -0.152777263836453 0.29203515303023253
P 6.078654103238919 4.373330453253165 7.608126804107265 -0.28942522621121125 -0.1092510584190441 0.19182949264290833
P 7.846026359390984 0.5847121306679467 5.096262862031798 -0.5782462431795202 0.8334577996235001 0.9447094334123408
P 0.15711517496979957 2.900418475268312 8.946837277578963 -0.2573874810493761 0.15494418958078476 -1.0191752658313995
Ni 8.70294841744478 5.74170251030775 13.181994634455666 -0.4703632687525964 0.7449624856945686 0.07682404823859026
Ni 6.438891269708272 6.870289592973697 7.666323160443897 0.9141930099910386 -1.4704542642590352 -1.126891632773472
Ni 4.199183597360125 3.065360267327227 0.17833677891864388 -0.9726912633372474 0.6540176817838801 -0.47749679447358406
Ni 0.3245455722260813 0.5898133087565264 8.964872726769544 -0.40612477048850054 0.8047943702505365 1.328881353778834
Ni 1.1213247961234467 7.849051541173655 2.9923257181428027 0.8231978124583887 1.0661637187657962 0.6257962250443415
Ni 7.002416951445032 7.753513155027915 12.95048404106526 0.1746763779023895 -2.3546931510901445 0.3040784573480118
Ni 4.750479033480087 6.094214824212787 9.431008833141258 -0.9359627975679622 -0.5700750202226376 -0.011604159897831628
Ni 8.221546707221115 8.60958409160157 3.414794666923105 -0.2905817084131576 0.8755855820314855 0.8827270781722734
Ni 4.3824152499216185 5.238476935174838 6.36794936920654 0.4633228169660472 0.8998526821089663 0.9321228549965817
Ni 5.294549188339293 8.645590230739678 11.070380744868624 0.7692457837219654 0.059305065518220436 0.19699175357013818
Ni 6.854155290132779 4.567164119034667 5.609058928156069 -0.04699359514071907 0.768646973795702 0.37615599204055217
Ni 1.0902958673800736 5.604255642585539 1.2698889756139677 -0.019868971009785137 0.5441796405131144 -0.11269042311789625
Ni 4.928418930752014 8.369734357969879 8.767753917101109 -0.41805468915686717 0.3648377388142556 -0.4207474054976818
Ni 9.300629974232386 1.9583472639187471 6.792746875340661 0.01375463058193115 0.33984353076276314 0.3233439904458431
Ni 2.4844421031702097 8.354821229426552 9.152391441221221 0.6119163817384558 0.7696659019785196 0.75164349725917
Ni 1.855694612357486 3.646907521273913 7.313491675983808 -0.8498077017364333 0.23730253737404292 -1.68630145997278
Ni 3.3267008183324602 0.37610503128170675 6.956610888568746 0.23907608433469799 -0.7626295639570286 -1.305351903198326
Ni 1.3860790843696769 6.348681644133844 9.12873673999763 0.26769066274759706 -0.8930405442831394 0.38772184250128067
Ni 5.204015766549595 6.148446064610418 11.889646228218476 0.740252481813409 0.8749510337712803 -0.4567317940120908
Ni 3.8657290035538794 5.6563775819236914 0.26456556130932934 -0.4628767305675641 0.33572719460154443 1.3615960704030354
Ni 0.379561324596711 1.2126723341115409 12.581105644872794 -0.5797804204358595 -1.7832927271878645 -1.651455298827872
Ni 3.8449597891743705 2.14606580689185 2.5690981610867234 0.6849033156191431 -0.8136235385063922 -0.2980301942714028
Ni 7.849088546455401 3.598634131237264 12.964620058691938 0.18677470382782027 -1.7030282858091574 -1.022181142537259
Ni 6.271553385656354 2.530541432904327 1.210727706555829 0.4432790109412946 -0.8575881170128005 -0.21268422460473047
P 1.7155278564270005 7.811740965854031 5.299569879940077 0.21310228597875558 0.38085031219242793 -0.8707565360739585
P 4.969022976146964 7.708449973182664 13.648564627755844 -0.47190464509778723 0.2865173085357969 -0.2593466616582759
P 5.897568757018649 1.1453227213352266 3.1099368297175283 -0.9738778274461808 -5.497049669177494 -2.078800926368362
P 7.415543916848752 5.769983796881541 11.473445974165816 -0.1588358113257071 -0.2860167147502945 0.7178090652082283
P 8.060610736911121 1.4738001047467384 0.32096993687744874 -1.9960011201623107 0.3125039624075457 0.6055737273498796
P 2.1499328588342257 4.1895159675041835 13.296951542197217 -0.1470503886550048 0.39466124993359125 0.23756504700681022
P 1.9024230318812718 0.7319348686952033 10.702289207348846 -0.4765352018912632 0.7388337470890115 -0.9630200587960706
P 2.1794908276282263 2.169795443810977 5.6753520401385575 0.5750141093954677 -0.49435834611561313 0.0683563770872113
