# total energy = -340861.686204074 ev
CRYSTAL
PRIMVEC
9.34420771367046 0.00000000000000 0.00000000000000

0.00000000000000 9.34420771367046 0.00000000000000

0.00000000000000 0.00000000000000 13.67619251594739

PRIMCOORD
 96 1
Ni 3.1482784035990217 8.456320849835253 0.21979818510703522 0.1107888352198092 1.2973174629296238 0.4684020312611675
Ni 2.280584644847611 8.728106467460291 7.147301108072467 -0.761886772253733 -0.7619389656479071 -0.8847387092856634
Ni 0.8322493110867164 7.451753140490031 12.931892527268419 0.055925350412710136 0.9688230386310928 2.429310935706036
Ni 4.289178099506484 3.0212439034404435 6.842308046044077 -0.18852922462508176 0.23589614394481953 0.7437093300137579
Ni 1.595504732113052 4.160461642008549 1.48325183370518 0.8480215563702879 0.8489065300784024 0.11839312992962837
Ni 3.3940871245384527 4.606750333591768 9.728080564427582 1.0144228387480787 1.1439334187471073 1.760352059231291
Ni 3.0376616759140456 6.954089996396929 8.70570279570007 -0.7258507045657822 -1.867385798284042 -0.5415658570393511
Ni 3.8860129252628632 8.969551443524837 9.287693674264014 0.76684334492806 0.15607187542732476 -0.47913458718732316
Ni 4.533949613419979 5.11832700256432 5.872474624598044 -1.27856743601563 -0.7480470381571633 0.24025647779604428
Ni 7.48409344244287 2.4084134026386628 0.27752296099373136 0.5229757527419897 -0.7646429948426314 -0.15681132469651057
Ni 2.8880048495411295 0.12514416699329112 11.247573906692164 -0.6597820950714831 0.4187005502709822 2.1050711729188003
Ni 5.115028497337695 6.983309333064518 0.3442499463289581 -0.577569785937786 -0.40982973014391355 -0.4077494505761171
Ni 5.72198149165917 0.8304972721915539 8.147536842848101 -0.04563451000966334 2.345252060281903 -0.5947959200080852
Ni 5.297109723530417 1.0458036967817648 10.553219868072544 1.248497098992811 0.008967493605932943 1.5094468434721486
Ni 4.009515315008794 4.796690038242259 0.7055250386151748 -0.9215376232815679 1.8156009524022667 -0.827909101891129
Ni 6.671427721310721 4.409363295610907 12.942710316222708 -0.5164873168041686 0.9150741270444112 1.8240922777027295
Ni 5.010606979186012 2.7543733389292995 12.407260131659488 0.21926573447699013 1.3917574244777644 -1.454400296119966
Ni 0.622705459225288 1.1129511714518305 9.359233860852031 0.30644412936671095 -0.1459934081454002 -0.16246415210691373
Ni 0.30366992225476364 0.8569292317795326 11.825502858281565 0.1462626026463868 1.5996599114231354 -0.16597293659112058
Ni 0.5326712172703082 2.1700520150296025 0.5213077266014706 -0.26805704494808025 0.529466759782972 -0.26818894254025427
Ni 0.27473932159709724 2.112351534082253 6.889928930424964 0.2891912558235342 -0.9528274345337849 1.121382530029785
Ni 6.1792402827779656 3.428997083537529 5.246529528653007 -0.2182907721582305 -0.38825123264218947 -0.2872788692921698
Ni 0.06647095405134705 8.07578734601341 8.046729664134547 -0.0848147797535507 -0.7200364118768502 1.3204728180001646
Ni 8.578010463337655 5.633968401773649 12.804922502141181 -0.31371238089335 1.1005817912343498 -0.11762694118756517
P 0.4849064320948315 5.9039132105328385 9.169039059338406 -0.03616616550791191 0.8231816145084725 -0.05633955513199329
P 6.509389820078657 0.12915843850988729 3.3017065520950712 -1.2441658186073088 0.6097669394956209 -0.17840499170688628
P 4.194166198247754 6.5751169752177105 3.871497633424221 2.8017645391943358 -0.8512390348663211 -2.9400325536710206
P 1.6867976388103165 8.472196658277284 9.720531379236109 -0.2665004990942378 0.20174469487409125 -0.27381297359525103
P 0.9225769611553394 7.271026824376235 4.4757940695702585 0.561216284280427 -1.0010803560029016 -1.2025003205477225
P 3.6172081098114597 4.736158262440327 12.073150519245358 0.3372752558149546 -1.7695170135600107 -0.5180181516263982
P 9.036708262402344 3.320622965638361 12.347631940717086 0.38348337893990087 -0.7428981469663721 2.129166009084475
P 6.983776543436561 6.597384221549295 11.353796988038445 0.9868441577988617 0.09006728640174166 0.7243093282205912
Ni 5.474892614300341 4.6285129927215465 3.2146577844174486 -1.6069222494125035 -0.40704831074403447 1.8450745363813514
Ni 8.950190245707363 8.357917001275489 10.668729222773557 0.3430553528318414 -1.239658674765575 -0.7878613419406237
Ni 3.8423100670619306 7.614379726790869 5.57726027565652 0.48192217723478936 2.2812717007752 1.0886228191002605
Ni 6.390419370941546 5.442898048022815 1.4247038331429436 0.9531879031969971 0.7681507508855739 -1.352535245752348
Ni 0.8903600027407204 1.0160050192528418 4.614921842998806 -2.3933396598177494 -1.0596328596258138 -1.4057162006507016
Ni 6.817477683611462 2.3120372470935675 2.9854303595818346 0.9674652390516176 0.6283105068257631 -0.694888708966629
Ni 7.382232237129985 5.435460058899885 9.59062073202723 1.6189848370039925 0.6369612405222256 -1.7356902948185526
Ni 2.604202581147136 5.886934785612785 4.92312837796611 -2.7553394149625774 -0.9370891978629217 -0.5450998383345386
Ni 2.6403272871135255 1.304096278862193 7.952760576426219 1.5532371011842216 0.2112868300365716 0.08198682338645234
Ni 4.981284856236575 1.0808351304775727 5.715786282125876 0.03463327380315326 -0.539819820882522 0.29286716201322466
Ni 2.2327142701280525 3.311605805457925 8.452392545027113 -1.5704506368490307 0.8796219568843884 -0.5775029372555924
Ni 5.410800695463438 3.1573516290241033 9.118204702018604 0.021688540717027163 -0.38228910152148354 0.04403039874733707
Ni 4.589669122389864 1.8797742108790887 3.568282774071828 -0.40449520530487754 -0.06384409103915456 0.08437126445822889
Ni 6.286876208289306 8.668032557822963 1.082895528218284 0.8239058942690068 1.8926389164238757 0.4346105366330193
Ni 1.3916888794128746 4.678084013195342 12.680442708296937 0.792944412890486 0.1154582156710205 0.04240417599782375
Ni 8.597418382192334 7.188508128465943 5.848131095373099 -2.002253785940242 -1.9595593323955087 0.9212411750870715
Ni 3.254568763238877 1.171651482595353 1.6522203335961343 0.30457365181687546 1.141687045915092 -1.106550864333591
Ni 5.439870524811973 3.0633956232061914 1.1268226473977967 -0.41255612793614105 -0.9007101450132553 0.40593373752361706
Ni 0.4176346794658022 4.464858543602213 7.5488207673857515 0.6734048280612404 0.2384914154758215 -0.30337114686834205
Ni 7.535692155931333 4.590229774836317 7.05326380764982 -0.4736586516744165 -0.06540192244457768 0.8081915688575436
Ni 5.741613671492431 4.718170663116659 10.896752179270045 -2.1072967198152095 0.3015999139005322 0.2680588447202932
Ni 8.463599987431687 8.48639050937996 3.871032291893666 0.8271138596833433 -1.076554832192133 -0.08452141688284798
Ni 6.475161988222764 8.574627860244062 6.544755776400848 0.924297445414892 -1.2473473016590841 -0.6102860452238845
Ni 0.6405893378463621 6.58233070336206 1.7933047840627996 -4.636316064557176 0.08999606684417404 1.4244379454299207
P 4.446441110736265 8.79711343941109 7.2191150799385015 -0.57674600448491 0.28985228644630084 0.11359519432035275
P 7.090029526246653 6.761786207263898 7.718692852136237 -0.013464610145338103 -0.35714705503821714 -0.3954099551741578
P 7.064575905177732 2.3960977372316012 6.892117343807614 -1.0875974631595398 -0.02810704264886127 0.28847674625501285
P 3.6097514322736486 3.4315106753391227 2.3462734887361574 -0.24415658418139885 -0.7595648089887757 -0.2847085374618323
P 7.538598204445443 5.400288462092464 3.4640976643683996 -0.12280154340996915 -0.8851531711152627 0.07491886079607743
P 1.4723107012126697 0.4040706279446406 13.565934378960964 0.3684588805066106 -0.6775098513685494 0.29835852414509906
P 0.6321627315761889 3.3247250727049016 5.346543384154832 0.4614258570536505 0.5837239784646399 -1.934788553208732
P 5.03009899590766 7.799647327720927 10.84326500145778 -1.4323237759359009 0.7309659143051604 0.9945695514675774
Ni 2.234284096978118 3.8941610741512984 3.941752057068375 0.35742396284868766 -0.12189677220751266 -0.9725495955530605
Ni 7.0209758332586505 8.893956805328228 11.958353193151337 -1.6071443927256386 -0.02923370005413675 -0.06054896522765056
Ni 8.522440461686823 9.24967209418713 13.606921810479582 0.38529754933050414 -0.8902601533245248 1.8719230240327633
Ni 6.480058352921778 5.883393330992696 5.556650691724945 1.3750061731613545 1.9211179977001753 -1.3887996274010213
Ni 5.387907387233316 5.32852494894661 8.349055889359315 -0.7005505352380966 0.8103996322524558 -1.0157844949822958
Ni 2.8485536057257916 2.804411569775139 13.337515228068986 -0.26307527546277276 -0.4219249707455508 0.5160438015088468
Ni 1.8472657131923147 2.5823838567727133 11.00415169633313 -0.2416690418728548 0.8819840293586618 0.3054858792184997
Ni 7.843153957565601 2.858159450975003 8.805252244092085 0.435865749196359 0.39576553874136355 0.8990659245416129
Ni 7.20195444297335 2.8132511900141983 11.430178408501574 0.05849336825020249 -1.6564846337216632 -1.8847003783030896
Ni 1.5289552867192016 6.645703118226016 11.079206239339657 -0.06741458199923228 -0.8647761501208076 -3.115064772250932
Ni 0.3196737463387355 2.6959346655941214 2.9014315412129106 -0.7001957230018393 -0.20414970477115807 0.705116043121592
Ni 0.16290971578629665 5.134427071984933 4.20932717482056 0.032824245618872504 0.3303312203969537 -0.037657662451773856
Ni 1.3506397761251485 6.732239823335879 6.607980552787238 0.4701362403434548 -1.4294708798681381 1.0157518419721474
Ni 8.110510420863669 0.6117708676779862 7.84876702297533 -0.7934218667475368 -0.10658842398521644 -0.5803627753018907
Ni 9.188261962885758 4.24901669592564 10.49971867394912 0.9085327263814675 0.11673528261123121 -0.7148258142101882
Ni 7.542700311511983 1.3612641399854135 5.074701701285147 0.17215412570116803 -0.7669701003139113 -0.25353314030029245
Ni 1.3211774900640967 9.256371890922232 2.1940582183659325 -0.042973675348048565 -0.5232693727230084 0.24034209553131508
Ni 3.4270815210121515 6.7666638835480315 12.44737294536164 0.12861763587111397 -0.01799489391552385 -0.6194260598519397
Ni 8.377642623183158 0.544177674312991 2.266501055392737 -0.16509927573691568 2.4032018973238096 -2.187637008737174
Ni 8.530579266367818 4.441563434452132 1.6023166593374434 0.06700783347911686 -0.26114566254022764 0.06477097372879813
Ni 4.086539616943855 8.416654689248775 2.4785089747563225 0.4001400136599754 -0.8148193585867064 0.8053880379704775
Ni 6.47415281381915 7.231164435433499 3.3494227473918556 -1.536692052341347 0.3090453144349839 -0.26503059941693063
Ni 2.6207605167323518 2.0471102777301238 5.197336014159822 2.8222179219526815 0.45353642700324476 1.9865872830475788
Ni 6.64230182671754 8.543698533614794 9.54488831197014 0.7211612695099129 -1.406210623788617 -0.6594326821518643
P 2.790712961666829 5.118850278181009 7.199024099519894 0.6555539159227485 -0.11871966003111169 0.9119654062121002
P 2.4336894837662064 6.612241511380273 1.208204153262534 4.590767686503416 -0.0870315848992114 -2.016447818052437
P 2.8738296868533353 0.13672911537847723 4.084517530453652 0.8457520436098207 0.39439899741114015 -0.5676391570876353
P 3.6538093703573336 2.2217348263850347 9.972050345342652 -0.7050625641758373 -0.4844904521825979 -0.6463151709332997
P 7.790424594976792 1.0346186804750477 10.073090194821484 0.14919854534625918 -0.4745508244713827 0.8093063991882772
P 4.773357552262415 0.9699006997396071 13.312323244808411 -0.1841076985186184 -1.7383166766978062 1.4126144704324317
P 7.8375287446862 7.136601056131931 0.7505314137541077 0.5129718474517424 -0.22083282185379385 -0.33235236459204054
P 8.944406181301467 9.206726116788909 5.7840447830606605 0.11603362855851629 1.0419596107157667 3.1043088192860084
