# total energy = -381179.00087538344 ev
CRYSTAL
PRIMVEC
9.07367774611417 0.00000000000000 0.00000000000000
0.00000000000000 9.07367774611417 0.00000000000000
0.00000000000000 0.00000000000000 13.28024456285002
PRIMCOORD
 96 1
Ni 6.6747062474576655 0.6410226687987596 7.82300738954685 -0.022331830727980895 0.08792761435091954 -1.7330320312600993
Ni 0.6654118072610761 7.768501807217472 1.5580511899314147 0.5347051253637759 -2.5867285265279776 -1.9324529630970202
Ni 7.033497613608531 4.364475299277508 4.693171998387948 -1.1194752857047432 0.42784082200935347 0.5663831731933472
Ni 2.300367860450502 1.9511310769853083 6.300931517214823 -0.6100600452560074 0.9146316401903538 0.2136044224261547
Ni 0.5250837511670594 5.744509097785868 12.466657069433502 0.8580015504011352 -0.8505803182363996 -1.2214580925971479
Ni 8.589805750041448 5.7563320999125835 5.936508119275735 0.08496493217816979 -0.3152450154877926 0.0320588282077577
Ni 7.883673999078101 6.440405740231231 2.832091729005382 1.7165905978746243 -0.017460875788924766 0.3312244216351844
Ni 2.3828748123601127 0.1286847127870319 7.715330962887204 -0.10254202182998468 -0.8530994851138276 1.969900566420517
Ni 2.669221935241834 8.54987249420133 0.42844726824308094 -0.14086045779420903 0.34704364805562815 -1.153930639169135
Ni 5.6392998041103 1.6230722574216907 4.061842739544653 -1.4139177626248873 0.1956709778761856 0.5202082172991815
Ni 3.340556131979585 2.0302898417999398 0.7889444858136114 0.2069306099504049 -0.8263011339740608 -1.4099091556861267
Ni 7.193965604867902 1.6870144646258067 12.397466647010589 -2.0851263543657574 -1.6863035168553089 0.8226838489364476
Ni 6.620264180872637 8.492200198332256 3.144111008385274 -1.6947477909679198 0.6262194286246893 -0.796329527312635
Ni 5.903733995191548 5.397032607806923 0.772483926981628 -0.7508922209154424 1.0064099957459314 -0.8705120241633201
Ni 5.96651477164185 1.8247256720526364 1.7946654849877128 0.36930657321888655 0.2467379717553299 -0.7907224655385028
Ni 8.54291298335621 5.766567208430568 8.518572842753821 -0.6385111015078487 0.04802743572187213 -0.15815112655385663
Ni 5.6166881991219855 3.2944437015820656 8.144256413948458 -1.410735508242164 -0.6562113470010892 2.385212402724924
Ni 4.735833709131753 6.591745611659846 10.385084615646019 -0.2964564220263798 -0.10693372313977713 0.01619383615104308
Ni 1.8892758156669518 5.2462099360108665 9.674246348026395 -0.6865657909232306 0.958252205093782 -0.42032600168954715
Ni 3.394009167688319 5.380654619442594 7.644361192254738 0.6138663063759751 1.1423928137328647 0.8170870715749605
Ni 0.9599225180272226 4.326320484279168 7.311252871015359 2.163384306837397 -0.2479181081063601 -0.4426094956780958
Ni 2.1028338955244905 8.460424178802128 3.3189589641653043 1.2070339467520181 -1.320405455097339 1.457599005562922
Ni 4.942341541366529 5.592552216269289 5.701646858763476 -0.09382109701721907 -1.119609240179446 -0.4477234198658934
Ni 4.337435739540278 9.009526862378726 2.2491950399639045 -0.46118083092237994 0.04438084010822034 1.096331500598428
P 2.5436785296967583 1.0448158471888105 11.99401282416892 0.36600784786295676 0.011455035914477047 0.9349929774555251
Ni 1.6440868951235117 2.810698718940795 10.645005559407368 1.1373665641628672 0.39058579431263696 0.45839349798522994
P 3.338605291260288 3.350038125243144 7.8464465139472575 -0.22107090600652896 -2.3838065235163333 0.001855822261816159
Ni 1.3044591364105755 6.683335315011392 7.252049845707469 1.2603874226724938 0.32438348745395096 1.7244651155266946
P 0.38061356117369843 7.067923147045797 4.323981290151564 -1.1220553877270933 1.1549541953376432 0.985028958966994
P 8.596130103443077 1.1365779504178761 6.8152221286814 1.0368927377158206 -0.22022475595614974 0.3408958832866774
P 6.560568454862153 4.835898227515035 7.0141870125908214 1.0022417233008547 0.22737705073021486 -0.8369269891190232
Ni 4.50008141346305 8.860328378902455 10.906135117046905 -0.865637212569522 0.9725645079513959 1.1553005229334683
Ni 2.9594798132399136 4.754543632681474 11.689962048601524 0.12423776163586346 -0.045550692046605425 1.919031290374476
Ni 2.3759788172593423 7.181244308642534 11.539975062527546 0.08777463371282303 0.4943344348562131 -1.6533381176728816
Ni 3.532800142769085 6.718532111058614 1.869725669556268 0.6254162159971035 0.9720829403292872 -0.7756599147784254
Ni 1.718209768779028 6.121375230042963 3.0852128586502605 -1.5390482112783495 -0.6020502875776536 -0.44380531575840987
Ni 3.937585981506536 3.302700748347462 5.242482469185344 0.5646371370365179 -0.17104598023865378 0.15113124359259777
Ni 4.180234272276008 6.62877529061543 12.800309811338733 0.41620812286643166 0.4609057228841223 0.8029845707353074
Ni 0.3820272401693564 8.014307737848876 12.37605911906158 -1.166514903592049 0.8184847232534355 0.1019216146371664
Ni 7.797392397218595 6.59356034721268 0.41244765224151747 0.32250683925652845 0.7337388490646074 -0.4269998141652969
Ni 8.556097037147552 0.3689765694411486 9.12379350119849 1.4871175838473292 0.7895132757217499 -0.286677488262745
Ni 3.3335331053901163 2.0424122752928726 3.0732473997826477 1.474888645881305 0.11158150632443364 1.3628973057129625
Ni 6.301106639195671 7.514384387754088 12.019962635206673 0.72237148776793 1.221510028881006 0.018356391020000643
Ni 4.110421395558473 4.332417995736691 9.77696945399458 0.3499811334173973 -1.0552470718532923 -0.49788178588783927
Ni 7.698616341077824 9.060194279013858 1.0202270878156823 -0.16870370525872236 0.27817073634331446 -1.3533261170847595
Ni 3.5444688923738092 7.597490202396134 6.606934948237068 0.9069890360434314 -0.23045543254522247 -0.021279992424698836
Ni 5.649063081384549 6.128570656509951 3.0992507455192104 -0.5785144092392424 -0.06830495502398559 -0.5321193669144706
Ni 5.28088953242553 3.046178804276572 13.129221556612183 0.6783891686497091 0.9073711019731987 0.6504875571434345
Ni 8.087949706582892 3.0968462209117047 7.777003843282501 -2.1539038781507873 0.25058022831955556 -0.2809264447115807
Ni 9.034670023463244 4.286078723395067 3.678893613714456 1.5720940859897248 1.5168580483345555 -1.2671345115883403
Ni 4.951115787764483 0.32174626194308353 0.028726356433590294 0.6202860938593898 0.24643998089893684 -1.2293107558723475
Ni 8.508215239586018 7.90716575080954 7.151079774283323 -1.6220043405566065 0.8377466568068411 0.2701095566017348
Ni 4.583568322571192 1.2069715425123178 7.016298457406544 -0.8973831375225513 0.1865535889559497 0.2595873169141723
Ni 0.12472223770741823 4.954745258870152 1.3831106826381898 -0.4979010691615489 -0.390219926332786 0.054113751125268096
Ni 8.348291668992498 2.4279709908480447 10.636028062627497 0.9425558774044477 0.11946656549946522 -0.8689840175545679
Ni 6.036962805802877 7.031873425288744 7.1783443612291045 0.6264742249479727 0.2432063044529876 1.2322976064148132
P 3.033121781973929 7.246602009577861 9.179477754269433 -1.6410225335303221 0.21488174647668154 -0.33731845034806424
Ni 7.899843292853854 2.1835170382035023 3.544683031169044 0.28277532499486135 0.2141726362247989 -1.160348626880337
P 5.901610754594732 7.781640492619992 1.1681171469583593 -0.5462455219032076 -1.2628202004837026 -0.4321461342529267
Ni 7.454298493599745 0.47065166562757144 5.042176495702379 0.5506601060311355 -0.3094944861572605 1.9482847879229543
P 8.39726230788573 2.1454075915939823 1.2902742559618465 -0.38119998222236284 0.8770667945627024 0.0646771284634112
P 5.51949096291218 8.537396187275593 5.5944758359552935 -1.4827870747927752 1.6632484348080583 0.7358440683330681
P 0.1427915596069892 3.9292926400300834 9.395693514344098 0.5138668484621859 0.43001263284969166 1.0096027916516161
Ni 4.1791726519776 2.3838456958808787 11.36026633756925 -1.012997419155462 -0.9546282351879496 -0.5289157723755085
Ni 3.5178920902025514 4.95706812037778 3.4993708991503243 0.807906690627273 -1.4642679329426653 0.3689026529122485
Ni 1.786870288420513 0.4408491710111504 10.08007747444228 -1.5262166067313199 -2.3167776069912938 1.170885778966235
Ni 3.9737990294633443 7.234815302162202 4.250860150521213 -0.2511016480406643 0.8000267736585641 -0.12956251628288654
Ni 6.329761313574925 5.456329091995784 9.128508184164751 -0.9156911918031199 -0.8332202296913974 -0.9618576630568533
Ni 2.5212302509081983 5.676574472365516 5.564595307710101 -1.2397864585926908 -0.7307414569991802 -1.4563018840180533
Ni 7.609431162333784 5.686791433527974 11.019880926763005 0.1485799379256538 -0.08237865950823232 0.56986367554278
Ni 0.3493474823339166 7.321105977699473 10.024499383401176 0.2527116728402615 0.34023279578138177 0.2637810432805457
Ni 7.485439355686381 3.89302515000669 12.890031244438635 1.4658453047321143 1.0669052249175108 0.3182385508984777
Ni 6.252898189234628 3.405986422337025 10.643186287015652 -0.2513081076245156 1.744454414164428 0.5204565858645617
Ni 6.215795920856931 1.277537534484279 9.99202922752209 -0.37803418289987156 -1.2963018771809158 0.11886775557320173
Ni 1.436072832379882 0.8318566300637071 1.8783710697299707 -0.15037456793223133 1.3498083337394882 -2.69480484791263
Ni 1.004292802294021 2.108867891237664 8.41391159921521 1.106563205628765 -0.8829332806458083 -0.39400870395125687
Ni 8.815368305580986 9.039778504044474 3.0257975092826896 -0.700255372595181 -0.27379754697628333 2.873970886155257
Ni 3.4763074250093537 1.4624409399625642 9.258083024740449 2.1403595638074493 2.188640510301024 -1.0845946717774742
Ni 0.05074272816057582 2.967464649672385 5.485112612599289 -0.7968771722859889 -0.7593884313119115 1.847871125289882
Ni 6.198628522527119 2.6775424977515794 6.1596162449800635 1.571002652697759 -0.5754668806621702 -1.9535028417887839
Ni 6.755089958770459 7.060918267811857 4.999109191562515 1.9277396167817509 -1.2591964876881865 -0.9414772996282883
Ni 1.279397638425934 1.3903505701262222 4.140727479290805 -0.1095423644072178 0.8284814294548314 0.9761987622698737
Ni 3.8375577578343103 4.468078551988818 1.1257122212952806 -0.8288645238258628 -1.3607337224027403 -0.12298332040347207
Ni 4.83858403613323 8.359452292642429 8.652955825176752 -1.025602766624298 0.7377736812556133 -0.2790433687562549
Ni 7.111993999946378 4.131717317270983 2.152581241234336 0.9340874349221204 -1.3893022780690525 -0.09146056720484248
Ni 1.3485935050555053 3.350927345664033 12.962129780584965 0.1044037576290718 0.8261072727956998 0.022248269875239104
Ni 7.005968075272035 7.756261415913606 9.331271309586256 -0.11991419455984509 -0.616107537001668 1.270153243810006
Ni 1.629233284623563 3.037504368334024 1.993842692956816 -1.4776970618643777 2.5745199002769277 0.9865135139323202
P 7.859057111303903 9.049224202596976 11.095856645417964 0.0331821431789235 -0.49456943368515466 0.7645846308008704
Ni 1.3012833491931157 8.549836199490274 5.901089925491068 -0.554698023545935 0.5303895287075575 -2.588023848300633
P 1.8717999122931577 3.6176299561863234 4.452972693247025 0.7878443726597593 -0.3439740079913689 -0.21148377653872613
Ni 0.344797940302961 1.2540094880417825 12.816976342655963 0.9401935478198582 -0.4477758703703837 -0.1528741944256335
P 5.361608969815598 5.030065857990539 11.856443166115211 0.40967546395423643 -0.5865941009235832 0.09073731588557277
P 5.3910893488713905 3.9686270331377664 3.3229032918893897 -1.1017264463617542 -2.121843250170816 0.37071502353063895
P 2.0097924037306765 5.484058251243092 0.7340324027203987 1.1104072619652037 0.3032425917102778 -0.6858281414262575
Ni 3.6427277488820216 0.4294254107060586 5.017475222724975 -0.31550726801024376 0.11065102409036427 -0.8866719217526342
