# total energy = -340893.8303292368 ev
CRYSTAL
PRIMVEC
9.05345233563945 0.00000000000000 0.00000000000000
0.00000000000000 9.05345233563945 0.00000000000000
0.00000000000000 0.00000000000000 13.25064263019988
PRIMCOORD
 96 1
Ni 6.247298395438523 2.0570439010239636 11.383096330651867 1.0639592549153096 -0.6569618520138686 1.4240245120415862
Ni 4.488656275040276 0.2817877907098722 6.117993371421267 0.3128963127499579 0.16051499880034292 -0.4867501947510521
Ni 2.7104949119530413 1.5206268651600758 4.916783159859858 0.2895995470055464 -0.5802655876023942 -0.5755566121624991
Ni 3.4912827264167277 4.431610473471021 4.934526115250339 0.24180685300229968 0.199754661027256 -0.03751033824063217
Ni 4.944388945948569 4.734095360985761 2.3150727174348047 0.4124422280660961 0.024575889567151222 1.0404879112662466
Ni 7.291768001793108 6.00377864133444 2.374065011201709 -0.3199136246080555 -0.11033529262215837 0.542525135628827
Ni 5.38044846548248 4.481386353018357 11.324899835322979 -1.0599573328447678 1.4126183270871737 0.9697545493064267
Ni 5.400990748256744 7.912400248924605 12.59050815688951 1.1316427743052124 0.41189458309274224 -0.6086922183742033
Ni 1.851566752568828 6.6085764007743615 0.6026973585568758 -0.45110467763330053 0.45806568233216594 -0.7865619064029099
Ni 2.756748998640444 1.8478819975714171 0.3738097937078691 -0.28784965419397524 -1.2538251960739437 0.7694944093976619
Ni 0.21127860054933978 0.27763225620419246 4.990602292101603 1.3929537587787106 -1.7200520740606633 -0.5359937622682124
Ni 8.54648592585009 2.344264668328299 1.3770201028887412 0.2967857803413405 0.47413867663462855 0.337304052170361
Ni 6.811292246344459 0.6741272847941567 4.92507793265747 -0.7238473009825083 0.44735060990750697 -0.7742915736759891
Ni 0.725558135382099 7.4785497716987255 2.82122044160743 0.40513592421267 -0.22622673917585556 -0.7123750386768505
Ni 7.681935572722899 3.7359251085789893 3.829660930056126 -0.3362244459529371 -0.14514057322680166 -1.2441709608136315
Ni 7.737550928863183 4.1654480357096295 12.206027964557686 -0.06499697369667515 -0.6411819634717925 1.331338814180391
Ni 7.757848768431232 8.855109053876488 7.077671966955822 -0.02874210512969889 -0.05506043130925357 -0.03201049146832552
Ni 7.0115455529482285 0.635259004315324 0.33981770252045046 -1.1751013597094795 0.37330772395847966 -0.11416135123646791
Ni 1.7590404722898585 6.4140539293385554 9.18200566958538 0.6316691388853508 0.6191365536359789 -0.05200030432669109
Ni 0.19010257612932907 4.730645995742485 1.4841115768773785 -0.25586204554378517 0.28034023319080753 -0.19763992867709831
Ni 6.38034792723693 1.895901507414827 7.052005430303094 0.5799228595509948 0.795519886927146 -0.038880479115281426
Ni 3.253919319728468 4.508438067839644 0.5407020347343416 0.25035371413104623 -0.29293581046763095 -1.1295671227231063
Ni 6.066844988538286 5.385020458783935 4.711424611626998 -1.3912393471907654 1.5508968830868193 -0.6967977530638838
Ni 5.127857152392142 2.762298764766766 9.396864910433184 0.7711499427232138 -0.41274638957007626 -0.6637940444443535
P 0.6044881313787134 5.596907451313191 12.231283474485888 -1.8581375402128968 0.1482912030406414 2.0576217211875854
P 4.056978626314098 6.1382405116576555 12.543058109182061 0.07170163941036038 0.08154973584903374 -0.08450213360913834
P 2.5182176966335943 8.66334788532572 1.4963953006623594 -1.1755929546339172 -0.30435536515848227 -0.8367400699191976
P 6.128055378065302 7.792668345138953 5.8064179126708995 0.8904005355571311 -0.9638417833664173 0.9978603064037072
P 4.593259860396755 0.9941414662302416 12.64903691390981 1.4146075896030605 1.1412607570109508 -0.6712214472566762
P 3.9341051746559597 6.107694164332679 8.25897997480517 -1.135906691787889 -1.4166529021678633 -0.5458547142226922
P 4.700289770911234 0.8835490223214597 3.7465393758000323 0.21318121884580707 0.9287675653711037 0.8959060387563925
P 0.05002122809876063 5.56736603716933 3.6429461556959155 0.24200354239413804 0.5910194836847886 -1.349274315612889
Ni 1.586454515248959 1.2187666658389997 2.7457454329798705 -0.8174688803944115 0.31403633989167207 -0.32098268930251816
Ni 1.879523812598325 6.273173161489138 4.741331785234976 -0.11938943240462663 0.9313216992515252 0.19194904893990813
Ni 6.18680322862599 5.491860246804691 9.183848047084085 -0.05398468174657155 0.03797416525092815 0.5403792929304178
Ni 8.712082617883615 2.2089427200572858 10.31337211971429 0.04170560726890237 0.8953820479321224 0.4615320436142116
Ni 2.110124290581263 5.281421806608569 6.980159950615245 0.35210512173893554 -0.5351982629501104 0.03546142613140344
Ni 0.5210922575245327 9.203829921174467 9.093729985058951 0.396814034610536 -0.6247251034673499 0.6403458407237423
Ni 1.7037148266162008 1.17217760142456 11.518942473798434 -0.8391119125854839 -0.23638902442083803 -0.3660656976840857
Ni 4.087923325530685 6.896186466518227 1.5080950767880454 0.4832280405304066 1.0246234334301643 -0.15342698160530996
Ni 5.584305046014921 7.423731119341665 8.019951638279013 1.0062320754071703 1.3955839973127062 -0.47443821015291837
Ni 5.157443833796416 2.7640189206623633 4.935877795646196 0.32218699402326445 -0.44422877644907366 -0.021224970817047318
Ni 0.47051424212272347 7.358998936954714 6.543710227296597 0.11741893894181712 -0.5174139423834959 0.6899074537019538
Ni 5.118948555543365 4.47473206573802 7.212960417454131 -0.20762197959047465 0.30619036148469203 -0.35671099594206307
Ni 8.02741530417549 7.242508169014451 8.952439095830215 0.8988993170567615 -0.0542631322189388 -0.10694477888337066
Ni 4.818473534390848 0.2542453787857351 10.487021857374835 -0.9899659912572951 -0.27759789455898 -0.14253090351809647
Ni 7.892962487304356 7.3431282354548095 4.50230344870882 0.47963698074503847 -0.6520651860431996 0.6060712358115885
Ni 7.3495199726247655 5.902054053740067 6.793630772022717 -1.231987274263246 1.5022099594040774 0.9221714002108247
Ni 2.395126962125486 5.242564390272235 2.647796134903729 0.18623400083300184 0.3163626740320035 0.03621913023303439
Ni 2.491147874908142 5.155071829350908 11.370495736044013 0.10127292530957396 -0.5430699523887035 -0.44312988695794003
Ni 1.1762335479573367 3.6294384051894357 4.021013787917992 0.786340277310407 -1.1842529443017606 -0.687224507553152
Ni 3.800412847759723 2.6709947005188783 2.76840350750572 -0.39167825604586737 -0.07227679518754004 0.04573941101864381
Ni 1.0811089269308072 3.2125812575216406 8.26269007946841 0.7697461203971517 1.231895485880388 0.23639648062000576
Ni 3.929252524339959 2.4289597125562596 7.28393133367085 -0.9360419875453299 -0.06693789947312988 -0.8593855752328554
Ni 3.88158609912775 6.9648931143692145 6.102146208896775 0.507684630910874 -0.7547861566532098 -0.6024655207382011
Ni 0.8142366985261797 7.476213981061546 11.232317423641101 0.03714318470920055 0.06876698226206866 0.45944970716388617
P 0.1388039059417854 5.578655691915697 7.959567828927091 0.2607229731805123 -0.2612708752641823 0.18472784860112057
P 8.54271968978394 1.7753728998459506 7.938141929229615 -0.3139196118081497 -1.8870729923003242 -0.05198487770772338
P 1.6999214301938046 3.139356937081689 10.512384198037605 1.1276688772591288 0.6437145000856592 -0.29595094314487097
P 4.08708135448705 6.368768562023936 3.6926622824595094 -0.6645252661834233 -2.1929918452911843 0.8629851196586558
P 6.957849528649348 3.7391028702598033 10.195230002114252 0.8603289129827313 -0.016988821248512677 0.24481170126689453
P 6.486735042653582 7.8569297480176346 10.271632989580226 -1.3759384551676368 -0.07216520931034023 -0.09286336108964006
P 2.1857658827271327 8.50132730686462 5.8919114713725005 0.681648041906639 -0.09863497346609465 -0.43703945778948605
P 6.731477012788746 3.945349562141917 1.351485746636412 1.4391711378750376 0.09683031615718807 0.05910477658195627
Ni 5.018111206253036 2.8539649670979363 0.4700679069350764 1.0776169549080603 0.16990081089061707 0.054899994471989316
Ni 1.505408012210081 1.1679224789459772 7.113806104905863 0.3357187099611122 -0.7526513696983941 -0.5129463935304456
Ni 7.0455955862289725 0.7694375015883692 9.329459243646394 -1.0680146559316057 -0.3662796134671047 -0.8113794796672219
Ni 2.841588898101718 1.6759931563408386 9.352965626632335 0.049163606208844364 -1.4188272841113627 -0.09205834868984146
Ni 6.37415536601278 1.9559530550753363 2.524313385920466 -0.09037710433267662 0.3545576970444861 0.35577999948736144
Ni 4.163130351976614 6.801795175110346 10.31697629898817 0.39224698406514386 0.4963818043035451 0.44956741505316766
Ni 8.240759902489962 7.115868481290163 13.57515074119522 0.8253626813201914 -0.11394126480586182 0.38226313337955453
Ni 7.805913545535052 3.7674220683725834 8.230265140836401 -0.9061038052250008 0.7342314724303096 -1.0898021841203425
Ni 3.135798930413427 8.50695855405968 12.482807385575747 -1.341453791127206 -1.0223158683429103 -0.037522165315174084
Ni 0.04518306330609124 4.8544519529650785 10.254526491871113 0.013357652253828609 -0.4083012093145291 -0.9916546918136276
Ni 8.735449577707493 2.3712982762454224 5.682630967697678 -0.5365812593405662 1.1395972532655987 1.2692651847780978
Ni 3.8244316561335103 2.8143561142387887 11.572250105002993 -1.436439340766171 -0.5123128737115048 -0.47836402756988583
Ni 0.995282201192585 3.350501546540214 12.700184391447582 0.2617071914706525 0.36925643670724145 -0.11788970793064858
Ni 3.299195633591004 8.360183988904824 8.08982165472255 -1.04089414556573 0.14743039770224287 0.6262726504601279
Ni 5.676985234979287 7.846382476341999 3.656899336044834 -0.574568537217617 0.2672823715655848 -1.1740541493918877
Ni 2.9577990090274375 8.291531661766328 3.584749660367027 0.9735476978002717 0.2890416176195474 0.9920642685472204
Ni 3.2685225379368803 4.120742089328265 9.091212220034922 -0.1706898824508157 1.0480243288526079 0.055083057017072876
Ni 7.43596233310457 6.47724702487155 11.481575255674812 0.2805945152934587 -0.6797323129411649 -0.6078769215617595
Ni 0.595277149230394 0.03107506892656893 0.36453724808539156 0.7825314450872781 -0.42448064728786894 0.5746078750959845
Ni 4.676352443606185 0.4197252812874015 1.566159391716536 -0.19315798164634476 -0.9001730415628626 -0.20151278136894327
Ni 6.078252338161721 5.761779867180151 0.15826430119223986 -0.09607364049682164 -0.794987925683076 0.7132188747343845
Ni 8.033807041345446 8.969490367481626 11.416899204690768 0.17324555899313387 -0.25169557287092137 -0.15498892677579112
Ni 8.9762261358307 4.853772944058922 5.588617205241621 0.47911170436918776 -0.1446518065158412 1.7055621079746044
Ni 7.930561473801281 8.891458663986084 2.5563272978279477 -0.1969166773578286 -0.2577268666666658 -0.3734689321266923
P 8.442027195726926 1.6428665751724678 3.537139366557727 0.11903590571994983 0.8409445949188485 0.27850780796775904
P 1.8864044361807137 3.2502436181831387 1.7550605747545716 -0.9639675103110042 0.16816685891864586 0.4247274731913524
P 4.999968088280526 0.6919272769327559 8.302680082660215 -0.13032536259084004 1.220240675250279 -0.19507551038403179
P 8.651840947729383 1.6078840363272684 12.552744397564691 0.004523084681334146 0.9732484213922981 -0.5666369410753661
P 6.4136736843511075 7.830421240321272 1.3349224560522266 -0.4355962975850562 -0.8163836177500327 0.31845169535054835
P 2.037044825374625 3.1108114026668563 6.160396119592948 -0.2541967420262203 1.3383674388923983 -0.08221565156780679
P 6.844835286308607 3.890132557893244 5.949498669376265 0.472254058017406 -1.076227016539069 0.4602683464104395
P 2.445446048797747 8.443231304853844 10.206373896282098 -0.06695306898178147 0.7920311570475973 -0.1699468336372041
