# total energy = -340859.626619464 ev
CRYSTAL
PRIMVEC
9.40899191369072 0.00000000000000 0.00000000000000

0.00000000000000 9.40899191369072 0.00000000000000

0.00000000000000 0.00000000000000 13.77101074116536

PRIMCOORD
 96 1
Ni 3.107310185995878 0.3966878055548365 1.6196770486862664 -0.34921700155786306 -1.2460722916014024 0.4255548541886542
Ni 4.180114040351421 4.127451912347949 9.79711005627618 -0.76103290889387 0.8672570075611322 0.9229864399129524
Ni 4.255075479301515 1.5283496091199078 6.181393457782096 -0.007953193408805658 0.3650341710957778 0.8113709950267897
Ni 0.2091600094857249 4.985853066897322 6.819886711329152 -0.7622004468394098 0.7868876651734448 0.5294042819761527
Ni 8.274709752772958 4.3138534520793765 0.9658791288161 0.37398032454547203 0.3097582813416085 1.799452110556546
Ni 3.59596618346959 5.545960949319823 6.97465898368583 -0.7925929430883382 -1.7089829607306957 0.7584273529502229
Ni 1.704721163421337 9.172224086902542 10.850372375228757 -0.7342078182812258 0.3692872899451769 -1.192267844186437
Ni 3.374789009451788 1.381908058245144 9.753167241122593 2.5165160700686338 -2.4475230878386878 3.579375921272178
Ni 6.327857590237566 0.32722404060732185 3.289950010741458 -0.3424259467779586 -0.932585396455297 0.694120977562669
Ni 0.56253916594512 3.8612056668388774 10.74821894951253 -1.0537951698981143 0.638945617942106 0.5950782271351944
Ni 6.380463264289274 3.7435556313635465 9.9476689820329 1.8230640935485314 -0.4949790104187476 0.1662490730706427
Ni 6.213735926747459 4.220864384532776 2.7439151575944254 0.6764379584606092 1.591115364287234 0.739026836936424
Ni 2.3274835233094673 5.075247899514974 8.747648970075685 -1.9291601512783616 -0.3752424790873473 0.7590099649265704
Ni 8.449792275175787 5.5906160251648265 4.815433640910167 -0.5970836876009975 0.25441580001556185 -0.43032553610442015
Ni 2.174182817295427 2.5908788442544775 11.38317254028401 1.1504424235102189 -1.7276198591055925 0.33208111320852485
Ni 3.975167377465653 6.358182771326576 5.051537239774264 0.007148181009007044 0.12419071044801194 -3.540368686771045
Ni 6.608612501349881 6.246168722035644 9.371929941266258 -2.0429990861784044 0.34560305895435967 -1.7116525371430589
Ni 8.546733119345838 6.651733911505306 12.086333795576262 -3.04562390385029 0.3609170636036107 2.6718646941766884
Ni 2.731627954993079 2.9704940338968067 0.013691965101063748 -0.22277349051993245 0.765937545284339 0.04460863984831027
Ni 2.295925764273618 0.800615830423354 13.179738637829537 -0.43386645937814305 -1.6452537980028503 -0.5973909344287712
Ni 7.842931111701068 4.428972468717306 12.432220571737433 -0.12476766599740448 -0.9584715201934396 -0.8441543601053978
Ni 3.5325683956390734 1.2839134069755047 4.101943194243569 -0.5464332124339815 -4.676577226070068 0.0004093196232767144
Ni 4.9529215950352246 3.7972527484826855 12.254436727742718 -0.18814021671677922 -1.0504748472756296 0.1977440583551304
Ni 0.4491034179689417 1.788856369533014 1.3534392712699597 0.41611324915978015 0.19175673042344393 0.09329762041358126
P 0.7427938112286886 7.475095979993409 4.689332448855827 -0.7687395335095083 1.426849383084891 0.49297766371800267
P 4.077085578382862 1.7084188972618526 12.174331392887767 -1.953380971498939 -0.25905818388357965 0.11598812003256154
P 8.220231689321091 5.343234808536756 10.486308367498903 -1.2021426800979877 -2.373195066549074 0.2819934525235143
P 1.7479837084561716 8.07038408335659 0.5629653932809352 0.502447807991967 1.3377305766393477 2.3934340193037684
P 3.930389984725162 9.004489987220943 7.030651894843356 -1.9708336197577476 0.2669301304324887 -0.24971402366451834
P 5.22079559615348 2.2923691653125116 2.9971920485850068 -0.8896322899325387 -0.3362776677883757 0.6779675077312582
P 9.33787879936085 0.8504110385764324 7.383024289162966 -0.33614782707873075 -0.0786212493483291 -1.1369045369247839
P 5.093858885613039 8.53653377206055 1.8171811989312012 -0.45078406106908814 0.9513727043651294 0.16908551407817332
Ni 0.7515197103729482 6.242677986018261 10.828999849990254 3.15249103541819 -0.03773788087040597 -2.7222542023728344
Ni 1.3189901290046182 6.975610232773047 6.791477201003319 0.8718009181780728 0.2177685811061733 -0.04194369142163744
Ni 6.756023178396586 9.741788006245445 0.5787414501012716 0.1964741905037713 -1.7680807953341164 0.0890010499207564
Ni 7.1771508405690785 2.215883469664802 2.169691905432633 2.0324313379648866 -0.5799480563619754 -0.7597632981528271
Ni 5.157237855459634 6.422135689682768 1.9396740425686523 -2.8789233450645253 -1.0254904094161499 -1.633987738170728
Ni 4.167430719188534 8.482093344576523 13.557243390575106 -0.07132265880438683 -0.7493372177234966 0.4137156954618811
Ni 8.377258356151527 1.8270286499171642 9.010758257665094 -0.49792626597252965 -1.3759428260430109 0.7289648247147317
Ni 2.7820883788777713 4.820066628551567 11.982625063488952 -2.093492466942265 -0.7513331651076028 -0.5946943614332145
Ni 5.053550764053832 1.8748169200850466 0.7064186483090126 -0.9078763237443912 -0.15913508773368076 -0.4423768108419994
Ni 6.4031671618902 7.06472279563188 3.447462181557063 1.754530053232875 0.7555407754310471 2.3456045585253156
Ni 6.098833316924623 1.4395004980359707 11.982735148694891 0.7726684362502693 0.2786949842779006 -0.27776784447794095
Ni 0.4721563891716055 7.062878633207603 2.6452599950891518 0.0830456036682699 -0.7723105386902184 -0.1489506910015112
Ni 6.513788680370963 5.894658191379625 0.17944359017656492 0.11151979984856276 0.1662822403014233 -0.5243806035093163
Ni 9.159851262474353 8.54442791631549 13.408805251606303 -0.035847348715912455 2.147123107783528 0.05930686529043334
Ni 2.5755986413104646 5.967050975524473 0.6915044551522671 0.9103705509211547 -0.9059297415409817 -0.259792748056759
Ni 5.912008372554969 5.694256071610825 11.44504607141691 -0.8624073927783147 1.1645778344703361 0.9891830903446837
Ni 1.9358812779093346 0.6604528998838981 8.259769214438723 -0.8878723698186387 -1.2192163477508227 -1.2794871196164224
Ni 7.139364328855313 2.738543564084119 4.759688186241206 -0.15454001216383062 -0.1342617215307688 -0.23730767958036553
Ni 8.774251953945084 8.423343598774542 10.861044994809664 0.5034181423250362 1.9088301814717576 -1.728440555234675
Ni 3.2106020997393343 6.92116980528902 10.509154340878435 0.6897315902457218 -1.0349921782589981 -1.7365966086829059
Ni 0.21933395249272067 6.460656102769461 0.35859173800556704 -0.48938403282947335 -2.260139546782275 0.515980295260763
Ni 8.8131487267102 3.932798686667075 8.799358908092746 -0.3546281452711054 1.2799074949832925 -0.6610941290146872
Ni 2.940479349542496 7.19194177593114 2.7638697477444634 -0.17185047841782017 0.5410961164917842 0.43734413351409845
Ni 1.1036653479863088 1.00504970324727 5.526746846837084 4.026719589201149 0.47150355300462665 0.29686934119408226
P 1.0635454062663143 7.843458015250862 8.718467922409085 0.09166368435458407 0.5761150557691304 1.7729718048778305
P 3.964572852518019 6.2953401140217355 12.682150684287631 2.170011325235611 1.5382943638314606 0.10211958958058542
P 7.760028483536229 6.810698830679627 1.7821618717530476 0.6780325566412387 0.5046160192878792 -0.2944849001223057
P 6.534827186394863 0.6635973849971302 9.139213579507976 -0.017387856459144247 1.1888727024619592 -0.2864365758965325
P 5.308995486792137 8.749421624161062 5.394160036624302 0.4898961965792014 -0.41418672156102865 -1.774372284769783
P 8.32311901641024 3.9709991940271077 3.2912851467006674 0.9694082217106015 -0.4515991007712158 -0.10669486765609366
P 6.22787764166424 3.6687917812446265 0.2307291826562022 1.9783101306404511 -0.07108508887228403 -0.48299664124589076
P 7.319518297924902 9.130645751428654 12.315263038070404 0.6514576343661876 -0.014735506437961718 1.191072281216439
Ni 1.978165287780267 7.380422702885861 12.388332328737219 0.11081711735458334 0.43543868896126936 0.5829667885836413
Ni 2.7429469723216795 8.328171645093082 5.140277206551458 -0.0036805341753807586 0.8750857595769316 0.4671087663710407
Ni 5.002356438796213 2.487116480912991 8.283510923852903 1.2146009604659986 -0.31339407832198285 -0.15830564985384996
Ni 7.923547354819481 2.2626649776929004 13.535856751848664 0.49829907593091594 -0.8028853261532819 -0.6748487595966184
Ni 4.478115633727515 4.150842666361998 1.3078931638862876 -1.7285058612549713 1.017894342236447 -0.8115818254860151
Ni 6.2713001395624035 8.549141821287751 10.587277201127288 0.7260281106839108 -0.9764450739527248 0.6474120035419044
Ni 7.362790251951698 7.842601796982446 5.496230663211272 0.23613834186261268 1.31684499143959 -0.44057883840131223
Ni 1.1596206231759913 4.318332132252622 2.062180999694044 -0.12012708190159954 0.2664038256153734 0.6910683067792743
Ni 8.713272277048441 6.445441762769172 8.788121748994204 3.9297897713516194 0.8763792815773745 -0.5171727729069673
Ni 3.791682625242011 3.316490895263916 4.692017775161382 0.08959960273670375 3.2927074318704967 -0.5083346057900471
Ni 8.496150378565657 0.6546597835337573 5.054842618650022 -2.8103026585723345 -0.5906281617836409 -0.6968016097186257
Ni 9.131059747074922 2.8322100790518823 6.321761504346293 -1.3607979999817725 -1.3006655534662503 1.4603665410057298
Ni 7.017188568246934 4.230113423630045 7.007241381946189 1.1114300468027634 0.027576624066687993 0.8084250250245885
Ni 4.75681938459242 8.848592399425778 8.92394525244143 -0.6279420677427509 -0.769118771225798 -0.3012720982474682
Ni 7.987415592248027 8.536467909116825 7.96275650611769 0.2972323809604558 0.7674982049032395 0.4823088711502468
Ni 6.472709021470988 0.588187137130517 6.866377481505668 -0.03258847545898259 0.5171084953279352 -0.33238784581566627
Ni 8.588123274980514 8.984081883658403 2.1537587184465545 -0.4553248863622352 0.4217478217377381 -0.024882107953660373
Ni 4.038320531505194 8.945006340046035 11.207702367412407 0.16368979698389874 1.1492543167393885 0.9996505655349106
Ni 1.9871226481267572 3.6861043264521287 6.257836812965984 1.5524788828619587 -0.9093840186381692 2.1635627413967895
Ni 5.845195120642755 4.884687585336961 5.009701097920656 1.0892414265208659 1.3362665904993116 -1.800105684980145
Ni 5.577706888194885 6.611830376600405 6.677453391029604 1.186928948472027 1.103019968362197 0.6854357910838453
Ni 0.773868888976959 3.3432312504159385 4.410125316921031 -0.4817378291381252 -1.013483871873577 -2.3604153982859026
Ni 1.5379655989036398 5.544135604879467 4.732201698026708 1.8310463404230595 -0.33041709524254065 -0.6582738859570727
Ni 3.060208772241119 2.5875010161406222 2.4375235660870653 -1.4984247813300322 1.7277592128969341 -1.407974143446943
P 5.030404643830758 3.7015915272192745 6.416340691534234 -1.365679753554106 -1.1141001374357586 1.5941466949143899
P 4.571358744057052 6.552892450959213 8.679468591631597 -1.136724559703494 -0.5172195669845029 1.0844679163916227
P 0.16323283792764878 1.5457186082791736 11.03853904185199 0.29299237473717926 -0.12835846867245637 -0.17422977728327413
P 0.7699218168494878 3.9059548326034865 13.711065354743763 -0.12261076755540173 0.03227351532172506 -0.5418612767925829
P 2.8091768667323365 2.7990339733988105 8.60368668858254 -1.3591409239943237 3.75460997145025 -2.6554245463427946
P 3.167828822286451 4.949073317323339 2.945977023545074 -0.19626438848581038 0.8372640607434677 0.39436300196688207
P 7.7426218484091205 6.41494721982487 6.9507657895010855 -0.0029218016324852906 -1.2416299395593329 -0.2125998924210403
P 1.2841768587504017 1.1025174509671156 3.319034145790866 0.30172281263164163 0.5957806525188578 -0.2812732865280382
