# total energy = -340889.7928098151 ev
CRYSTAL
PRIMVEC
9.02879415349058 0.00000000000000 0.00000000000000
0.00000000000000 9.02879415349058 0.00000000000000
0.00000000000000 0.00000000000000 13.21455288812998
PRIMCOORD
 96 1
Ni 6.419535743886229 1.7219986802959935 11.307771771556665 -0.6377132881969018 0.010598858561768842 0.7308065059091607
Ni 4.816554626252641 0.4459718629321708 6.072337984562801 -0.41732912384475224 -0.7648152587544377 -0.07218603524594665
Ni 2.770359039378058 1.6418591046480262 4.81223795983564 -0.2046436136884411 -0.7980681072702964 -0.6800269613634482
Ni 3.2652091815720405 4.522920187403701 4.894524582699593 1.364310126900089 -0.29876321578268544 -0.003843542115806284
Ni 5.317616578726681 4.630868448607745 2.662983203714357 -0.6830580348802882 -0.3234409210350236 -0.0041908981528960085
Ni 7.5206874615547825 6.11715240363994 2.4968497823812275 0.110730471178048 -0.06699497796331043 0.29483816969666643
Ni 5.0839965336736 4.537637121642794 11.591739983536664 0.10674191884394521 0.15424999172723758 -0.012445167741888244
Ni 5.346851813736609 7.8100603096301935 12.582949882283385 0.23272520241600567 0.056245452756290226 -0.3119984835260369
Ni 1.732083843207077 6.2077382939594585 0.3775715252582333 0.45441548717408836 1.1473072203153467 0.42534428083974485
Ni 2.6307016536048775 1.5279698969842748 0.3017910513591213 0.19603170364971398 0.3347599455922686 1.494395091345349
Ni 0.7854084709231307 -0.20634496122309665 4.568653737711233 0.3679842548630372 1.6384231482342624 0.5021930116686835
Ni 8.557779885710229 2.244883227896345 1.2146129604961486 0.8997986889425794 0.5458657699662858 -0.24559923016519639
Ni 6.825993992705538 0.9486102428406566 4.74173842755398 -0.4392845450699208 -0.43961004673013965 -0.1368222831690934
Ni 0.9002032666262569 7.175661127191171 2.842397078159315 -0.08057940151596445 1.1228688847673243 -1.344475094452033
Ni 7.574625476980757 3.8640349156049125 3.5873673864627844 0.35147597279536885 -0.6649613252795774 0.5466800383374649
Ni 7.564793120302002 3.809094704043637 12.150952786722545 0.25741987694920826 0.29724935024132026 0.5959400609148574
Ni 8.094584695321315 9.062922853077563 6.752028306402781 -1.6519366093396646 0.5984309456575113 -0.754892600324087
Ni 6.807692627243795 0.41090854138768224 0.18148959418825114 0.45301192195834245 0.7390556332918304 1.1028821572327523
Ni 1.9081904704055448 6.559671655742031 9.334535160452532 -0.8498606664615557 -0.26640176873284444 -0.6908070826980877
Ni -0.04272696190163079 4.759591964832741 1.0194537721741637 -0.8771161597433992 0.4363879402484162 1.2932795454148245
Ni 6.2238998352404264 2.191730717549389 7.310383374157549 0.3553848209314718 0.24950910674256388 -1.7916213016582179
Ni 3.3955037079550747 4.574917012117158 0.7478604252666187 1.3622506732678992 -0.8005703048668599 -0.6923420312853754
Ni 6.242950590605141 5.645623636378214 4.670987894798793 -0.1947888323815484 0.07318362327252556 0.8547797010297279
Ni 4.876370386580241 2.6694532375031503 9.723082990590807 -1.7152847345790072 -0.9045223196704938 -0.180683760438734
P 0.054309098859856596 5.592164147034858 12.052279805606734 -0.08990839222637419 0.13419487284857534 0.16988975514702354
P 3.8835912834342836 6.218843710593867 12.488439175206974 -0.3484582690149676 -0.4681660039909615 1.4830012476861103
P 2.2663807864382344 8.22130381927571 1.5051378826874542 -0.13572082257479853 0.8950388056600906 -1.8080707054634926
P 6.605348324647289 7.7879307355074845 5.667813703420801 -1.5924708498738638 0.5969882996737138 -0.20845707389726037
P 4.532978263932749 1.2148964646281166 12.429515459727732 0.6493760692468107 -1.0912918812919916 0.9813587092042583
P 4.097826507744216 6.124122632616983 8.23595664907732 -0.6856808172151159 2.059856266945059 -1.7878692908149532
P 4.6174606895003505 0.9526099985878456 3.855807878501439 1.773176721799785 1.0847414817679835 -1.6489952673231536
P 0.16398005396133558 5.475999683280156 3.7542149854022404 0.19628829974521034 -1.8564521820906739 0.3266411731398761
Ni 1.4372846899306264 1.2995323796939169 2.418474433083149 0.39713156585095477 -0.8309723141974851 0.9362463902466521
Ni 1.9707509841127062 6.517091863182792 5.139707804243476 -0.16882763243109633 0.5489446660019256 -0.4460876840346833
Ni 5.8384515900863745 5.553042382582105 9.184166916343257 1.95141973400751 -0.36459888333057205 0.9153674899151139
Ni 8.84710758981558 2.2370642922822013 10.165294360817098 -1.7443112037183446 -0.4533412802733031 -0.3523023253514062
Ni 2.490746317629309 5.128183451566924 7.279566294436769 -0.5200511228960271 -0.28587504696610766 -1.558614049225419
Ni 0.10037761742522248 0.0082821127469446 9.054360847716255 0.7509719251134421 0.5846122946068641 0.5217927881774821
Ni 1.302674400009993 1.0519447903047152 11.407436114254962 0.9519861695794122 -0.31339125010850544 -0.17376389339044912
Ni 4.083515869235651 6.752418350304087 1.6269886809107343 -0.17450977041753818 0.8195820700826725 -0.18831428040079826
Ni 5.799546516689902 7.707971735739751 7.715792477112697 -0.9307673694099518 1.4550309877254297 1.6264328086416056
Ni 5.076773498464229 2.9874383338016806 4.833302136264968 0.6891656904399228 -0.6892099134142969 -0.6256980089035805
Ni 0.7383178928756389 7.7473733928068675 7.1601469504408435 1.432628194550197 -3.2035264047284504 0.14541799525790441
Ni 5.0810170316497345 4.533971431274038 7.133347684055276 -0.07212947097639835 -0.027048519477359867 -0.6567219680889206
Ni 8.239596155943442 6.91827729629926 9.45695477269855 0.28248273345510705 -0.9241624624989245 -0.08642377611188341
Ni 4.271865541114002 0.06670473015853777 10.608655999400483 1.052312928925633 0.8707629638318617 -2.3604794187546188
Ni 8.38435481033324 7.101453469208899 4.839103136417493 -0.1818916647039061 -0.2809575550598323 0.39938976575751217
Ni 7.336039595221234 6.2437812396542185 7.118785142193784 1.9409347753157864 -0.9388120940912993 -0.8935167125886097
Ni 2.1784222751761235 5.224042157589285 2.806202448725159 0.6726761774253318 0.5588315860983343 -0.7904378444185484
Ni 2.3547185070488372 5.1264318655286525 11.344336581545301 -0.9281399590894339 0.476167019918567 0.8792530035807438
Ni 1.086209063579167 3.3741325525293493 3.732913351690405 -1.0011356347208693 -0.4148564939345436 0.7444330955536599
Ni 3.440250411077126 3.0097123686285774 2.7488515491627563 1.5077347458770485 -0.9740914861188836 0.49636843456710644
Ni 0.8466372375135643 3.240804351358379 8.052683868071755 0.9861057369709403 0.14907436106356908 -0.8174174583311857
Ni 3.731140096546504 2.604662611675096 6.831950288115065 -0.8319071673069286 0.6286020699242528 0.4452353633367171
Ni 4.460440932842645 6.900743378328513 5.951649192128828 -0.9044037918147585 -0.1348669592149355 -0.7832253858305092
Ni 1.099219555750046 7.526456860928267 11.679166698831486 -1.1630760531138291 -0.22214896956205613 -1.4461231437128386
P 0.49421180645735374 5.541431353483042 7.991606785220718 -1.9566470438447203 0.4871502584029481 0.24674774194734278
P 8.304468040917602 1.7663390876875174 7.984404516237574 -0.012823634127229528 0.23671298341916008 0.14470965633697014
P 1.9520794380964832 3.0809134382049486 10.449195759721412 -0.4653401045063921 0.0011940203081011694 -0.34639598716930015
P 3.968398745586306 6.232675823019812 3.7502368987606793 0.6284801996344079 -0.05963031006812312 0.4634624278677051
P 6.582270727153349 3.6252052564070723 10.22108689053308 2.2423811943575895 1.5965347355305923 -0.6653991841479444
P 6.182493785902708 7.664227228753 9.931225584701636 0.4410850886137694 0.8930690835282297 1.1449569749156152
P 2.6420327900895777 8.523145431881296 5.764122043384945 -0.19817497524496192 -0.1616156880636894 0.482593235159885
P 6.981180904178867 3.8455349166749118 1.3588921859239258 0.5818702130853527 0.49925655474817887 0.6582432898294535
Ni 5.363979435976829 2.855049127207929 0.46225168141469103 -1.1624870133795786 -0.14210075795921331 -0.5002842246817448
Ni 1.4890919099698372 0.9166212256571564 6.879826371241577 -0.37196689365986907 1.7267156021237682 -0.10786009160878844
Ni 6.651819527425578 0.8078359952482266 9.153681193362706 -0.4164842593459537 -1.5264554622150035 0.41793101909480923
Ni 2.559753390260834 1.640387411224117 8.942446237302866 -0.008552517555701399 -0.7228810804144971 0.9051864356170539
Ni 6.595822946964931 1.8875687048827916 2.346587175161888 -1.1805137889743025 -0.7173686352367001 1.5402448026896118
Ni 4.006744033754052 6.670021576153191 10.374916774266447 1.117478052769056 1.353946524277578 0.5662623313447668
Ni 8.343662035722447 7.21434048073735 0.26655166833140437 -0.5732536750609353 -0.6124501427547389 -0.09488296262283015
Ni 7.513906837251985 4.0514817080820915 8.032479232832342 0.8469974859811477 0.07518291309074149 1.1159191929223684
Ni 3.066313878288008 8.448052952085877 12.44312636670039 -0.6925436057732202 -0.6257607438207159 1.3885080643025314
Ni 9.288732991310514 4.465659575781415 10.086602100849209 -0.6133317740287437 2.291410074760783 0.19070000702415543
Ni 8.632068802838607 2.5429869197810824 5.7277423236735485 -0.6097623115099305 -1.8480364472231527 0.7786632203811235
Ni 3.454669395113832 3.023806316080862 11.950514462541912 -0.2528317433578936 -0.21346789684829043 -0.47261786911472803
Ni 1.0199918882972618 3.445821176982353 12.688018861077094 0.5141355287425404 -0.9037504745014759 -1.2664662818767223
Ni 3.2875373891630075 8.247090054973164 7.904840074768153 0.05852113616434438 0.23163376912403982 0.4624419570229907
Ni 5.7795206515719215 7.728503213322386 3.4513765939377596 -0.8173421250085602 0.8503643455708516 0.9115216338064625
Ni 3.0280317916783437 8.456422644134737 3.4855894030863452 0.9403946080870709 -0.414339445088809 0.49489339268347676
Ni 3.4599692971987075 4.48976645579269 9.379438061710987 -0.14344698757446264 -1.753229589253897 0.27116113779470075
Ni 6.753673352671715 6.1863671385337335 11.50288491302919 1.6131777434039118 0.31010923692312403 -0.6567952445290172
Ni 0.5838198783854046 0.17877192719072543 0.3138110848269152 0.3914833664262419 -0.4905454001274262 0.25441014358860703
Ni 4.817791571032246 0.22299315450129478 1.5107402493717224 -1.148131515988855 0.36576976371022163 0.5961668322136829
Ni 6.074563582286689 5.667653893766794 0.5298349132305685 -0.3715007526567279 -0.6738899952277749 -0.5908497908761438
Ni 7.835160356982756 8.647444839040554 11.300517135568253 0.15640277640418226 -0.4612160550356896 -0.5352784813687427
Ni 0.22312678065266814 4.692860148292168 5.865384482623314 -0.3680148509906565 2.3439737077901115 0.38499313071620794
Ni 8.288026607022271 8.794063424996766 2.4865027844438043 -0.9073947561222824 0.5341963040481574 -0.29912625554905903
P 8.67003488165786 1.5868286051466336 3.7634252581735885 -0.3088550528010487 -0.08054880538834515 -1.087497961467198
P 1.7705194193149405 3.4145905784958366 1.5853099619938638 -1.2066292551144315 -1.0196354932972698 -1.454726054890501
P 4.563567818044434 1.2027346790943387 8.207492473075991 0.09450269646527595 -1.7799587777186248 0.08526060904171769
P 8.273011722580792 1.5794972244091225 12.370513193740585 1.5386648597970018 0.25034548660093014 -0.7301681009942135
P 6.442243160825688 7.626640359282237 1.3983507243933166 -0.025887666400039287 0.9027040355148324 -0.5600160933247388
P 1.880282468115339 3.306344367089406 5.9210181055646895 -0.7958068220399456 -1.1939159213128212 1.080241794125417
P 6.749158955665859 3.89068791552749 5.908173743203626 0.9825871822947206 0.3782794661414582 -0.5243525784848583
P 2.128438871527279 8.58924523284105 9.885807139305111 -0.06212633701709945 0.6076023277441343 0.9499835373270865
