# total energy = -381176.2359853094 ev
CRYSTAL
PRIMVEC
9.15921881086143 0.00000000000000 0.00000000000000
0.00000000000000 9.15921881086143 0.00000000000000
0.00000000000000 0.00000000000000 13.40544255772196
PRIMCOORD
 96 1
Ni 0.6443473740189805 8.124996388526064 3.5621612163472345 -0.3324140710679114 -0.2225929990780102 -0.5635225638161004
Ni 2.4727692360460933 2.106162347130112 0.45941358862692083 -0.2682912724460734 0.4073596713368662 1.1378134218922986
Ni 8.831602635945272 7.19897189719362 10.700050283825652 -0.5222681851520038 -0.9702068063524968 0.8666736242538364
Ni 4.77656920494778 7.003156959949459 1.7334041269145763 -0.5905538569022796 -0.11160567469414973 -0.10984858279372695
Ni 1.5847463432274247 2.2513451232308275 10.571263425174807 0.11090582041364772 1.4706959479561963 1.1972526989955379
Ni 5.88000776309436 6.038562998541933 -0.06982347214993254 -0.9873560644382736 -0.45052078010537244 0.4984206891104449
Ni 0.8086729172669097 7.336268585967181 8.61880101164311 -0.9147175150359408 -0.21324626775578756 -1.8545207693959158
Ni 3.789690864368401 8.776290114030427 9.196200908193607 0.36536481496231915 0.003130060988549448 0.28996232966160385
Ni 2.580335100819723 8.128925693361545 4.788772947984597 1.3994807612639513 -0.42895230990597744 0.8840347412401033
Ni 3.669888283370524 6.154079065173832 6.07838911342687 1.7427880822055986 -0.31128963038447033 -1.1337649628545379
Ni 5.839698041460442 5.48925717360419 7.227544080024114 0.4611607763177219 -0.11969179413639387 -0.11322932634050178
Ni -0.02661668963148557 0.9385176656811535 7.771764706722561 0.78311508550489 -1.6526506046875538 0.5608468167561503
Ni 3.706607591261999 3.9016623133515096 8.133175570852602 -1.7447503481382918 0.10692318161681585 -3.3786766369434655
Ni 4.270888738824477 1.1168659728058221 4.915815891389113 -0.8834600996835559 -0.027180417069533835 -0.15078543021740481
Ni 8.284183610066059 6.106561038398832 5.071104949437309 0.22515381782665095 -2.6834912226720236 -1.0063248922312926
Ni 4.8906197965827625 7.996162817859693 6.947383729332459 0.5443670739335721 0.6933218787001414 -0.09663465520661423
Ni 1.1493628808624325 3.637446330626298 8.26615735168212 0.3574941539649908 -0.8903228882416603 -0.0731352865330934
Ni 2.1015461008898275 7.094602599757013 10.596452192606172 1.1230935991836206 -0.8437730655065792 -0.8345895992350981
Ni 1.0712255858706217 0.5022521705523927 1.6460004503328913 0.34513640373058624 -0.8092264378799612 1.535516029755375
Ni 6.296166025343562 7.307966600089242 9.030027034605816 -0.2796195529746991 0.06336483740989088 -1.109875814941766
Ni 3.7253290343475998 5.96823851712743 3.637097364392657 -0.6891260954512389 1.2735427291075292 -0.06958896394273176
Ni 1.8104294927524778 5.541537994119165 7.0491316583683306 -1.4129101472959795 -0.035136695802133036 0.39114578058116506
Ni 6.806966494737339 3.233524784601345 7.955272401758247 0.02967490135661341 0.566127091318483 -0.3363751125981884
Ni 8.363768061617323 1.429735725428642 11.244780163085526 0.04868718079305809 0.06345354046895522 -0.4723772138588317
P -0.5804819736533842 7.385874914612785 1.676699403752661 1.47611429075829 -0.13274142823150042 -1.4597934421110794
Ni 1.101002205964207 -0.03256743404083732 10.16852433428799 0.372614554546197 1.4080911286407813 0.009689459373622021
P 3.9692848252404485 2.958409331586571 10.84874287254398 -0.19086198652331643 0.41014083362642917 -1.2671090576670434
Ni 6.19590005789832 1.0915682106715607 6.446194944074702 0.4273402282238511 -0.8207362382917737 -0.006925009254607429
P 7.382843213212915 4.157845661249875 5.732810874794759 -1.3443964186952977 0.7979076704330322 1.0613413576764883
P 2.1146987389871477 3.310874386782314 6.094543227502249 -0.3314694477664549 0.06628843881458905 0.3583426180082151
P 3.72874542293416 4.935454172269659 0.8132946590384335 0.35716428142939777 0.1423216157207678 -0.07953707629437914
Ni 0.8217211402707 5.093020212094315 0.6356763416466036 0.08927461529711722 0.3404328276073298 -0.7248916830866226
Ni 0.24178780381928613 5.663447195425109 2.787487319008774 0.30955207886807334 0.026892453515469813 1.1088291188448065
Ni 4.63359380056117 0.9787999096588801 0.997685302759761 0.9200651525010992 0.3697680862363374 2.367346835298413
Ni 5.072466925262568 4.497469491785142 9.689654733233263 1.9512199592918782 0.5882894863481353 -0.5506757897604193
Ni 3.6791390942885562 3.788976445307405 4.448730541153337 -0.22607941496471387 -0.8520802998206939 0.44243337511154773
Ni 7.401500541767401 5.058068633417869 9.711090052828778 0.9841128749106277 -0.8473669535054245 0.5377187153791191
Ni 4.1031559662087185 1.4446927296159155 12.309828771844147 0.12158926826942286 0.3909570616091267 -1.3263215634714578
Ni 6.612809376083439 1.6101265383302625 12.877496082571374 0.7780682671096019 -0.7195602435713802 -0.037641464501857756
Ni 2.4179696303801683 1.443309687587576 8.664313169516081 -0.5004168936048672 0.8591312931302043 -1.167794541635421
Ni 5.947218110140417 5.418035088754075 4.417320832360064 -0.35279700559963756 0.4161587576857349 2.0831849143686703
Ni 2.250896321513022 8.556313157774614 7.292908844495931 0.2720625665630476 -0.4295408354195957 -0.8101612909894047
Ni 2.7014566093148242 4.835783554041915 9.997912819225165 -0.9534781807439063 -0.3560543361946707 0.5511804973109798
Ni 2.2536624055697008 6.681366128282914 1.8073886321338772 -0.3210166278642471 0.2034382805264303 -0.4288281256232873
Ni 5.458747816012146 8.985559943590022 2.9995351396093977 -0.4781439411392797 -0.11978152563672274 0.2931859788052241
Ni 7.8502747819167125 8.675694414710879 12.565403947618792 1.4584376994141335 -0.16654320727229383 -0.6254907779887808
Ni 7.449339141197976 7.950788048267683 7.1008766645875605 0.23196698409374245 0.34377731859953053 -0.3679994243716888
Ni 8.514428050519012 2.6179245344906166 9.314141420023528 0.38007203926550676 0.4002544277506526 0.29276328944550867
Ni 6.945591270226855 2.164634799507058 1.9903330352176234 -0.9916032697504018 0.28692559971780907 -1.1998271445909336
Ni 8.341804255101046 5.4512830527466045 7.373181153373874 0.5009917922717307 -0.13007313737071793 0.6133739401205889
Ni 6.790983658052225 0.8406285154965347 8.645316949868558 0.2805412934580201 -0.3851360840519754 0.10115208346099352
Ni 8.07801875565618 6.298611536744665 12.895418841783655 1.5027601754805926 0.28998855491384895 1.232577085328445
Ni 8.893610546752278 1.8080480958824894 3.8800712870375724 -0.5972816625444165 -1.9706947801870385 -0.6944307954936041
Ni 0.37288553335589286 3.2551130631496625 12.608662937684004 -1.2175579862117933 -1.1107525611197646 0.3360151581556084
Ni 4.808223464881165 2.069369765488792 8.777481728387293 -1.1959257526539984 -1.1864044434271244 -0.8421887517385949
Ni 7.492900385481302 4.172024131845037 0.5616973319585412 0.17568913543762002 0.1174464497456429 1.0365140142201634
P 1.7296177058912952 5.9907518767675505 4.854808167267502 -0.7212754264902739 0.44813556770264756 -0.6687683577304935
Ni 2.859352381013785 8.749746698148787 0.3671994903678591 0.3656172972927574 -0.10013392660912432 -0.8822128575400162
P 5.024811510206608 7.577018650304276 4.729198641594346 -1.1817242643426356 -0.2204319868709494 -0.20349638745787535
Ni 6.55200132293016 1.6036418114689093 4.14029751408368 -0.5499371118221819 0.15024524144321866 1.1810308378200371
P 8.257054004185651 8.667551869259265 9.40714870662467 -1.085807718248969 0.9757868715434357 -1.2774148104684258
P 4.693861459809337 2.4161744235089464 2.8492598378943996 0.5483803088580232 -0.7857959747711628 0.2950194324695371
P 3.813962794004822 0.8449828080811211 7.110313407645825 1.2702684292316315 0.30495546063632645 -0.37036972437607824
Ni 6.348318616796307 -0.1081886916473185 10.764583391236718 -0.2741171350992311 0.6739948962367555 -0.09893553542564897
Ni 0.9350188441260165 0.7688358113194963 12.695128710267664 -0.33082975729992703 2.479840054803839 -0.6504250793366153
Ni 7.771322316457867 9.077481862771572 2.615026557684215 0.8127161962007745 1.4718542299303556 -0.17809054579026104
Ni 5.419289901720184 4.519506572051265 2.3689962037488574 -0.9075073704407468 -1.0453827774647029 -1.2078502720057263
Ni 8.842419673266258 2.7100571157029747 6.3329586069848816 0.4688864270967538 0.6201593384735383 -0.3089802655250033
Ni 6.2550411332426075 2.422347736933455 10.438027018064576 0.8760746058527621 0.8885043469756828 1.7343957443768454
Ni 5.236673398666998 3.2097016566827303 6.212806143831491 -0.12487205278575268 0.7461395367218053 -0.7110408932464592
Ni 0.7693276613653363 5.377111699465198 11.655013326737821 0.5395717094274578 -0.674123965615452 -0.16581687062923056
Ni 1.4655757483219674 1.11633473811944 5.240777644580236 0.9645640062444226 0.16240193141041062 0.9597318749631019
Ni 4.390673001384894 5.088184144604491 11.7255393109644 1.6004914061854951 0.13541100464386358 1.061179121067011
Ni 2.665579949546576 3.8469451406541606 12.394860210774574 -0.6735351829915175 0.025744713064271795 0.3808315431393506
Ni 3.149873639933637 8.627214669969154 2.5615925915310416 -0.06127170232628803 1.1371045687507322 1.798407728452432
Ni 2.8294017357643155 6.416701343839897 12.8704984394611 1.0926183134128988 -0.6362382463132721 0.44616044625414775
Ni 0.7857428131745409 3.728946925746236 4.150432189609226 1.6610480847226297 1.4100400248370362 1.9012976205401384
Ni 2.281781207073025 4.370742541426837 2.41980330597006 0.8314628806806584 0.015608395961218281 -0.6662088245334333
Ni 4.431614709111232 6.986203246078888 10.500322528339726 0.2177737233124959 0.10811051705669766 0.7882691189020037
Ni 7.581543304357254 3.8034846477768727 3.610246198761665 -0.03700845890354917 1.0103610099738791 -0.24435713022797917
Ni 6.456965269380161 8.444671440665813 0.8316616403591554 -0.7933069384362273 -0.6213204486611751 0.4189378630927688
Ni 6.611609518429715 6.748723022828662 11.156505444802548 -0.7164965170443919 -0.6245721228292533 1.584560850998168
Ni 7.1347291370163175 7.86946334515758 4.472297210947492 -0.31936495119343705 1.331226971192875 0.6492071477691143
Ni 5.2279355039978865 3.2922262174465584 13.520729695592697 -1.2281941257694011 1.3978661084786637 0.2911092987818535
Ni 2.5173563128272605 2.1188295466347045 2.9037260479985267 -0.034070973541780035 -1.1521372947141384 0.6005315369402818
Ni 3.9529447790248358 6.295662268313372 8.400734668414527 -0.8517437424168816 0.40366165365998863 -0.14357348584999788
Ni 4.825433636876196 8.285740677250281 12.455050016663531 0.7297135299552981 -0.561256136379427 0.5947532396956079
Ni 0.22530029418210887 3.0425733925031992 1.9140962781124378 0.3781277710549424 0.26416799430631926 -0.9460199246936482
P 8.551156517629217 1.3479896982569255 0.8307741120641481 -1.4496087882685937 0.21971747730242808 -1.6464113086460612
Ni 1.1735065814366226 7.852069988787934 12.535657552947018 -2.325658968641324 -2.18765989155531 0.5122516814562662
P 8.420884949622122 0.5083604535239129 5.652109914480217 -0.4947134154621867 -0.5924603298963732 0.07206879294179201
Ni 0.3797439563414594 7.648936835777925 5.971145653152562 1.3341626567824314 1.1896394054246546 0.7952771747887207
P 2.9989297152512964 8.971894389243781 11.469642646612305 -0.6534564099637714 -0.7092879151110946 -0.8036384022692226
P 7.370093580739747 3.8893156865024925 11.896445752870354 0.21748730242032868 -0.3704016060552782 -1.1090278651191738
P 0.6080896907515343 5.390520795686979 9.45811609517366 -0.8001494152793575 -0.4868988045137743 -0.5020528865463935
Ni 7.135223734827776 6.143381097696345 2.4679020272125864 -1.0938781539619291 0.0886485516773441 -0.17477922202884094
