# total energy = -381170.8240379366 ev
CRYSTAL
PRIMVEC
9.19959509672963 0.00000000000000 0.00000000000000
0.00000000000000 9.19959509672963 0.00000000000000
0.00000000000000 0.00000000000000 13.46453733338150
PRIMCOORD
 96 1
Ni 5.756876530913793 6.7209848822593 8.791925020990824 0.26289067025579244 0.20269317483028962 -1.9015408468991961
Ni 7.582287760019315 6.464270185131499 10.546166343630833 0.29882029427286605 -0.4372880834651824 1.5564142133606227
Ni 6.381105846767934 1.5496073724528978 6.1891360589913615 -0.558164899048613 0.7524811626691169 0.32744695687062314
Ni 5.781770634853153 7.456906480422297 2.699895286512363 0.875248767517357 0.5330421358390561 0.028542330414066973
Ni 3.69643404998168 6.083232161826129 9.5409983600968 -0.04688792280079022 -0.15760682401461243 -0.0835045455825594
Ni 4.990817059688956 5.844199086195538 1.3627727985783769 0.46911294128526304 -1.0096102478507838 -0.3730513849732995
Ni 4.085751708743601 0.6757498074622685 5.952066176923468 0.8687068526337813 0.679960626901887 0.05122640227514404
Ni 4.177600464741593 5.351146794758001 12.521709442591487 0.5415224053959254 0.0035056991604133178 -0.7395809096676812
Ni 6.662760645809852 8.518410943521683 6.859481104419493 -0.46847736458379313 -1.220978067636936 0.9564920278695654
Ni 5.918338621911465 4.343717550784835 5.0862830964219645 2.1012343156712134 0.9135831443211814 -2.4000371264425824
Ni 7.726988189014949 5.570078755419079 6.554603767840943 -0.3631099574898714 0.8335328758358097 -0.8942592471815889
Ni 0.7523759936936459 4.0846201585645385 7.60657469069186 0.4829950985839939 0.5480224112979724 0.6597442998550122
Ni 1.8931202479501947 8.89285285724667 2.529798455693005 -1.9273326111513196 -0.5154280223017188 -1.080513816839881
Ni 2.715196052836067 6.8859152205537715 5.805881853262121 -0.2575090942289049 -1.2569498577458544 -0.001630079404255257
Ni 8.632798707151395 2.9650570517248345 9.131392834587848 -0.35875065207991125 -0.4476054062307904 0.7042529237903484
Ni 0.4475124565075232 7.795193985987016 10.787921579407639 0.7320408925368941 -0.021007712599918658 -0.9226804786367593
Ni 6.188089145085856 0.9970521008676233 1.773495154914469 0.5976616715916546 -2.3437356236373765 1.1270754666495042
Ni 1.4859645745768855 1.0773645647961558 13.304363143190239 -0.1583331606576757 -0.7385108165319538 0.9359774528559817
Ni 8.122202788140923 1.2581826035722503 7.792789211866636 -0.012478334972668832 -2.3274381720289337 -0.06405209328490259
Ni 4.70228096362315 7.570328286582076 13.096039235467991 -0.18805588453308902 1.1593610661560871 1.6282420939362023
Ni 7.596832319637987 2.6258587862598954 4.404627149000691 0.9333664975956959 0.14173334731746556 -0.5682688202518342
Ni 0.7884190867549974 1.6482822279050673 3.2230201338875837 -0.9351680695808089 -0.5892004281981787 0.07878374306812239
Ni 2.0503689244599776 9.11954007645205 4.8103274464526375 -0.49483605708298006 0.41783331717468036 0.8507749507457091
Ni 7.446593734481416 7.214736342913168 4.832462591865975 -0.3074771986169156 -1.0442718037887113 -0.6313366952465966
P 4.361288777142624 8.064171743185462 7.158946319287946 0.9784258518281794 -1.174670442819648 0.32587884105255494
Ni 2.9792428271403897 1.998391212982749 4.2405486931987495 0.766189513394145 -0.028662658042015152 -0.9293072399246576
P 0.2709105920978027 7.7987542292333325 0.9474331655360159 -0.42063093452447553 0.7695936539796875 0.4548217214735716
Ni 0.697481090657226 7.389997826338423 4.163544403614857 0.09407255090639283 -0.43680754428433805 -0.5897069355209522
P 1.532100543259771 4.787276021382109 5.815629744072966 -0.08749001259286868 1.2839184159148984 -0.8429158597126064
P 4.0641050618221986 1.319571500685091 10.353421029999833 -0.1637435330399696 -1.2086825380990347 5.762997638202371
P 1.6365159459618148 2.7125005715152124 9.200196605231778 0.9050833343802864 1.0929800676276917 0.04066199649573642
Ni 2.9086451354808753 9.144986156088512 11.812021409392822 0.9881142827605369 -1.689370842926723 0.23032199229115172
Ni 1.2684677507282756 0.8698373419967268 10.373536864321267 0.09544654843578401 1.2355248551028593 0.5457120179972408
Ni 1.8672877853257595 3.859285279817062 3.3935484257101773 -0.8535699969923429 0.8376911209785574 -0.3889528866949043
Ni 3.1856909374519815 4.051014038205898 10.543890363839777 -0.5717151269292219 -0.8816199611510235 -0.3851684799518076
Ni 8.11005932280465 1.4554495181220237 10.907419718033031 -0.9946163455451129 0.2050611608418339 -0.5549983283951732
Ni 2.850963675133579 8.235670592275461 9.480771371826364 0.11303520805182468 1.1002706877518342 0.17861479372484723
Ni 0.5256795748933141 8.833570667377774 8.628654289625644 -0.6749513466127537 -0.36788706716354064 -0.46246972493713256
Ni 3.961943559883327 3.380050779997011 0.40886311819634896 1.5732870778565615 -0.005658226727041868 -0.23184794201737488
Ni 6.87404774306605 6.141217208806832 12.71259643804224 -1.358593021910654 0.6285748162307433 0.7201243436049662
Ni 2.3547283238427466 2.483476655192095 6.376131625777537 1.965277465826209 0.3102174803662141 2.4198914421643485
Ni 7.91526709929689 3.2019374221367225 6.738098888747989 -0.8906293637384854 1.6072762903178126 0.03339400207941346
Ni 7.026319438706952 1.906910440782826 13.105451341063098 0.4861346726542402 0.6822671635478765 0.04647011853708126
Ni 1.955741890786566 2.7628131563061795 1.3109790790001825 -1.2061165771440712 0.5571948218258597 0.4557432048465764
Ni 4.015724391971093 1.6269023692372655 2.0733366332164467 -1.2704280947379474 0.11955603988947795 -1.10164237128838
Ni 0.5394973665108004 2.8649378598652446 5.190282677432191 -0.8341869644800408 -0.12801008419410212 -0.1372442011978604
Ni 8.890856545142146 9.193734809737688 12.407786258506837 0.5597029329596941 -1.1346478796801234 0.7763582263970307
Ni 8.617674573050763 0.7605213150639006 1.200897645767373 0.7590163926844734 0.3777745014805816 1.3653449959225066
Ni 5.534899504323695 2.7196670559826037 11.37820714976841 -1.3721532770935918 -0.4418476778114068 1.36372828625469
Ni 5.529361348162759 2.161831216895041 3.8557719545049993 -1.5666790856217405 -0.9377864810402624 1.022877654383651
Ni 4.688306778891484 3.3143288736619096 6.5162837750290405 0.7166384419388948 -2.5025192415689093 2.3830693882399925
Ni 4.0285946253085525 8.978574683006816 3.4104324423250727 0.3034102276363936 -0.3609309475606816 0.2512787970484769
Ni 0.15122938153287138 6.506468727175048 12.739983632213518 -1.1690852354223864 -0.7879654716186558 -0.5314979312803878
Ni 4.946199024173104 0.8056701672084663 13.305305181713296 -1.541112550006546 -0.14308960423504388 -0.3090733394594419
Ni 2.2596505100167 7.067644019230087 0.1365854662887204 0.48117784286959714 -0.729755438936827 -0.022897730533779918
Ni 8.117842180133808 4.336670661051817 0.2372373146960149 1.001964558380068 1.0703517887052147 1.5286211024077543
P 8.647600855428715 6.893201299755535 8.642011181536049 1.9942247449881783 2.1299697359326926 -0.7907499763423285
Ni 5.116649119438608 0.13373359185368658 8.962965730252229 1.0367127604945308 -2.912964493809635 -0.6915884409488025
P 7.672167802697639 0.6290591032037941 3.3573820580764733 0.341037036850232 0.3597536394231288 0.024827343456324983
Ni 5.541385218764659 4.8614983534526015 10.300990698450978 0.6071423573885801 -0.22676692795004172 -0.20700362928018542
P 6.000123021032273 4.150507657608771 13.419148329321864 -0.49313784344495076 0.3095289389396218 -1.6259095891482838
P 9.097295455858786 2.6476526267005243 13.05561897512861 1.2863015714350943 -1.5998733129855223 0.33112132039841685
P 6.738454913072621 5.134229545391349 3.115868771646898 0.27814451109106936 0.3280020580431448 0.0936488331054129
Ni 4.252310375344527 3.903020154217548 2.996936408111037 0.5650634259406591 0.5699508359399474 -1.276771263347156
Ni 7.849894777569954 5.066299736267835 8.749148744384307 1.4628263154001324 -1.917879950378852 1.8842743465092646
Ni 2.293330227134954 8.793028052425536 7.122659436960374 0.7789100462846069 -0.5191622925331705 1.0514796343910602
Ni 4.971810696518698 5.659544816324576 6.712529534539173 -0.44140261985418816 1.1515528829655781 0.8464948353131163
Ni 4.8370734288557795 6.895593194442983 4.715374747117936 0.6623904792286076 -0.08226681652071638 0.7301310771086909
Ni 0.23873684867314557 7.421442041883409 6.493488098698168 -0.2521465443654109 -0.6520731564629996 0.8219423427847328
Ni 8.19025219199881 6.975703267282578 2.4758722700050013 -0.8539435782816777 -0.38523841395779457 0.5576941300597815
Ni 3.253307960347138 4.451058424681527 8.030869209460228 -0.8002316905805186 -0.9515637373300126 -0.40629574884872605
Ni 0.9458563549612907 5.685128889885314 2.215872397519941 0.497377335447595 0.1289354242218489 -1.2068976782844698
Ni 6.382182199377285 3.1520756174983897 1.8170662765248144 -0.15116029705832032 2.128241954608309 0.4746364422066536
Ni 7.244727022455782 8.376286401112532 9.40273028789141 0.9588096202591487 2.277868845741238 0.2645318054036412
Ni 8.520628045905049 0.027461710890385148 5.372889117466901 0.2297841175098107 1.6339350305559215 -0.8428343557423935
Ni 1.9155304612525894 4.610533403169627 12.682893705821616 -0.3392184955842545 0.0510381975237379 0.720143883988992
Ni 7.079134313324787 8.261981433837386 0.689440644669421 -0.023659034179836672 -1.3608779612900885 0.760438984063613
Ni 8.737306105802954 3.5305193550273755 2.417288329392941 0.13526239488114122 0.40544008571665013 0.3696289895553118
Ni 3.432920852184557 4.317213517728924 5.020212525438193 -0.017880736935162754 1.8451393281810158 0.7257470891083824
Ni 5.946848166666852 9.0802762051981 4.689455808300954 0.8196054671214401 -0.30031410520957313 -1.3333913258340455
Ni 0.9625996177734246 5.496187608766849 10.360086136542355 0.23585963427992926 0.31976758594849447 -0.25428133132022657
Ni 7.489519044526151 4.142917991773601 11.50906862807817 0.36896384516748715 -0.5667153597217853 -1.3205684630377645
Ni 2.9170903636465564 2.25970570758641 12.11120327673676 0.8432236207610123 0.86102233950533 -1.0310421924723145
Ni 6.698271082323499 8.860267891927672 12.118931856455701 -1.0521398936828785 0.28629079434728755 -2.0844267571955712
Ni 9.025547814830308 5.157256131555509 4.3966694993674516 -0.49073540465104515 -0.10670720895126785 -0.05566464055215575
Ni 1.8308205909371338 6.462743052369514 8.183530047967587 -1.0681015592184573 0.16217464589095296 -0.5230937663770927
Ni 0.5474246574806992 3.318183503946681 11.130163070882608 1.054624607777945 -0.3947450678966492 0.3567282223332437
Ni 6.249413645034034 2.142502867901473 9.307993779038075 0.9205654891762854 1.0536334475092692 -0.9021383928193494
P 3.229793795650537 8.768465133904437 0.9830043193763439 2.447417415498759 1.671994299321488 -0.981344053916239
Ni 5.3400888816260315 7.408065830823604 10.95317206360643 -0.49689988159054427 -0.19025417773598846 -0.8452586489131702
P 3.007430386072466 5.008351487666938 1.5158236999116892 -1.7331351324968667 0.1937853308176985 0.1366765016198485
Ni 3.9823482614862464 1.9649874837130465 8.59155968286131 -2.5117240479966294 3.3383419418801608 -5.1560419429033
P 2.9562622389509885 6.86678006305419 11.318101596151337 -0.8637590217102028 0.16729139829222803 1.0925388663252154
P 6.091888980675699 4.371941908096718 8.151000280218298 -2.789077430644971 -1.3954346162190354 -1.2634457498828433
P 0.8590121786170356 1.0327005313055457 6.683796439626461 -1.8020916050619222 -0.0922072155628799 -0.5094913451023096
Ni 3.0491321499886217 6.724600323075328 3.219640202702321 -0.24209610210794436 -0.7130723218541913 -0.5971497649522425
