# total energy = -381167.9871396019 ev
CRYSTAL
PRIMVEC
9.35426473185534 0.00000000000000 0.00000000000000
0.00000000000000 9.35426473185534 0.00000000000000
0.00000000000000 0.00000000000000 13.69091197864818
PRIMCOORD
 96 1
Ni 6.712676297569831 2.981858879909498 7.666335139787673 -0.3333478957360904 0.023285710000817965 -0.1749784825238406
Ni 2.7244295221433674 1.9239009244592225 2.7013675185591883 1.411818714004014 0.4466229877128631 0.7864336083551617
Ni 4.054007254536053 7.088044221568352 2.726682029023821 0.8052571688195681 -1.8385123097828011 1.4812819510021586
Ni 7.069653737652356 5.842430366912177 12.573021016337313 -1.3695736892918735 -1.7421414497605352 -1.3699981784238018
Ni 5.4324703729638335 7.350244254205875 11.89946907520073 -1.2815265186439542 -0.6007508520399396 0.4034935035132406
Ni 4.413650659987885 2.181358345018714 6.882941683729836 0.025723372908033115 -0.48720528001059965 0.39943553139378307
Ni 3.0812853567879936 3.55509755989737 0.8937588097885024 1.1816458456962164 0.35302094868498557 1.627139862010959
Ni 5.593494681270017 0.690385875447478 12.399885741842906 0.024391541470487027 -0.7945595798964058 1.4065348398972548
Ni 8.232042701463863 6.479511901796627 0.4960407417307301 1.8187353842661902 -0.18856470584870752 3.1887906411801725
Ni 0.9334601789829432 4.613719668123859 11.319043513833073 -0.6556655017999482 -0.9999161604914716 -1.2022938609638714
Ni 2.74223068739878 3.7835474063859036 7.403716036102624 -2.1741358889269464 -2.214383680703399 -0.20407797099295819
Ni 4.214844477553163 8.948850632287293 9.227756445812698 -0.0005515016280958244 0.42322749160705814 1.3374418417543352
Ni 7.787088404194185 4.947956891319411 8.853035836914374 -0.7198664619578893 0.05348511640233369 0.04157345256641227
Ni 8.6354360017657 1.6110288412759461 7.857268773258152 0.5861996936986421 -0.6069315269293547 -0.24643612424419498
Ni 0.3005730962795369 5.552513648698309 7.496732035550991 0.19669839069943545 -0.5758977975520018 -1.5425721652712079
Ni 3.8925807128583605 4.368104746362765 3.005880631026628 -0.7596146883901047 0.0026775468321631308 0.34947719719778525
Ni 4.719675421591045 4.297096524894644 5.586466822385943 -0.8402714801112238 0.19466053433380023 -0.32896853572147217
Ni 7.333097887462223 8.008700283367055 2.250868013321351 -1.1754011503380855 0.2782581538507982 -1.4507786402069789
Ni 0.8859358384258638 4.924281247987069 13.595157751488546 0.1501161720645221 -0.42893405507353227 1.5924644221159607
Ni 2.883760708583429 3.5094487493632593 10.233176174958706 -0.18096401068331416 1.395066177136023 -0.4228353983749621
Ni 0.6542653186859179 3.8593169484609637 2.01786264004386 1.0153438079004513 0.770696400125563 1.4551705986270875
Ni 6.315297789311729 1.8195915215358895 5.3638661974603155 -0.3133701670625829 -0.07249996694193965 -0.3881393896546735
Ni 0.8358858464662824 9.48129536499253 5.510469036258212 -0.17237498346272248 -0.8872439922060202 1.4796251321250258
Ni 0.9037940646944437 2.783969415391239 9.052157258061188 0.28059425818314254 1.0343296049743347 -0.250121286405266
P 7.747594699670617 8.173868530826233 4.272906397017348 -0.8873982583956975 0.2601534738302874 2.2457837922812356
Ni 0.08327633929916337 2.4530529560767538 0.48474359654998317 0.7307802806569156 -2.262707821730084 -1.4230765463060202
P 4.233160127353528 1.9877437793558008 4.720858736044439 0.7803046126392885 -0.7248641722827968 -1.300980770713824
Ni 0.22177090166858354 9.141183663720048 12.675182680142072 1.7105065964640733 -0.4824189143655498 -0.11604057053705176
P 6.483796154916428 5.190952619033466 6.852164282824236 0.08804357110349353 0.5224270793273712 0.9819816875002378
P 1.753316557881346 9.269898342603113 2.0386450093806703 -0.6462768614961966 -0.7449079783075494 -0.3731619424092347
P 8.20977955206403 3.3580312706510376 12.206228146563507 3.532683145201329 1.9991638341610087 -0.0036365683113227694
Ni 1.2426766156177091 7.019917113551974 5.391398604026923 0.8682404545203242 -0.11196845735020716 -0.03610831568678297
Ni 1.2097870217984608 7.375220140297284 0.7819304490972767 -0.28200245138457886 0.8176228894737724 -0.1660050753806367
Ni 6.296617323197667 7.315025448537653 5.951986576767596 0.14573141273326515 -0.08007880773046208 0.8819470054731391
Ni 1.6164543146590988 5.99236051757626 2.7095412748388408 0.38988259759802535 -0.4218151846405639 1.0327452912063504
Ni 9.097162495200882 -0.18777563379090653 9.81339888046619 -0.23783681261095815 0.5424562300641045 0.06403409556277359
Ni 8.449258076343488 6.160606318040707 5.256803834508256 -0.22050526331104606 0.4725114254438508 0.3183575929748452
Ni 5.252550450461153 4.355111673036561 -0.11986554470985447 0.2513579870258445 0.08752112294112024 0.24172149237734497
Ni 3.2967234214214147 0.12403941750910037 6.023248298802414 0.7626647880703381 -0.18965228248593144 -0.5621699064429481
Ni 8.726771039891737 2.0334112984188186 5.422161973535843 0.0187364000672387 1.097033411761459 -0.11559551257983319
Ni 9.572312358127139 8.043189456407887 3.223032396907969 0.8613905214780261 -0.7012797000946374 0.20271297232463154
Ni 1.0460032054784327 1.6165665658325432 11.252751712502514 -0.2264668802111197 -0.27671189240960087 -0.4057861562021592
Ni 3.6183791589267256 8.394058561802138 1.089441603322131 -0.4902265833354267 1.4756507208583103 -1.4109941612201895
Ni 2.576566663923556 8.06146768915044 7.829079697326893 -1.5718020086706026 1.3606601888523275 0.12541429844246788
Ni 7.1317379908316365 4.212749122315531 5.062077982228242 0.2677356570529196 -0.7664468808205896 -0.07882333805680618
Ni 3.4684490082626436 5.101217160129015 12.179133519573332 -1.7086644010490122 0.5687917826348398 -0.1398045057258689
Ni 1.9873789630421064 8.505103035132144 10.411062480369148 0.08247764697994182 0.08189760610675573 0.23140622649426595
Ni 2.6122905998722787 8.855008651287664 3.8608098890677756 0.3964103714142141 -0.6355301645026539 0.48202425003029237
Ni 3.8384943557870024 6.950938767470308 5.160323950932679 0.029229329178762566 0.09053239896361827 0.39670759093965874
Ni 2.67603991212432 5.972753979281281 7.118466160424711 -0.16440147833894267 -0.4430694660336499 -0.4107180462861379
Ni 7.463767607616114 8.253707177938658 13.07874996976275 -1.0785086134843942 1.093256204107214 -0.1324336671830945
Ni 6.40826046945271 8.893838203035019 10.641548750229255 1.2118977026022226 0.7531627621171738 -1.4405194243728159
Ni 7.65862629045137 9.33966244689889 6.328432112031185 0.6995529472115178 -0.4142368580726737 -0.9751507806213335
Ni 7.942790136026207 3.411921188168867 3.0173676677757855 -0.17804503726430626 -1.4929763566209513 0.03132632091710733
Ni 5.261886006385957 0.6657785473755454 2.423852684158049 -1.0919737378503644 0.2810166904325418 -0.5035101878182102
Ni 7.691263319130368 3.7891225480003152 0.4997225802197108 -1.4176006107931134 1.7979613849436324 0.8057017125561543
P 5.620116917905278 5.329105750750325 2.19296885805866 0.37133723049567013 -0.08821789189782872 -1.2204209095818852
Ni 3.4679064609243286 6.366334656171177 9.61147211540971 -0.45124480275559065 0.035300217963190814 0.9650890255099573
P 1.8595435850176898 4.978910152396741 9.167352218529304 -1.0479510524125113 0.5981815486508666 -0.9375910772000046
Ni 3.110124554098785 6.008159870238577 0.6810896074333799 0.36463205056135267 -0.3791726673796889 0.036398593233692156
P 6.788015543480021 0.925670882972338 8.854035807784477 -0.5366954163209273 0.19554705070381162 0.14968576939532285
P 2.773539410525351 5.091217451427997 4.636906083425273 -1.2499556858162086 0.9275938567779767 0.8972658952183966
P 0.31123789318321293 8.037155955835244 7.297776184885009 -0.09884940346974588 -0.10568365278275993 0.11588219058231655
Ni 9.049624123247122 0.15183748518619375 1.3389666076248756 -0.23463553206484103 0.12252977780582124 -0.9636155262882242
Ni 4.1361657592329975 2.5571659194465584 11.72764901028852 0.20107697938310531 -1.1041378840167242 2.198307086856511
Ni 0.35763785115295627 6.6988600489717 12.295123592520016 -1.4943560105772973 1.5324605307585026 -1.4986950042722835
Ni 8.344602565635368 5.649723164901274 2.862728580385705 1.0298659127760263 0.33361889000928996 -0.8475245621292113
Ni 4.660893223763924 6.919873255219533 7.630136942631148 1.3543334753033514 0.088828271788318 -0.6713590012758051
Ni 5.872298533312876 6.601744075413271 9.568838184309032 0.9235885922733256 -0.06027128608623168 0.748710125662459
Ni 2.4804890137194886 1.053046966612077 0.4787016771393311 -0.12103468131753349 0.8631414427308619 -1.5886131666906704
Ni 7.800923361321224 0.9938344726200857 3.3413629068209696 -1.8275069598112335 -0.7909839467300055 0.015010100255587052
Ni 5.384043345886971 9.153344207509871 7.245585937218419 0.3174602779715565 1.0937475419213358 -0.3021907534069957
Ni 8.169415900946266 2.5972489426307113 10.151454514411748 -0.07307923648417737 -0.4094453502213013 -0.4954407805465145
Ni 6.403209166647706 6.357008454510827 3.906208940740972 -1.378798550324251 -0.2975090316606102 -0.4162603162606057
Ni 7.938038169683722 1.3109253290719856 12.463658439756085 0.9925556063613422 -1.9583532279025497 0.33660908298586545
Ni 5.106156211760574 8.795300381279624 4.174441538524693 0.6063471151807944 -0.3480016410935232 1.9335909333562054
Ni 0.6529285942954826 1.2150067013636316 3.4858844217779157 0.36715198876972893 1.2718604563090998 -0.4703218739916997
Ni 4.748542681695198 4.382304519803499 8.1072783284596 1.2443406536222763 2.0356639859695718 0.44988546051421874
Ni 2.045955367051245 1.2607022832200105 7.600236036304859 -0.01295090373371318 0.04746667812239567 0.4885291410283457
Ni 2.0729611285291094 2.9698199415575717 12.868402495845038 -1.3995434961810866 0.1453418906043303 -2.470335200637197
Ni 7.354173045276434 8.163672382571688 8.458122177339826 0.5945997448368792 -0.5441539294815015 -0.5463110850338203
Ni 5.245516043591962 4.5932806002925 10.954043856555048 0.800446377694486 0.4669352169076539 -1.201881198906485
Ni 0.3725681926475246 6.657411303177307 9.472865301866847 -0.13794868346405273 1.0486547633477552 1.0131306022992164
Ni 2.2163620026045012 2.33329030827589 5.153656231230074 -0.11904644724291111 -0.6299115327642958 0.8746838961528226
Ni 6.800512840790179 1.3836921522574046 0.9987688471194183 1.9132442513790535 -0.39131804449297125 -1.2330727940179407
Ni 0.7121728927866167 4.02957391578296 4.778552097489148 -0.5274091059229948 2.0220816192994464 -1.3493144248222053
Ni 4.8608593349909075 2.474941934898438 9.323250389914854 0.8545891822854765 -1.7851395505886158 0.7437124153375514
Ni 5.440767605534275 6.90451355298654 0.6485152523262215 0.9380628746301005 -0.5204113344489231 0.01373663285980215
P 7.9253818498778505 6.204730383468863 10.69297194821064 -0.07494740004116769 0.3966104032401621 -1.0040985740039354
Ni 5.522187123339376 3.0261045507755515 1.9969567944162612 0.3620804877840926 0.8926204260265852 0.11052221182198385
P 0.5151009909816119 3.436532257946581 6.792731963617582 -0.18267328006493702 -1.2911833250074278 1.0096277313522806
Ni 3.5024236967585223 8.957203990444457 12.309033383762683 -0.4429990178070306 0.24392029980087668 -0.2153247475513711
P 3.0050481014902477 1.381316169086162 10.22919219372787 0.05338510048935966 -2.0174114675172867 -0.6215371926576715
P 4.62506639090621 1.7221575029860343 0.397528176489362 -0.39727143386292874 0.33879349223169397 0.20471740434917002
P 2.4393583129165206 7.0606642895123395 12.16950891687691 0.8289303440667918 0.0007003685011342777 0.14619549685387725
Ni 6.391310542262586 2.711268072056996 11.767872347439479 -2.4549078103385336 0.9287626802750972 -0.8123935227540332
