# total energy = -340889.02520878566 ev
CRYSTAL
PRIMVEC
9.11123055308884 0.00000000000000 0.00000000000000

0.00000000000000 9.11123055308884 0.00000000000000

0.00000000000000 0.00000000000000 13.33520689174717

PRIMCOORD
 96 1
Ni 6.613322731438317 2.3289215758544866 11.499215421830636 0.08778054725009399 -1.109214527208683 0.34508035368167017
Ni 4.3443712733893705 0.672316772388189 5.98025349467139 0.8115946810018215 0.12947612721666735 0.4786612470953305
Ni 2.742890324334392 2.1708417302260865 4.631183691864091 -0.2632925336799014 0.20422066721840956 1.131322157741
Ni 3.5416081057362616 4.6874364277090335 4.736425690762335 -0.5249663008094572 0.4920178709078945 0.6066816157020778
Ni 4.123378382569956 3.0444902695788474 2.657386894748504 -1.2639252606224234 0.11457632728669945 -0.6242211672477378
Ni 5.223969446125148 5.071930346182722 2.8041806594097625 1.2396437623672392 -0.24771396251535402 -0.7660591584638677
Ni 5.4228402697868825 3.0507861297130967 0.4331506216212005 1.4424207551605868 -0.4295662893408924 0.12967127394660893
Ni 6.018842288342281 8.334917029479993 12.646642764720282 -0.9924956996576841 0.49073077666535486 -0.3807436114112346
Ni 2.7717273682199184 5.211760397529065 11.896697399090678 -0.7806805079214684 1.342661695392378 -0.6225589490539666
Ni 0.7003000939950192 0.45207646919118966 0.2879148773404866 0.7018700253804686 -0.45487597175027467 0.7795970450493026
Ni 7.751770956871665 0.23567199394863164 7.124173925020266 1.0498811795556886 -3.2833121066985265 -1.02225544741862
Ni 8.939993833409794 2.9325314717066986 1.3751397660520557 -1.324392721879861 -0.7545688984360811 1.2371860448553662
Ni 0.47362635108630735 0.27209960379341014 4.869137137878738 0.8194900245894984 0.36129218755484227 -0.20980638883630318
Ni 1.862745477780879 7.028612608311081 0.2897462346298992 0.7345518318842059 -0.5720231450879438 0.31016760096488516
Ni 7.468912812345228 4.296245754968091 3.779891378287608 0.25781068462972373 0.4876143425235603 -0.6719729807107202
Ni 7.795650641975202 4.139760374641417 12.685128601488834 -0.4400288794351131 0.5890669879441081 0.8544210321387286
Ni 8.244424290184241 7.27488005197045 9.169048340794742 -0.10472051753854224 0.6050811039841772 0.7593539785295502
Ni 7.483636560502893 0.9768878898320345 0.599639221689396 -1.411487298806524 0.14969991046270992 -0.5591154358873403
Ni 2.0012999568858403 6.9369445203072 9.212187282875249 0.6064494450866137 0.6409924731688057 -0.6330449361869549
Ni 0.5453417558658866 5.222639206501992 1.3986230510158963 -0.40739103879543387 0.5553225445038114 0.5792402316616734
Ni 6.491733363143735 2.0750006987468277 6.947375967872616 -0.8369912666980551 2.30961991290059 0.12036490894401851
Ni 3.9881039463714054 4.704437983440594 0.5467831524986482 -1.1183576271605318 0.9345322357690228 0.20320636702128228
Ni 5.831825175295103 6.1347280264718265 4.846240616145932 0.4066778147784932 -0.4973521386366144 0.5026046452848053
Ni 5.451112417394082 3.084761907485333 9.38805225004063 -0.9356915461844466 -0.09930757405308703 -1.2430856981692526
P 0.4390984327581584 5.712185610283776 12.543868998109112 -1.2306610992526548 1.0834975820585535 0.0388370274718557
P 4.041012860697868 6.8055332457539786 12.78536944607783 0.7443364220747956 -1.15452404977876 -1.1539149554398516
P 2.410211972551696 8.93899159807728 1.4653655463001454 1.1815376022531265 1.1908244268716912 0.014481224335310542
P 6.3489968293331 7.983004870543317 5.880426299937812 -0.1814553484974359 0.9424599752565317 0.24427639758871475
P 4.843867140653932 1.379850272114873 12.58840833628605 0.9461106846352415 -1.6532604703574107 0.9619998450616722
P 4.083489416335885 6.3774512015462115 8.112139248645674 -0.4291029765512288 1.1433778033539534 0.842613240870523
P 4.699590808923344 1.4415515236765748 3.933139538490259 1.979565343203791 -0.07055904116548492 -0.6988898597062222
P 0.28479154759516 5.991900380358236 3.6245221236721443 -1.3115186941306705 -2.088370829444984 0.21379468406008983
Ni 1.1638047793459614 7.562120698269062 2.5448905342889154 0.32606370336985135 0.3918466633029316 -0.4397301172477718
Ni 1.9065340505814607 6.820949447414108 4.686791352604106 0.9830929182865457 0.7137138120929322 0.7057012262011008
Ni 6.04181169991745 5.793375783447734 9.163767471715422 -0.08668371464148943 -0.23261695897291554 0.37124261389933483
Ni 8.913881047382647 3.349069587129959 10.69264831552912 -1.2366008617758573 -2.607274983220761 -0.6047095795773715
Ni 2.2244704317459 5.636553287600125 6.744267511000405 0.5387967789346463 -0.4914784534646568 1.5261847250521199
Ni 0.6252818682332903 0.2207432431093156 9.189557720190104 -0.3765606836781386 0.32841883386558923 -0.39695364551219375
Ni 1.5671407220709186 1.5345407400733155 11.673906862533947 0.689615890603464 0.40608080462444257 -1.8283891053058705
Ni 4.30029114121933 7.553264582421754 1.4689526376675173 -0.5876505672125557 -0.16596085240626257 0.1816047295911066
Ni 5.720987058749311 8.053416458267598 8.325582574042166 0.2248871944288256 0.6969898144700318 -0.3832851468861657
Ni 7.016740675235935 0.9781543508431207 4.8326521272830965 -1.5879364523386201 -1.223491320977093 0.3936184104913737
Ni 0.4973337723154196 7.622810603267955 6.923065383197936 0.7978791311879421 0.42084253631464946 0.1428702891353862
Ni 5.19012122557705 4.804324401171094 7.030347386559361 -0.429017615926274 0.9949048233198093 0.3010360709772622
Ni 0.9731340629502535 7.46606099726271 11.35790206219217 -0.44320856271467546 0.8738328610064371 0.048002238910891525
Ni 4.535051101015374 0.5450265072976593 10.630332967045494 0.7893168434402278 -0.17754572903038454 -0.7475991519864673
Ni 8.2680405991104 7.564052279091727 4.774350275744678 -0.9167587138356856 -0.9904640139396362 -0.15739830754823217
Ni 7.336481079998899 6.420838880213788 7.065726293797118 -0.2906894376356155 -0.39424293144925004 -0.2051521778937435
Ni 2.7970474772113496 5.423514500828756 2.527407905597747 -1.5040616679008354 -0.0768405032988225 -0.3268090661763081
Ni 3.257565501271398 4.656130240413404 9.095984473931416 0.28197314080854013 -0.5734398229298123 0.417430682419623
Ni 0.8731793109925381 3.6788687901392496 3.745312437069803 0.061410284786681334 0.8936239275904352 0.266612856302386
Ni 1.535779867393515 1.604460321361635 2.6986188563281446 -0.06897318473560379 -1.4107097972105511 -1.0657124901609905
Ni 1.0279381131781975 3.4836424585957495 8.297845255653316 0.8908239962477948 0.15543964115996456 -0.024235989729229225
Ni 5.339900740406172 3.2300769194696186 4.981539652666282 0.5643663998736345 -0.15700724275740055 -0.41166549780107164
Ni 3.9805507364563653 7.313420556120774 6.085934654869881 0.8451720027366347 -0.324455478342467 -0.48967251060416955
Ni 8.432388971182162 7.621653477020415 0.2631705981037368 -0.2557021229271531 -0.5255360572699982 0.04731241193271852
P 0.41267859827005043 5.7150465365965895 8.135542354782913 -0.26496889294105974 0.7127023401092824 -0.5429059160070133
P 8.616900495898053 1.9922616164326201 7.82886016527958 0.3608620419959592 0.8962127713635339 0.6955703084146859
P 2.017053274066907 3.58269975436935 10.748030017757802 0.5966810528459402 -1.5340970379206613 -1.720335152518721
P 4.048957853515618 6.751840765622095 3.5419379322729614 0.2729794219503621 0.3913725518799905 2.031576189053443
P 6.82362814912101 4.242152380703202 10.48039218344014 1.3450654197378642 0.7690691489347851 0.702156703382952
P 6.609377568720328 8.46210980440636 10.425651000701237 0.4268476048581487 -0.9320256672970852 0.16896595778117351
P 2.3256324217177804 8.811653043466183 5.956782965429963 -0.12062201926014708 -1.3182711823631554 -0.2791593255088289
P 6.942338368642187 4.315579785655322 1.4392017373833434 0.6047753998183004 -0.4819309189855378 1.216173447159441
Ni 3.0622480574249424 2.0457536494979998 0.3102328359495221 -0.9163895034217251 -0.32412277759339664 1.0518640143136724
Ni 1.410063111775033 1.3531452561185136 6.824451804339731 -0.013114940115403222 1.6046943885232492 1.22197796965636
Ni 7.114239950628989 1.1486710258249944 9.181489725763363 -0.8032571076704037 -0.12183429440069339 1.4694150243612436
Ni 3.177887792336507 2.044168295426568 9.235270584829113 -1.2176029805171158 -0.4626023938602549 0.03703956925180072
Ni 6.541945353302704 2.0947720684882474 2.6009783568655074 0.775039507585607 0.8130293565658191 0.41355602995556523
Ni 4.665113913484849 7.154356697620451 10.525078212424837 -0.6253038587889553 0.6483360580180705 0.5998771911857346
Ni 7.397152762537201 6.369806879328215 11.76129176117587 0.29202718261043253 0.18252261341968565 -1.4866067056491816
Ni 7.82293877671048 4.289549000700836 8.429904338680556 -0.22296658036734507 -0.6485180921218896 -0.4336666846625112
Ni 2.956712676911181 8.772693422722263 12.495154894210737 1.098916487716785 0.6334473138316962 -0.010254330738156531
Ni 0.7698843820084611 5.285324470935618 10.281310890358577 -0.21781846050750228 1.2354376947056915 -0.26753896766108115
Ni 8.405711288876688 2.8298387950451596 5.552392853359805 1.0951554780124557 -0.5178055213949598 0.66081567854232
Ni 3.9448620473885585 2.901389286556389 11.495214680607843 -0.16867053802794177 0.7765639146499336 -0.7985481322305086
Ni 1.213980324583748 3.677720775122006 12.898465325490868 0.9050625084446801 0.3076301792550121 0.056533159200038124
Ni 3.2772366474795667 8.654101649194928 8.090843570075803 -0.05519618555616945 0.7482558117338597 0.29537321626453
Ni 6.018860510802872 8.135062192946336 3.4704612417271266 -1.4484566769420215 0.414071536139403 1.8895294242606169
Ni 3.347657346434143 8.923939845628972 3.9476482616129487 -0.7824687101701427 -1.3368759419485363 -1.3785067301154452
Ni 3.898987002850288 3.005412202841083 7.035334874023165 -1.5209972673139096 -1.0466207636368619 -0.0947117271522885
Ni 5.0875925510608315 4.991505516363592 11.584600405422682 1.2630477431134763 0.23557141361554915 0.29584912745968406
Ni 8.409437782067583 8.855851621630066 2.54189020615258 -0.783363196959954 0.4088167154983669 -0.22158898329352805
Ni 4.785837714901351 0.833434302197137 1.6204013298867905 -0.48363787437431544 -0.7130828633771525 -0.10955599125397261
Ni 6.107011663912657 6.047715777148991 0.5062427332984426 -0.40444326902101957 0.7119407793529093 -0.5530376051243765
Ni 8.354715732912299 0.2563954872559398 11.592881602638338 -0.39498212360811974 -0.429993349575982 -0.7980765919107288
Ni -0.003590735859490056 5.259995250713891 5.81106979268176 0.07324121598333838 -0.705313760954695 -0.43177743805959834
Ni 7.635857885051232 6.5258093644492225 2.3463832487159753 -0.10365582371945374 -1.029097667151434 0.7184844940086982
P 8.5173329712279 1.5879689945266262 3.507585860689517 0.9956355308382465 2.7469797301439725 -0.4296364804571956
P 2.066454364729569 3.5094272403322555 1.6939581143091076 0.29400358961051304 0.11877982384508577 0.0028554671709241143
P 4.898461632585078 1.1729615657930241 8.059345135820935 -0.07251976443628157 0.6126200926736998 1.2512659199871998
P 8.833975557690367 2.1700672756509616 12.600116267215876 -1.8260437450021454 -1.0959466064551835 -0.012282416911778848
P 6.408821167453911 8.275038023977409 1.5069847351673484 1.7888277980734808 -0.024782092040686352 -2.344212563273795
P 1.8833095245580145 3.5606505770540338 6.110791913362296 -0.1733023803729983 0.060948000438282135 -0.7172439367333777
P 6.92198388016185 4.392897685943656 6.021778837866548 1.6034404615114903 0.07067474080774279 -0.6017731226568668
P 2.3974380276772855 8.983080841477616 10.333971979221001 0.16605778299544305 -0.2538028490219113 -0.6356558914472408
