# total energy = -381168.48323959304 ev
CRYSTAL
PRIMVEC
9.24402676359899 0.00000000000000 0.00000000000000
0.00000000000000 9.24402676359899 0.00000000000000
0.00000000000000 0.00000000000000 13.52956756906841
PRIMCOORD
 96 1
Ni 2.8592791694655455 0.9189376100480311 10.606233969374914 0.16964164369195944 3.8679115457895836 -0.26552142301042014
Ni 9.25317837336311 3.33838783380089 7.371449490190258 -0.33822810664652714 0.7303403649060196 0.028493479454002543
Ni 1.2376087942762661 3.1616420416364304 3.8772628289238966 0.22901664321616685 1.26530620013035 -0.8782821550270422
Ni 0.46484513100324404 6.426650790803352 4.182138227575446 -0.9357617373007496 -1.0318559466228616 0.15623436914711802
Ni 6.713724042668796 0.27438952271121575 12.032588226987642 -3.3432195816874355 -1.5234601270321053 1.903844041111076
Ni 4.448650915061592 3.1550140744302633 8.743091126459692 0.19701695038111877 0.22626556283359098 0.29119080275206627
Ni 1.0035685240869463 3.6893188227098537 9.361351050420081 -0.1251528172509651 -1.271826774857687 1.5511167124071092
Ni 2.5347029009258746 1.7893200449954845 7.84053300747527 0.682578009920076 1.2658641295163489 0.518981543980932
Ni 7.81665661068753 8.171627239302346 13.299037460436182 -0.153457063512297 -2.281861511840399 0.7121089294996574
Ni 7.398281202341752 2.0198475850058037 11.26680195513333 1.6570947565018366 4.251369727918504 -1.543416258439058
Ni 9.05876724600899 0.4235039944071197 12.024917533559918 1.005045768408553 -0.3028145030339237 -0.6471458943647113
Ni 8.982152751999624 0.7149672345936365 7.54907901131554 -0.3896897648609289 0.3152658414233989 -0.6151914529453018
Ni 6.051324815203906 2.543456994293016 13.25576986865768 -1.3562309494363805 -0.11477481645075072 0.2397998498745999
Ni 5.3365489319647565 7.734024255239931 8.250979814045973 0.3093553894762349 1.9058983525369435 0.46529973818675996
Ni 2.6184907597218294 6.178716748353406 5.2176642766671915 0.25932120773697914 -2.6295093691389297 -0.366296325637653
Ni 3.2584454901482625 7.899446114590506 3.7987505362151937 0.890868219222169 0.6506431088846923 -1.1955403442901216
Ni 1.6410458553345046 0.3120385950086745 3.3024184011706006 0.1637479039153438 1.430590595294878 -0.2645950545414088
Ni 8.308577496149441 1.8998323852322063 0.14396369997027447 -0.17940669349852328 0.1833952458326261 0.36545506068328026
Ni 4.1543673223024085 8.593607818094993 1.6297173005072272 1.2593474114437537 -0.4704879672559188 -0.06318254619575571
Ni 6.433324978143453 2.6730582498445705 4.237257586097361 -2.12841190452727 1.5999519887422573 -2.8098061785518897
Ni 6.475431520157528 6.988798547764917 11.688693791268825 -0.09905406328138425 -1.390652878559676 -0.394730669718946
Ni 5.154829853388975 1.542338137304583 10.665398514018753 -0.08263936936878671 0.35318369951509493 -0.8258481055970421
Ni 1.5687113457274493 8.108093043196366 5.295499906615098 -1.9948456664016287 1.9091885932524408 0.6780834644838322
Ni 6.58122940673296 0.05772155206241213 1.2062817118983302 -0.49382458509933014 0.9273341753586867 1.2587090065288065
P 0.9251052247202134 4.621957929261345 5.701643618716524 0.5737954064970183 0.005107239319578301 -0.11894591710930483
Ni 0.8235124459301177 2.5789263250741365 11.421065349749506 -0.4655331943538047 1.0558325120431171 0.7736706522625385
P 2.6771256216307817 4.361304105952701 2.5623915343605086 -0.4312819864804185 -0.5839273527246976 -0.4470631605740752
Ni 4.083345464499085 6.098497083897171 2.1946447363235966 -1.0528549174720319 0.6143913256415097 0.6598584568353733
P 5.789349096064743 4.653905285836678 5.777761708487435 1.7047663515461864 -0.6692828354730667 -1.9382716266613265
P 7.571948733586193 6.908467954987242 9.339527751981697 -0.25626879406390063 0.08939648558696216 -0.44071433553791195
P 0.026594140663071884 4.839571563850443 11.520778817893836 0.028696339493427998 -0.4859400401449308 0.2873943118241115
Ni 5.959503897130183 7.8302823061713385 3.50087009263325 1.2454202598397002 0.9317173920280469 -1.607659384688844
Ni 0.31445683241611294 7.960576863731907 8.865885080685414 0.2867841890439384 0.2680506171901771 0.3540774149739579
Ni 1.6838641874111668 1.2741966522985952 13.088206168300593 -0.536116918109638 -1.322791181720696 0.2305683039740029
Ni 8.566532063636327 1.6282798543418728 3.28079847132153 -0.3837785415828165 1.4131574874200952 -0.2724214925643631
Ni 1.891947230383028 5.4381222982986 12.815910417656598 -0.3254738923046524 0.4622740639865587 -0.27560837493277696
Ni 8.5832729961473 3.882787059331715 2.510221944786275 0.6601286797776245 -0.4251041398044808 -0.769854620950558
Ni 5.597101070978746 5.589252892236716 0.6274928579150878 0.014871517795193741 0.7837442344484568 -0.7097432574809583
Ni 5.629760217616666 5.862691204591566 9.414644713651594 0.17159619631516898 -1.6472469171734792 1.6301220845677344
Ni 0.02166430117764791 9.257707946488662 1.3438282084731772 0.6392829466768668 0.24606228584454395 -0.19529482548368948
Ni 1.8736070812379293 8.95521565794276 7.417544829762856 -0.46527094183135354 0.11858262023261512 -0.11493525328801496
Ni 5.124999378947829 0.8564868138814694 3.158816142647692 1.1288292161158173 -0.4734131113225137 0.11162444374722712
Ni 8.701078873518842 8.687018708776053 3.5206772688294206 -1.1106533165377388 -3.6582452820755704 -0.551832786182998
Ni 7.315279085822679 1.7232714736034833 5.902192779857107 1.6222133712436189 -1.2748398506523981 0.4205072644624177
Ni 8.899326271989501 7.05062259891533 6.738617282403088 0.4118156502256908 1.2851080653476255 -0.4611414930440123
Ni 8.090353755792412 3.8873905846715635 5.270983823173708 0.5522117667889715 1.0192040621868061 -0.004122763919121932
Ni 0.8743342563988294 5.916066215258803 1.9206434627374283 1.0864278683314708 -0.10593279267908852 -0.7459808996567541
Ni 6.593579426520184 1.241352625124938 7.9962449410889445 -0.1971215942797831 -2.2103827870741224 1.3642219380616571
Ni 3.849064849613307 0.8335191049268764 12.574393578602079 1.0725847918007916 0.8755760689497888 2.3212323003285382
Ni 0.24676005104801726 3.9189219600414886 0.1212770094300016 -0.06784601310969605 0.609623471939221 -0.3213650123426014
Ni 7.514857624150643 6.400952396335925 5.145240100000303 -1.4932573781964797 -0.7238845819783469 -1.8100352853890311
Ni 5.020356995720754 1.977537674402418 6.410349873967431 -1.2933996159324563 0.34038346242663314 -0.3173846875386147
Ni 2.1369971364754794 8.403356502794955 11.671267876372944 -0.7802202804555982 -1.2784280822242886 0.07621701078221069
Ni 2.3972164905251416 4.767745475716665 7.873897473357027 -0.2561672354890298 -3.9785911091250385 1.1067650372269262
Ni 8.73246234446018 7.525035297642958 11.078267255607607 1.5596062379353592 -1.9187710947345533 1.3403996388310786
Ni 1.90975122597449 5.731148703414773 10.30420018455764 -1.790468161890381 0.7688727166532628 -0.15699644412412317
P 3.5206892860642434 6.355388588303571 8.999746908183026 0.4466484416341598 0.034584422843088825 -0.3129047973903901
Ni 7.640391507915986 9.148452793894952 10.044026126239235 -0.38979723697307056 0.6682924465353394 -2.402095808743824
P 8.927150792617903 0.5403115168856822 5.192093449769422 1.007309110521433 0.26410860182329354 2.2458976921512805
Ni 3.0959724753426894 3.813133317492844 5.782333804136208 -0.554727848342606 -1.2629515838552443 0.18685980734245886
P 4.4317158579880935 4.425559336148055 12.85442842847202 -0.5794415490392021 -0.6253010305754779 -0.15520464233102305
P 2.0990134304083368 8.08660992494374 1.7321226292518865 -1.0465482585277135 -0.9950392920151444 -0.3889531438052205
P 5.429432913118967 8.096066564346682 13.266363523355405 -0.17970596990649698 -0.3163179368369972 1.0693089492629972
Ni 4.4103159359765485 4.611096197786804 3.978950821189897 0.7453836323923873 -0.05285673878971542 0.8011878838462009
Ni 3.0499464659709923 8.425089209770825 9.404537294762859 0.19106613211432255 -1.5371283685478172 -1.8172839965316445
Ni 3.3932511327808097 7.218688249926944 13.437390960549521 -0.2559746598622495 -0.3206618156279897 -0.1875941144053221
Ni 0.6965790165092463 7.676258331848941 13.304327816966294 1.9138944833685425 -1.3249118276081246 0.7042516382387678
Ni 6.921677669265642 5.726609886262432 7.4607449401458155 0.8862330344430028 1.3008653281818823 -0.3452611022339086
Ni 1.1121026425912834 2.1601996437104583 1.6389178803681732 -0.19437668454479426 0.25829430913436163 0.9703934684420062
Ni 5.379542900550369 4.001360190926564 10.94738200473536 0.44744908315858417 -0.3278951001516353 0.2887078884292124
Ni 4.87897885004276 6.717735950294286 4.956597245361174 1.1250391529457657 -2.2622277967698716 1.3322309869773572
Ni 6.829671870656182 3.433397941116074 7.52020714245219 -0.5431745962873678 0.7405604999721311 0.1600005210577696
Ni 2.6309517078304956 3.1831436479426296 0.28241980878094725 0.9989339990838603 3.1333221757992233 -0.8910700508203299
Ni 6.826334776986132 8.310075028488908 6.501430345495527 -0.09072368903881795 0.783069062758303 -0.6321000557751824
Ni 4.572798194808908 8.400111849392772 11.338413581845654 0.30948625862714446 0.2648105129863246 -1.6004803504419016
Ni 3.6105597144859423 2.362440461753034 3.6645513017398623 -1.4402088351109328 0.8272344444216077 0.712754019282824
Ni 7.962869382375044 5.863079453716613 0.6969755852584019 1.5733606114069743 1.3441652765210979 1.2284612633878587
Ni 0.7612585475341159 0.9388418485254638 9.717436508665388 -0.7539004116141468 0.0735489770317443 -0.47956061898114827
Ni 0.14453775403373748 5.680925905881848 8.49334802796756 -1.5020418092573293 -1.003488451223762 0.653573652267926
Ni 2.9175720023833844 3.849166533907963 11.299543373609653 0.4688995397228763 -1.2367067912261025 -0.19642328266117784
Ni 3.9545576833047726 6.21540629067039 11.227308699491896 0.5454662205350218 -1.0052769105827528 0.7848734629568935
Ni 3.8596585043110307 7.891514739607394 6.514310972420316 -0.7922705267519129 1.1047590625404908 0.1484588389667572
Ni 7.112696238788989 4.6286875807621675 12.699866451790628 0.5081050062777444 -1.4667009678641902 -2.660216054194167
Ni 1.8647513035761325 6.656937986117213 7.310986159782868 0.032659180795917946 2.7949524013685085 0.0027333397707630346
Ni 3.542690069816932 1.5110101305239683 1.3461919061225733 0.15921916280705484 -0.6028897527598133 0.8881569909385929
Ni 2.9722504208275677 0.8112511688000477 5.450048017256308 1.1026787829726947 -0.42899190489466116 0.009631866662809218
Ni 4.505381507452454 5.212826877449635 7.276593758122414 0.38913466368840727 0.9803510938753502 0.3200018134464876
Ni 7.643284888300268 4.224159724543082 9.888544368892552 0.37064611796591646 0.7155791474364451 0.3196562571816108
P 4.600909280267701 0.9260111393453242 8.583699145782175 -1.979479982578836 -0.42057514158587567 0.5365989999523791
Ni 1.1451685264078248 2.120644453089552 5.843230679399901 -0.44331423505460427 -1.0100018268622477 0.11363427508840429
P 6.8478918474530515 2.1507614923610903 1.8374915929844082 -0.523320280565602 0.7410533804481495 0.8166199021305549
Ni 4.820769213366002 3.5456296703351486 1.9374204469528717 0.6578817927249766 -0.350794373347312 -1.1817594884559453
P 7.775724060075384 6.913644609987874 2.5834845546827294 0.617217482236395 0.10695763439917708 0.4535587956007479
P 5.1357871582080765 0.0027251390967616505 5.269495534861027 0.18495719100310726 0.16332058656993806 -0.26507456528098866
P 8.08528802911322 2.224889343164793 9.17178841511566 1.3160587480928692 -0.2560926734973525 0.04633256451795246
Ni 6.7529187162450155 5.060309679493494 2.75982915608464 -1.7851508634425257 0.5114127304947386 1.0050488537323468
