# total energy = -340856.7405492064 ev
CRYSTAL
PRIMVEC
9.43656428971261 0.00000000000000 0.00000000000000

0.00000000000000 9.43656428971261 0.00000000000000

0.00000000000000 0.00000000000000 13.81136570053304

PRIMCOORD
 96 1
Ni 0.7928025618710184 6.168625404602256 0.6375021937000381 -2.106771186329043 0.19463379486092286 -0.6877729238574541
Ni 4.0136255456884475 4.687584961556871 3.740932431433928 1.8659855755024057 -1.3224402261391806 -0.9378566721565654
Ni 6.745709052292225 4.730813862202253 0.7951428297950645 1.814190188097669 -0.0375483905674192 -1.1791793864335949
Ni 5.027905213221374 6.678803812044295 10.829008526167776 -0.20029562113239055 -0.8130442689641546 2.044612967632743
Ni 0.08775344155678003 2.9168042510118477 1.7976739748867114 -0.17020214418111979 0.43186845511150784 0.3509712652448085
Ni 1.7913241108298945 8.178028514322087 2.6975805968832556 -0.23149364400174968 0.1402981575328358 0.2889562569945927
Ni 1.7231826806704729 2.7794644955015007 5.302763075305635 -1.8511323125396573 1.2280090063417881 -0.6692985192023505
Ni 6.347731393305458 8.460228967018043 6.344112470930976 -1.8050740847290139 0.9038157805217725 -1.400969944214968
Ni 4.202649363376215 2.61747643427499 8.361663110189603 -0.677433489604659 0.8056263792335288 -0.14382493973917163
Ni 2.931374306151877 5.781943312974695 13.039766212028404 1.7942751943412971 -1.9300137575279084 -1.7948207824321216
Ni 7.036543961240206 2.739576138586409 3.098096691642475 0.1590191309811068 0.5818889821384301 -1.0729084936887974
Ni 7.046612775252131 0.533699043735123 0.6451760077154989 0.3527867211869924 2.3888268595490603 1.38077907108939
Ni 8.158721303948708 3.761556042514584 5.825454366889954 -0.7061339428631451 -0.3158119437348561 1.7856604560890923
Ni 0.9992755304392442 6.08844291851105 3.041994430101997 -1.4059560845756498 -0.16550782402924402 1.3056609497983127
Ni 1.8253523613706608 2.816370898126275 11.520350093310768 0.34763603022398837 0.9052748815658022 0.5546545719025092
Ni 4.343792054263138 6.934647940902105 6.902947690751911 -0.8585777346195793 0.6421795514983714 0.26552347989294917
Ni 3.4576514921359425 8.568994806100925 12.318992001114848 2.0706387022725434 2.4680042385111753 0.9379474320981589
Ni 0.8000573924355612 4.9730410289052305 9.659254857682408 -1.6258954480808967 0.02129516193335042 0.010965497872568212
Ni 5.959369593248542 6.8934856478186814 8.769291543393797 0.44315174133481094 -0.11219137199429065 -0.9442705461027092
Ni 6.750276349369798 1.8684680232455255 5.274919548948013 -0.9099694588279942 0.9002108367793336 0.553708405939156
Ni 5.098943668593224 0.6956446404226888 3.9506581836852934 0.11065745184826749 -0.26208257253220024 0.5229212453549704
Ni 2.478456970335287 0.5336782832938614 4.330567653179435 0.05261479798223842 0.314424062248394 0.5390587743467813
Ni 8.226249357434488 0.4701466147509579 6.420931765537786 1.51128106846741 0.3069534649029617 0.9096920367968914
Ni 9.151702646059974 1.806526415771984 4.427164099057278 -0.7018455999004364 0.3488123099202767 -0.8103710930073657
P 0.8786064092620407 8.20548891617279 9.577450226203524 0.5064584718132568 -0.7037474449088397 -1.0912060064464046
P 1.052507189147082 1.1103816374461724 2.616991394874603 0.32147531266822055 -0.9736777956202328 0.6570114743048814
P 4.324220620091881 3.309676728761079 10.85094098870434 0.42202781487200225 -0.8769631791053024 0.14092267849071213
P 7.4761368683924685 6.726354659097796 6.637825531962965 1.0163827906879268 -1.1753386725312662 0.09136080840218459
P 4.991112049367118 8.852941023175706 10.693588167817715 -0.32493601752331136 -1.0752461406830385 0.7443937576752921
P 0.08164137891805169 2.2123836058739865 6.657092165110242 0.4134794110813588 -0.02935942699872363 0.9398114818900911
P 2.230964200803207 7.537049890367135 13.629221195397502 -2.1215889680681657 2.057771102281256 1.6372741222314837
P 5.140351312346103 5.249787147487885 12.866406147272587 0.17545285105709782 0.0014333900124168862 0.8277005854247487
Ni 0.03364512603384593 6.558997192835873 7.855434848525812 -3.480946121838354 1.4831945946438392 0.57149941137399
Ni 6.570783461533993 5.530402257396585 3.1041323181111036 -1.2945321868750026 -2.2331049112619863 -0.8758511769880465
Ni 3.8285839580972416 1.5610247612881851 12.313260232013777 0.39474892455139116 0.33809003840676616 0.6538209923920416
Ni 0.44152079722033816 5.818377887388976 11.900838967847394 -0.6618921994359505 -0.4182845457794861 0.7000759095945234
Ni 1.531686483159721 2.677804389268645 9.029263225436999 0.14454176330053817 0.8673871053810932 0.43529265030170844
Ni 9.125770967611269 1.0683134341986027 13.618931565783067 0.17760589284435863 2.0580382398997137 -0.8477127668806174
Ni 9.3118883235224 5.739648632186089 5.41134867601211 0.41332565911231395 2.4671470327172025 1.018189761989679
Ni 8.962254182982761 4.258315655650198 3.796523231194232 0.006668670269427224 -0.24926639460413846 -2.1799892623839296
Ni 4.684385966289727 3.94520101860273 0.9843195198230322 -1.340614325945046 -0.3316905626383255 0.37631025823022934
Ni 2.1016643979996625 2.184243771400175 0.769115842047841 -0.9401446968597937 2.4575398486447417 -1.6628537704728008
Ni 9.432723528229696 0.5973175286687571 8.667598409186207 0.6501255458183255 0.4677697969938073 -0.7514630058172478
Ni 2.1901982434165985 7.292406963226434 11.255033541299097 -1.736036879524694 -1.4809837030354494 -3.038888642008986
Ni 3.846060475013908 2.7118326398094115 5.441402245707681 3.3013915899080564 -0.48768916162555365 0.43285987249049973
Ni 5.80852611435388 7.995261138705459 2.754041447863708 -0.6457405293767524 0.13240924170306229 -0.6471479512472403
Ni 7.910841635284023 3.0158881752154105 8.505950064271252 1.0248892854970413 -0.5984638557779757 -1.5452651387223386
Ni 0.1236425825597314 0.16235231260501087 11.094849751149514 -2.239088382538931 -0.8318757998483608 -1.1484295068452481
Ni 5.728117150721636 6.469510254433742 5.0978716748989825 -0.3610566745052685 -1.9581596238345054 0.24743165538824485
Ni 7.739671797081316 6.8754523736136335 10.41098005554789 1.1696753035979017 -2.7345265919822843 -1.7258658525289632
Ni 0.9875647542548041 4.534099244683447 7.223109553951304 -0.5619914718835547 -2.255736275508257 -0.5325230301107925
Ni 4.2877105531639215 9.050731409014437 8.382186693689635 -0.153383015741252 -0.3140785059835171 1.3902726124021219
Ni 3.5536024770218306 0.10756645177180861 2.0993411158911943 1.6760355592703973 -0.554751759602006 1.2504472807406464
Ni 9.40218680644658 8.357606331235782 0.030344215873235818 -0.7542631942702043 -2.4745911477000737 -0.8780677250233909
Ni 6.273635491129613 1.41730588837197 7.712363323914393 -0.364680644411101 -0.7245654100954553 0.44114139577300154
Ni 0.27763598658764554 8.9726249670494 4.606670198082979 -0.2198159505535053 -1.3101395543949566 -0.14823181055761567
P 3.833651393077938 6.656580703330068 9.110570549982022 0.3726148116565131 0.13728688151033777 -0.5176260583943021
P 4.411320107748918 0.028759816742399802 6.371845589487342 -1.2524517127651849 0.7658794383528938 -2.236171723112768
P 3.085907481652595 3.9863066923008934 7.147492477624829 -0.27645915296884643 -0.2316923902761171 0.04230338875390134
P 1.7380924521220567 4.1298840167539606 13.763578052961112 -3.168336744201195 -1.68981332978078 -3.8494191434123506
P 8.325135113789644 6.011327315788048 1.8611924322397209 0.047861342457653056 0.5326248457959795 0.9379165788602235
P 1.4896088433479413 0.8122466024254413 12.372842698434852 2.9057926586515443 1.3867046925452053 1.1243984340379731
P 7.356349122312467 9.394694174463948 4.544671027567756 0.13248843168042987 -0.8361780267681406 -2.265107946531144
P 7.734972388104804 2.53130172991052 0.6585202531646663 -1.2411802536164238 1.5307461191705571 0.19224549713440442
Ni 7.463605111121771 8.610260901390657 8.201036745178575 1.4847087172955207 -0.12446761825848239 2.4726605063362643
Ni 6.617343469345457 1.31116341413943 12.349557032590596 0.03150604102808122 0.886131732978448 -1.0296828502309427
Ni 7.235749831710415 8.582602331691549 11.51820893689155 -1.8240197725935812 3.6677933307753223 0.6824103739939602
Ni 6.094359644270633 4.068376491234073 9.603553650120848 -1.5668145827583404 -0.28662735175109993 0.5969291643010043
Ni 8.694312378807908 9.240576207788463 2.214017075138714 0.1197367884417164 -0.15030823347067018 1.060735348661373
Ni 1.8542188112886322 8.328239743414688 7.227542851817098 -0.36809532651960475 2.1244560052033155 -0.9669253073877476
Ni 2.804452517529218 5.29286506310591 5.404304280829447 -1.7362811343250162 1.1907416373498978 1.6476068716160592
Ni 6.502302315063016 4.934832380419493 7.5138529282264495 0.36279216913913653 -0.0926846694199307 -2.0168967326643976
Ni 2.141430079580026 1.3978948757922816 7.266891437259385 0.47202137318130966 -0.8369033349699393 -0.662769202724265
Ni 1.7404138469176833 0.1036446156861895 0.7037374378890674 0.5925989123567665 -2.283922508134486 -0.7229911236298
Ni 8.817431232053993 3.717572216732412 12.929854774050444 0.8957425165953349 -0.22797277533268478 0.8651147644071487
Ni 6.676067208423435 4.1847482010701045 11.86555093598461 -0.01600023208299825 -0.23220275425363235 0.508724385029298
Ni 7.632793270840407 7.219490631576822 4.001940248227374 2.7831063006632006 1.6993312965735443 0.5150888937947452
Ni 5.390863782425338 7.41744143900712 13.160090898611946 -0.6084646757444295 -3.079714674886412 -2.2270275947196545
Ni 3.9223362235222314 7.943567639963828 4.3940719556861305 -0.7817858251705052 -0.4301378455736463 0.06895904366821672
Ni 3.108404250728909 2.5016520451631306 2.8957050370950155 0.20264586653212197 0.25496164521670284 1.2321867918685618
Ni 9.067254832945908 2.7354051772056494 10.631920220706258 -0.7902534963218842 0.2936819446050361 0.09504648478388793
Ni 2.5104091767498833 5.080136596122966 1.443716000626114 3.478906979921138 0.07618641465459138 4.7326496435836045
Ni 5.048222135965209 1.3473526378842549 10.071482672282489 1.2457388195213837 0.9780088188954189 0.2747401133952107
Ni 7.082282987965413 7.88006899939566 0.6067814589148288 1.6356985502142474 -3.3174841245945443 1.349536311025024
Ni 2.611823932313282 0.29927308466444064 10.3034862653205 -0.5321435352841868 0.08105659826269912 -0.39905140858148697
Ni 2.1523387478066276 6.361263426382402 7.981366741562856 2.2450165750979076 -2.3018364123004296 0.8018005777295353
Ni 5.066170481092368 9.301989367666254 0.1526364260945358 -1.7878173545310951 2.6535759231698295 1.245473481675139
Ni 2.9793592351590306 4.763379445290491 10.050876047017411 1.3756762026451854 0.46386531973307854 0.0802875813071585
P 4.3774334056713 6.289120892997999 2.4868054986917527 0.9048861307678157 1.1391092578855866 -0.14319964745034694
P 8.087720594833698 4.94961003997214 9.418536597596589 0.06106704251464967 0.32731968726413946 0.11958303647267148
P 1.7096412110293195 4.103546566044233 3.46372486486141 0.08038605455823575 0.2052984736636206 0.45044390412085006
P 1.7498126648707069 7.377949417788843 5.099611777339282 -0.010313209000549979 0.15332053793443273 -0.46272554970168056
P 8.109273707489026 7.049094591639324 12.565055131169133 1.0357812498191967 -1.124438029026657 0.9289452285995484
P 5.974232181879077 3.9063412471865133 5.319488441711197 -0.5947681520939434 0.8440759414589785 -0.6812474640341106
P 4.0894955219357465 1.8282493865830889 1.0739036548365257 3.0416479499216775 -0.030783303929443756 -1.5425197147667178
P 7.639568723943088 1.1971414087916539 9.777880962708176 -0.8382647340938403 -0.2770098832659939 0.4054141175747211
