# total energy = -381173.64671179245 ev
CRYSTAL
PRIMVEC
9.21631358857750 0.00000000000000 0.00000000000000
0.00000000000000 9.21631358857750 0.00000000000000
0.00000000000000 0.00000000000000 13.48900653613337
PRIMCOORD
 96 1
Ni 8.967583900244021 4.028911567371907 4.282476321777663 0.6153315780675919 0.6970913730449028 1.3643075557969278
Ni 1.5014204610064965 3.846861721345835 11.465237190758197 0.13922857861774085 0.6745695377933028 -0.922589718695166
Ni 3.4856836007608236 5.820019202999549 3.845364991988541 -1.697128889605587 -2.1603300933921052 -0.5784982112893262
Ni 2.5754159380029122 6.956058904338976 9.469539370501439 1.246619165243808 0.8835490598529364 0.2846085215488582
Ni 1.7388419202014358 8.63832187426683 2.3217949640831197 -1.443127037198992 0.10147038603236073 1.0796920922695339
Ni 8.465497558330977 5.048088410026042 7.970492110292376 0.5639305978877965 -0.03548919404554533 0.11851320044726041
Ni 5.50629588204944 5.338890758614136 2.2944261986925953 -0.7242190824996302 -1.2882214141656265 0.6800048498762611
Ni 7.928877688697605 4.350994084917248 11.779652656872916 0.4277456911923859 0.19104196374460644 0.8124673134147621
Ni 6.969385694059713 8.971611429364327 3.2729996493732343 0.38227007535809 -0.19683491627729974 0.44560663063320677
Ni 3.199673735336479 2.455161475847888 12.717084482855515 1.746949926892772 1.2785435247562302 -0.6398599022262593
Ni 9.098243580652648 1.4380767364210063 11.19797975897478 -0.91906293648883 -0.16815528895442008 0.8501679132893294
Ni 6.917838851108069 0.1951112059100463 7.273097333354471 0.5920726075396513 -0.40094913982483205 0.08238842970024521
Ni 4.712734400642622 8.282369403593062 13.002917395055352 -0.6510205468287692 -1.0028729291269503 -0.8030753306769008
Ni 9.019047796371677 0.7149536979447837 0.36430705911211353 1.602542632287569 1.0094400408215065 0.4029062635512029
Ni 4.54783611455451 5.941683761162369 9.235518731090007 1.3340698399583089 -0.6420497107887265 0.6327626290598457
Ni 4.1106049726862945 3.352471001436122 6.547577131664996 -0.9126961137305378 0.3698814718857501 -1.6696224566552023
Ni 2.8070311195186926 8.6432249531959 11.247687025696646 -0.3820515315893807 0.2407313605499338 0.9559464397787408
Ni 2.505095463888655 5.398686202395697 0.11089253062091332 -0.37880319985541216 -0.4901070270384269 0.41846272322856315
Ni 4.619686496755658 1.0131585897581177 7.063491630768213 0.7703469872059442 0.6368427126664904 1.0205608333250165
Ni 8.073214378750473 5.607804361983181 2.651061598217198 -0.09326702428596195 -0.5351458124456203 -1.0794326679605604
Ni 0.9382668240107446 8.561623711019275 9.650561597541436 -0.9561582986792307 0.5695988519171674 0.017902077091401427
Ni 2.248863508275996 1.4127595224771183 7.188021540884129 -0.9215509930180064 1.4345644923409615 0.24633996498596286
Ni 4.812556295155273 4.0340911357142675 11.154329453666794 -1.1881499653633216 0.21473005139016568 0.9667324746506512
Ni 5.259777921157152 0.20986560263475335 1.4637865653317708 -0.9185376601129794 1.0934444088586202 1.2442696911750248
P 1.667931602005486 1.040964208421645 12.460564056621655 -0.7459613592727282 -1.9473759029554398 -0.25286696747120324
Ni 5.448574108867581 5.294643236173436 5.115327870444834 0.6843636410655891 -0.5754547964773121 -1.9538540544806156
P 4.882111815226086 1.240626430074499 13.163368809746332 -0.1549177072182235 0.8841576399712127 0.24539148502976443
Ni 8.021151422227348 1.9026618975777039 4.238785464689059 1.7061002398662617 -2.0633953904465687 -0.9077523965720173
P 5.607776713041851 0.6804892925777765 8.995522233825929 0.21909115657233882 1.149381329235556 1.5243895808249102
P 9.013407412340493 0.5402695298888449 2.6409992268360782 -0.4632248579356022 0.19040047350586564 0.439008922811031
P 1.4265655605142293 3.4041007912117536 7.013635981394547 -0.5742831447667143 -0.5012306477554143 0.897214216044855
Ni 7.179010750904901 1.7303352625857793 1.418193461079709 -0.7030090240809183 -0.07460852864451022 1.397702843427922
Ni 5.300421864911264 8.102780313345301 10.549401952847937 -2.1384752023005427 0.05504526180060198 0.2772273985934387
Ni 7.413575152829143 3.949033775871478 6.239555944048373 1.0459836442734953 0.3657779912403378 -1.8291025864331274
Ni 6.79736319742241 3.6932995012027474 3.574573103871858 -1.4272245070361227 0.3055069622644222 -0.44731949955925543
Ni 2.5562828706030167 3.5096460165795746 1.5073152152979092 1.2622051926075228 0.945731446918952 2.0001357111559748
Ni 8.40903842013649 6.701034285831032 10.690563622804822 -0.1354025200034313 -0.3796323806249268 -0.9810530050383814
Ni 8.43523118388914 8.591908518088665 5.626022249425074 0.2615794076435366 0.19861437677522567 0.28087990774436145
Ni 6.100084546038088 7.38516125745637 1.6332358671626899 1.448842085305898 -0.2764198150904788 -0.4419006425365292
Ni 6.227094566191245 2.1689857167755675 5.5211175578647165 -1.682332962243335 -0.6586132715743624 0.7062085048548224
Ni 6.97687855715996 2.3667585941042506 7.945983167066681 -1.052911224631264 1.5596350342907657 0.5273864802151755
Ni 4.821265711674012 3.1885035630394305 8.672311639474351 -1.0070998227241041 -1.2655072603975623 1.4087195062533997
Ni 3.7071331881811878 7.061585697079245 1.9180291791685444 -0.07299850384491299 0.9183186021236377 -0.9547519052500072
Ni 3.5293320628060565 6.258881632406195 11.800412403654356 0.7110673756090206 0.5649639242483173 -1.2521488368127855
Ni 1.148748998037142 2.961376726332778 13.476691221047165 -2.0965911604722476 -1.2008219044040351 0.02499729337528598
Ni 1.8318437425195186 4.555614683381828 5.374101685397036 1.2400420262469225 1.5762384471754014 0.3385505229829524
Ni 4.075619845590918 3.605136243617297 3.671559138635497 -0.06638536940376955 -0.5277158385301363 0.5198384926645886
Ni 1.5662019305411121 6.884779933591969 7.403616925793696 -0.5350360263406333 -2.1408087355297263 -0.2726582911655175
Ni 8.86390037025904 6.079578247885503 5.4795446096819385 -0.8988005866953682 0.22916139632414725 0.49601053700705544
Ni 1.4214044247994215 0.32604092431232357 4.864432160508735 -1.692894282698949 -0.38354045743008136 -0.33646638676041407
Ni 1.751735543174679 7.148136099753818 4.942210475730891 -0.10846867172706481 -0.6085891171374357 -0.22699961278613812
Ni 1.8951690344774563 7.713418705231928 0.08976413128841854 0.6856839025389094 0.4509408983619266 -0.3809696113791116
Ni 1.0830919786937645 5.2938598495024385 9.660867279606256 -1.709393823015869 0.8441060233659656 0.9269271697282552
Ni 4.512316441260101 1.3153246532325666 11.01292447302621 0.18677161850402674 -0.051544961956827354 -0.9289585983359873
Ni 3.234198046743033 0.36676689325904605 9.07190980729922 1.0009124629664699 -0.8866382403012214 -0.08469213813275737
Ni 5.751459044816593 4.901760996197462 7.3675470385668325 -0.8271930496607108 -1.1710199905512542 1.923853137243151
P 6.833131711188784 7.629080217863701 12.96452684001958 0.5642946660954345 -1.5521641798350172 -0.018544081550774517
Ni 2.644741050229314 4.689813428280609 8.26266400310765 1.2673664250934884 -0.6303601902659403 -1.0468526771420101
P 7.03162346099203 6.408001589309038 8.89140000730519 -2.254604475896659 -0.5136454764799993 0.7513293084528608
Ni 1.2752613372463701 6.427899610752377 2.0959353705207278 0.6005289658371206 -2.3665197114114274 0.2784931526797397
P 0.9965139270778621 8.857043432809368 7.336387603320057 -1.5235724842402534 1.365689780856435 -0.05179538740473661
P 6.908392129487215 6.710140003842158 4.069970245245959 -0.0894525356358782 0.768241253716851 0.6376207284830954
P 0.8006460618067699 5.99935023646157 11.982446581947006 0.8871956554665883 0.37759709536245295 -0.2821142943720948
Ni 4.084025123755034 7.705575622208176 4.5539695713727335 -0.07031427214453051 1.5325716024150702 -0.946589166933557
Ni 5.696234892668148 8.825744831224569 5.398921218396995 1.0331810931921883 0.9023685065522845 -0.24992433990311153
Ni 5.314854612285175 1.6450290622710262 3.353866351341875 0.33225697666475684 -1.0239004392212108 1.0479016872318145
Ni 2.535103781544752 1.235548241183679 1.2439221838809547 0.8638670080429769 -0.4452723872222396 -0.740908370229853
Ni 8.656468796092646 7.665927040341919 0.8553393542816912 -0.6554726690628517 -0.9010575010503451 0.42111558747037797
Ni 0.08671721795392659 5.106934573488628 0.31707437263922256 -0.13111391993040644 0.02416502728197774 0.8407702741245133
Ni 1.8418526592807354 2.4651519599815526 3.843260907553379 -0.18790778899099894 -1.1576186295436837 -0.18725550011898073
Ni 6.132092803783674 6.108019792199605 11.453947206382056 -0.1107222436479319 0.1502095031092768 0.19980865419364296
Ni 6.146000221272326 3.08140078064339 12.865436720820782 0.33330110165855503 -0.28672196834743524 0.22151622107406366
Ni 0.16499597901414229 8.341381460703625 12.120763175841102 -0.222822598590313 -0.11870937561846652 -1.0361270631943895
Ni 8.71967427597149 3.5184291636085248 9.91211320946586 1.1369981250798549 -1.2512486935960192 -1.6038626366505733
Ni 8.800934514538385 1.2204611355316421 8.538338694263093 0.9983583290860484 -1.644480924392568 2.536297366460619
Ni 6.918548507268855 5.478683805975218 0.199223525117095 -0.6206524760598731 -0.011082740176722849 0.6034947333336639
Ni 9.042650775953145 7.563902446836699 3.478342806837887 -0.4737671522278228 1.215631458613042 0.3329046375510847
Ni 4.88808398655322 2.8268277615104913 1.4362012165675002 -0.30037426902354725 0.6873780024118807 -0.5080276160725896
Ni 8.98064341686524 2.0249162998222157 6.581313448243663 0.402040830227114 0.8590292203347011 -2.440133737353152
Ni 2.955579664967395 8.56645305943813 6.452601174935999 1.1793609063167818 -0.8447462280531258 0.3894830481667615
Ni 1.595850811959928 1.8767548395521239 9.766917558969025 -0.21333702769738097 0.08509143045370508 -0.463722366397311
Ni 3.4579977941763897 1.2703674746310791 5.138906887610485 1.6525742429236636 0.5367028725200951 -1.9555388983822064
Ni 8.447663991173561 7.58747777747684 7.966391772293237 0.6273003203936939 0.7141676118008992 -0.27960592612794427
Ni 3.825129653460983 6.271701524869227 6.432044187057643 -0.7742956874410472 -0.3162420892937392 1.1962738800220365
Ni 6.394591852764313 6.824763298279774 6.638533853956085 2.084319799304062 1.5468479098284262 -0.9806197741557047
Ni 6.512256530748157 4.343252381345036 9.761535231723583 1.511176681679062 2.2118447163316293 -1.5286856370971027
Ni 6.84796076005508 0.4629437356731134 12.688353546288834 0.6183392545456641 0.822642711285867 -1.0667627858023758
Ni 7.330674410410041 8.885945792812292 10.088994546726102 1.6732086313445635 0.7201210011708565 -0.1914345711973348
P 8.259476080172378 2.988269929932437 0.0990099372689458 -0.7781785674352212 1.0053393883895718 -0.38372377708548105
Ni 6.774912257062995 2.2679044125381265 10.553110597511578 -0.031476730452042564 -1.5766624220866974 0.005502417875467943
P 3.6150622135545256 0.04073610689187654 3.03862786840692 0.9961034716136006 0.7980994747288642 0.4486338474953047
Ni -0.10222274425141371 3.115584088440216 2.2278844132266795 0.10043217457583348 -0.4056568297131465 -1.1495265965641688
P 4.67633917753945 5.176794231914062 0.20834859738715092 0.1333502654600929 -0.7928896483931507 -0.02841120415284139
P 3.1854621794932045 3.1327079994368465 10.180463696063162 0.07867087163934193 0.4897452728236339 -0.17803963794766758
P 1.7321969579686207 4.42760008502704 3.227690407585487 -0.461938792134327 1.8474931731251731 -0.7946403125356702
Ni 5.068124676176027 8.011981190019789 8.127396165810802 -0.7695951966415842 -0.8224030844712353 -0.41180793691620693
