# total energy = -340860.9704433159 ev
CRYSTAL
PRIMVEC
9.45681114238331 0.00000000000000 0.00000000000000
0.00000000000000 9.45681114238331 0.00000000000000
0.00000000000000 0.00000000000000 13.84099901599931
PRIMCOORD
 96 1
Ni 7.346050830655999 1.205280026284678 12.168397484189068 0.09555582032013867 0.6584363796768661 0.813724839970947
Ni 3.2808987447652407 7.042364257117306 2.6736381337394586 -0.77432936889246 1.4249303116853071 -0.9942211669892234
Ni 4.979294726912079 8.13027580134834 9.273538060707885 -0.6614782518269834 -0.17180419856091703 0.40765766219325916
Ni 0.3840609564105104 6.528897243856109 13.580649277311716 0.5474284864677154 -1.1677320638286017 0.4032795877302216
Ni 2.195285205621553 8.072163697390588 0.5691695217611072 0.811951550120608 -0.19722289574433774 0.6119462065351268
Ni 0.45915938439249476 0.046405517547775554 1.047298323456914 -0.1687517848878384 0.2832005854577381 -0.16179309418181811
Ni 2.8354356598295416 6.303758942973736 12.993445616861036 -1.7130648441095528 -1.5358150490530325 -0.6159471001644038
Ni 3.9336456713038603 5.099812327048382 6.339454621997159 -0.7112278124462847 -1.3456359475293536 -1.0923226365493512
Ni 2.978791458673407 6.884728673574304 8.123365709507505 0.3398026502224987 0.98499733439811 -1.3740134702307822
Ni 2.2550049674593393 3.359617240020622 5.303801415678336 -0.5919286257626193 -0.13841919534256808 2.051568058794338
Ni 4.980429544239162 1.019898159094475 12.144839622159912 -0.6039513612551082 -0.5182899172305461 -0.7995734881712294
Ni 4.878882307087278 1.522016999084834 5.679418385494237 -0.4710284131404211 2.418669396831789 -0.7159833248533991
Ni 3.0232479274619157 0.34910101728748116 8.978877067643934 -1.402361939466488 -2.0784653974058136 2.5817400721744503
Ni 8.197665036955 0.9279997062661205 7.950297555997267 -0.6145589615676255 -0.3021467875429377 1.6942924485980564
Ni 6.904436667821327 7.917327329921058 7.79126425577974 -0.0876789886752232 -0.11363607486061719 -0.0015210646302167353
Ni 7.698941192134834 2.0835813533922676 4.317408738166011 0.8610884168565751 0.6519502577318902 -0.023908174076165276
Ni 4.886031656247907 2.1164532286334627 0.40507588194589117 -0.10638453550452646 -1.239743521169897 0.38647948545374733
Ni 0.6544018684739501 1.5139219688183028 12.75027317728909 -0.351118332345634 -0.3101241493214595 -0.3282352570998734
Ni 2.9482365021416745 1.7510704197456461 7.331840080677591 -1.9348034656070678 0.9561683259815597 -1.8492968019928149
Ni 0.4639114319496582 2.728308904152828 7.883376432538029 0.41836887796317623 0.007406576876716277 -0.018906607096515825
Ni 7.118652351930518 7.9835628345785175 10.379739077527086 -0.689747788195638 0.37079112818421306 0.3856832148046971
Ni 7.054875618148405 3.6766568307746677 2.323861900142363 0.5193227293704347 0.1356791707035857 0.5016114281336005
Ni 6.550893786379418 7.265327491456102 12.85907662556657 0.6728818656782346 -0.013956719290408221 0.03903834484938438
Ni 2.3746525409782118 2.6951438677688033 9.83157975289583 -0.12070866543668243 0.05432998090113224 -0.6300310890612957
P 8.624214499772636 6.237088425007561 8.56779989339998 0.10130326432687715 0.9065879439502709 -0.11642006536365755
P 6.081334746865305 0.5685964390109299 10.14323747247618 0.1973519651230343 -0.1000519084182793 0.051532106441020936
P 3.912103055711386 3.9231013269730397 4.229836776397164 0.5438163436364247 0.3548376901787502 -0.6021929838031048
P 4.938611525736124 9.07402771779549 0.391841074868776 -0.4999718356476486 0.737153531173111 -0.06058830310601824
P 2.5325245447976905 0.21573633932748348 11.447751599927704 1.444114855033558 2.5316675809980915 -0.6977482899026112
P 1.6341464078117756 6.212283209599721 6.5431940508151545 -0.6878189466040412 -0.8412089043238288 -0.410028476418281
P 1.9560562562612223 8.929168285993237 2.9548874773594918 0.3009190857834237 -0.7702073763042865 0.31119681356034795
P 8.071804338570345 4.923821073239798 4.151275264205362 -0.19838683414545188 -1.139111571878432 0.06717855472902624
Ni 5.121279288152385 0.6830295269118516 7.888622125632472 2.0404626929097955 0.6090876540404091 1.5285696803445288
Ni 8.908363301663368 6.081958896395201 10.851066540709237 0.41191592324898096 -0.3328017934246333 -0.0005381318916571377
Ni 3.9089823080619053 8.172699055759157 12.502975676733193 0.6584641475910079 1.1154427675065821 -0.5164070983855363
Ni 4.4259956254702395 3.8519293669427657 10.718192671243203 -0.5871576867365371 -1.3101490674766532 -1.0106440884319368
Ni 6.017189197451891 3.3190096933331397 12.210999472328899 0.8387995235513875 0.042246567374036925 0.8257884560037003
Ni 4.7393376031002035 5.912067285719693 11.602148225682987 0.8968594038085974 0.5947300997671564 0.01809105317375594
Ni 7.061192767935839 0.4430724030999755 6.107977420661916 -0.01715465740241562 0.23181168946280076 -0.9653836739322407
Ni 1.5279747900520242 4.3729145449958935 12.995673641546544 -0.46284510599868034 -0.9350551981520283 -0.10531495658943153
Ni 2.135243912207759 4.494406196671276 7.902269249671762 0.014792070707510008 -0.4101603740104549 0.03174001141575824
Ni 4.491058485556379 5.275047035972243 8.711344828465027 -0.10920143612803128 -1.2679050712057778 1.2117172111603
Ni 9.486032605204333 4.0371126411007285 5.749094278014972 0.5146338085351976 -1.0814841511729503 -0.7645992860888897
Ni 6.249429563439597 2.94427409830794 8.940261125365483 -0.5866324103606864 -1.1476846582594236 -0.07937946767059231
Ni 3.802082515850608 6.9201066037461425 4.755947546044287 0.6648122012962228 -0.7810823713455773 2.638146218878321
Ni 5.837046403588393 4.927755106640355 4.581425880674276 0.11030006850884873 1.5157979825011572 -1.4781963700982994
Ni 4.170765751798027 4.091527131934398 13.608871238555185 -1.3336769753952644 1.6366048640786006 -1.3188329684038964
Ni 7.435663572251385 6.967787845105781 3.4653434419794937 -0.9775871579769679 -0.3887757376870917 1.8800855052388976
Ni 4.582827380073224 4.087262110146775 2.0996522581059867 1.5632767448084108 0.3578962744994159 0.792556433423448
Ni 8.170382137049693 9.348861560793075 2.619588675812668 -0.11918734369614958 -0.2829812703580804 1.454974166345565
Ni 6.230232236989763 7.839176243329219 5.402640222142915 -0.7682314835248382 -0.7852493582390734 0.2221165736622239
Ni 8.151099699300326 7.276609467049527 1.3806026835513883 0.19916022197636668 -0.4220838649209182 -1.079541682734599
Ni 8.520700245920473 3.5632791229879337 12.209061771742904 0.4315195564125213 0.21491517081777825 -0.7117253209079937
Ni 6.587028261435979 6.07025136430412 9.44609460073983 0.15221522068539592 -1.8510142989045542 -0.0833245683612694
Ni 8.961567320681482 6.539176797477277 5.315690518541751 1.4683184488629553 0.2619439900718069 1.5310600508665502
Ni 2.9947072716857575 0.9022185479569876 1.7330864021546852 -0.07660781846272613 -0.02568737746377512 -0.9037533027149531
P 2.0635801980024153 2.411524647297377 0.3724186763157362 -0.3895558103862259 0.5290253013701792 0.9825059354348241
P 3.3341878750828857 7.055130952047 10.248027450140206 1.1738584884413137 2.3233814854610566 0.24375266387476086
P 3.8944188190309954 9.369354470357997 6.39318538539126 -2.2939166432327207 -2.842973409332478 -0.6560995040135733
P 6.333207452611561 5.753069921384189 2.087292206051832 -0.6483807952130769 -0.39753420060601213 -1.5902080219816161
P 7.843876278425557 2.8602125048042053 7.084487730617552 0.8984419178043689 0.6195523010171587 0.35075143592451846
P 5.454291432785134 6.28046681733534 7.0967919874864585 1.8927823839802755 1.5414100266423065 -0.5937127142462356
P 6.99925065549918 5.276238594165682 11.553150596223931 -0.896732648422746 0.24335748531887125 0.854693826184141
P 0.6654559349208525 3.866076756287077 10.59682112106827 -0.1793997515199878 -0.1717437776366268 0.3257914235450712
Ni 1.2204203807901879 8.233184819292724 12.037350670619638 -1.3453608394910959 -0.5697454047973607 0.31835219365820655
Ni 6.05256712762373 3.496353271123165 6.231812470117727 -0.9584409240658204 -1.0193855820699929 1.5608036006775698
Ni 1.16276220376327 7.349190491927597 9.509209357747807 -0.8901735071479895 0.8827152510977314 0.21902199389730018
Ni 4.547752067855275 1.9700145093843533 3.099359179908322 -0.7295299531895822 0.9289406006138583 0.39858295358550067
Ni 2.8838545324517852 2.477325138646121 12.19498625416264 0.6662985560337622 -0.7508485121617005 -0.2699450059994125
Ni 0.2837884973893831 7.3982524277018555 3.4696481823735645 1.8015308474624459 1.2338544093789718 -3.0181336688498215
Ni 1.9071645430860271 5.481933691510685 4.502144705160882 -0.28438663534603925 0.6882251809035244 -0.8551342561556692
Ni 8.27592014846849 3.993800446450362 9.252279149447181 0.5686298031356787 2.6660910249177054 -0.5346771003393179
Ni 5.698485207951457 7.897761187839921 2.0865857822657223 0.23485638982639553 0.5914164620128911 -0.5560200847914682
Ni 4.434658064400312 8.806532360179713 3.7941917527029516 -0.5024323813729992 2.1146405617747903 0.04793719000091099
Ni 8.93551380621385 1.9958126899533926 9.986280887967215 1.05347532466485 0.3572452711789783 0.9386262033327383
Ni 6.503921805849206 1.2824948885816734 1.8456697378124602 0.25994855690833296 -0.22905495265327003 -0.22428144252402665
Ni 9.32174888348683 3.617986774964433 1.029414548063179 2.5040588181418872 -1.2698341699076905 0.5357628772043289
Ni 2.362774786288067 5.390202624238075 10.652309905638246 -1.55794787639633 -2.750727627222179 0.5905399729452087
Ni 2.1657894119284324 3.268519779088968 2.803286284953257 -0.41124306555167245 -0.4136390765876748 -0.4776724008194999
Ni 9.241583496139418 8.14813971743885 7.2921441705762 0.8262455981457769 -0.0270865718041469 -0.12594574546590567
Ni 8.596685722779794 0.018783118125449208 10.815384101221298 2.158734723880527 -1.4631086225272414 0.4884520079335072
Ni 1.6152422425047708 8.009115138060022 5.359027300900871 0.7772892228517323 1.2792135542400613 0.10489483833287741
Ni 7.704161351839419 5.210126028051989 6.47047306513341 -2.6683245422339144 0.0005599862685280679 2.4627226783972618
Ni 7.805623477691774 4.942025434528434 0.2705168087491377 -2.22881708251991 2.000118227654478 -0.7197713311409217
Ni 2.5453479805937373 1.274012129061722 4.608415619436753 -0.022109430304529665 -2.618528444647394 -0.8452900163717377
Ni 4.655890702315305 6.409448263369478 0.4665867637982584 1.40382155473115 -0.006854818138304324 0.7202600978518822
Ni 2.8146306754996715 5.262724811162325 1.4980392546446586 -1.885723420250965 -0.5158118880036987 -1.6147042073507674
Ni 0.6070714748046013 1.0294779086972743 6.197140963731999 -0.28927404534532764 -0.43733282066018875 -0.4678497583021233
P 5.973754064257759 0.8358714529290314 4.090859481073631 1.9035486213578445 -1.4977717211270658 -1.3511118830422602
P 0.8359158999410089 5.886675748026192 1.9378093393228202 -0.7133433161273909 -0.27420635237892776 -0.5369759236758236
P 4.286450921483164 3.1274052444660936 8.016056437377351 0.564219332772809 1.3558157162758329 0.6395207737192857
P 8.605556211553166 8.271938831012637 13.38687543598773 0.24070976328337898 1.2911339598267313 -1.2154062299761133
P 0.5534854006197027 2.191190406432992 4.175012805644638 0.30564605894544783 0.6438587389730073 0.23455711341842186
P 0.7514713055893834 0.4512175544651197 8.604132015807675 0.5616400020814069 -0.2900854855030294 0.15852702183603667
P 7.452978993300473 2.634781042779003 0.2097246445372569 -0.5903008603512092 -0.13816259924707172 0.20508635765281455
P 8.430652491016371 8.613197314888863 4.913388319279474 0.2978047085241581 0.34228299344219115 0.340393232618646
