# total energy = -340858.35390290385 ev
CRYSTAL
PRIMVEC
9.37174766578981 0.00000000000000 0.00000000000000

0.00000000000000 9.37174766578981 0.00000000000000

0.00000000000000 0.00000000000000 13.71650001965797

PRIMCOORD
 96 1
Ni 7.724690918199082 7.217979279217862 6.746665667380163 0.36964184507111825 -0.4100318188523906 0.5587104871394378
Ni 4.137242240012774 4.0510690225748744 10.082189591905419 -1.2652174970712855 -0.8921473430449087 1.0606026797382508
Ni 7.83655209528867 7.237791153243279 10.734052729127166 1.0599089961053358 -0.0596922736543101 -0.22906318018338612
Ni 4.8695505826552345 2.801346505408607 12.377700716715669 -2.1755746782560017 0.8464354428300908 1.991650299392783
Ni 8.664133622104451 7.9989082474250655 2.657146239530225 -0.5137524343715087 -1.0379625737412317 -0.7618716027450814
Ni 5.385006061970284 6.483571665155489 0.8074303955341097 0.24799318431866968 0.7018839093375396 -0.4879403584044112
Ni 0.2240363077174219 9.47849161332427 8.126655473549889 0.9137173559062005 -1.2484132810297532 0.0983783773705983
Ni 6.432598730990755 5.475246617784262 10.631658891271485 -0.49409223693842 -1.2753823534194293 -0.7492914520872257
Ni 2.1039385501221806 0.3788988106245255 10.540484909415438 -3.1858374720891196 0.28733003424507936 0.4032973283420345
Ni 8.655530357981776 4.552063895635799 12.176232513937041 -0.9328535625150192 0.8624583006209081 -0.7018867375510169
Ni 8.712988541354452 2.2825546840154827 12.74789504834549 -1.488742521045262 -0.03821250651397935 2.7602805610179364
Ni 0.1148039057764288 7.395339598958181 9.36354150828824 1.9818356272952062 -0.7960891291670548 -1.797904306453452
Ni 6.147407085547284 0.48428129872935893 11.363036619396102 1.2950361230946148 -1.087831690657533 -0.1977941948667755
Ni 6.797843842813183 2.196868797442921 0.9019444681671941 -0.6167102035826735 -0.2910221383846859 -0.09126207804079121
Ni 5.455406628516613 8.806199941097503 5.589309218340534 -2.2433037061718593 0.32813472696626717 0.21090939209249485
Ni 1.7086007573652113 4.804773064555097 6.232146425631404 1.207612187852991 -0.2563762661760423 -1.1023571379672177
Ni 4.066288740369235 8.619177349777143 1.8713420883201715 0.5894230857319461 0.6142044064416842 -1.0339002307464
Ni 1.866477214239474 1.6562970350682114 5.8491821509802815 2.9687810865586224 1.5927696120612052 0.7699340680382417
Ni 5.170842890149635 4.069793773900695 0.8706081563513046 -0.594263444543383 -0.2990295820701947 -0.14544987693710434
Ni 5.7536062593656085 0.3811189775860306 3.244994718891038 0.20370413259330725 0.8022932010952376 1.3893205329014975
Ni 1.5310717461715058 2.6040993376635866 3.6158478843638036 1.5327574931736312 0.4226340809974334 0.39741567275027684
Ni 8.913862575347268 2.3462825664056637 10.534833745727017 0.5549523056485862 -2.4564396736020275 -0.5161805841970272
Ni 6.536831305688342 8.866516507430328 1.3976011939032003 0.32311027716848223 -2.072616909044837 -0.6547049376588918
Ni 1.1015364471142766 5.9425875458947255 13.333782020973322 -0.668603550017855 2.552606645143604 1.0903904525236445
P 5.237504129479246 2.0796844678242703 10.203374720493533 -1.097045753056633 1.0512163534273444 -0.7031190672962213
P 4.065182874174817 0.6780140611955088 6.9735369286892075 -0.5366059419309146 -0.21341390368190344 -1.215131636158488
P 7.850825266594589 1.21677145327158 8.781741554706048 0.1380273592207881 0.9055880419308467 0.6754591394871077
P 5.828345944962916 2.6246984384714716 3.4801093692222005 -0.35694882298448205 1.2984847437648477 -2.037754292839697
P 0.7855736062237596 7.482862348023166 7.193385002488957 -0.5555485444716884 -0.4282205739462754 -0.07020782847365327
P 8.422567460856024 0.5030828983839444 3.7658099005500505 0.48664143708732965 1.102090257459076 0.06798896644546355
P 4.018858326725602 5.362307689742487 6.305844910091426 -0.23003017208234577 1.010256623185531 0.20900728997377555
P 2.4575533234084017 3.6583646908402057 8.042052023803219 -0.8016375697891097 0.7977554611258841 0.17846361285896364
Ni -0.022295387089152987 3.6172695784459488 2.3182254290086455 0.7126311205517146 -2.068186126966993 1.220234504602692
Ni 7.249880707402593 0.27167664850304624 6.885957011965019 1.1354747464567927 -0.7170315636122554 -0.7759944152997088
Ni 6.9334436560931145 8.68420790505736 8.963252621374398 0.5664081128940116 -1.6121958391066171 0.7569862496283221
Ni 4.456490815545349 6.600877827490473 9.665180570436823 0.27738886387196743 -0.22789589934816237 -0.002315278396737948
Ni 1.9260346690320622 4.211400877270641 12.282453773435096 0.6815464833317681 -1.900630419269785 -0.43434751277961975
Ni 2.9642462188948016 4.501072217976245 2.3714869438909805 -0.9322673509942462 0.3659281436649569 -0.9809470755881365
Ni 8.256903081883785 4.166819474839746 9.689802025233217 -0.6838226809604546 2.08212433431464 -1.642191614137759
Ni 9.581112247467281 0.5159690510731354 5.758488002591645 -3.9334384238478 -2.0595374501530594 -0.23394210554224226
Ni 0.4149612946594397 6.896631432265374 4.473348714787034 -0.7442160944468472 -1.7956383932374105 2.4337946825090016
Ni 2.574475244099563 8.2248610774879 6.296161083492341 -0.011539110987851094 0.55591569800312 -0.4993570848817851
Ni 3.713226900180223 3.0205235620937776 6.5146099554037304 0.07932470317325693 -0.19219561773307547 0.8315446417611873
Ni 6.0654605261914405 6.307626479274127 4.841238533728655 0.026526071314986573 0.6994868698602728 1.3791664751866313
Ni 5.685014440069471 4.034987104018764 5.91851902419554 3.2028522614795616 0.28977232513798484 1.1908290548573812
Ni 5.599525360192525 4.509825430057484 8.525668865641187 1.1451356665853247 0.4566459191665039 -1.6955502322645573
Ni 1.2208856503847108 8.803950721719026 3.995122502059483 -0.13007596558419535 -0.01396957480621465 -0.19902601039134754
Ni 4.615763662783749 7.610730469689582 7.480841799281501 0.7854632740220924 -0.7636760029436718 -0.1011723951759677
Ni 3.2889678949150043 0.8550735478439571 0.087079465412477 0.5162600312847109 0.9797579403760416 0.6210317137761627
Ni 3.6824969404217813 5.641239007915862 12.78578033725171 0.7897613871768141 0.7603284266276776 -0.06059987307024402
Ni 8.901004537900308 2.8421042348960914 4.88205905392379 0.7400964158515189 -1.9878383818458607 -1.0157094187699862
Ni 1.826300533091429 8.637386654995396 1.3650540523218972 -2.0558070365763497 -0.6687351904997129 1.4576506847364639
Ni 8.087967963065344 5.95089091410027 0.7306542292245393 -1.1357511400466311 1.91435625349631 -0.2233879841754798
Ni 6.787488061924779 3.033091075371017 11.492561666004663 1.5265336237511065 0.7714433055939165 -1.0772821972764608
Ni 2.889778313972393 1.5942935542015293 8.658842333516585 -0.602513343257001 0.5083034954417955 -0.4946748489147674
Ni 3.84258512968488 0.8638398803715711 11.620755924480957 1.1862059542630732 -0.7867675946558128 -0.6727936768398026
P 9.006052454622592 7.7451869297854525 12.74766169183497 0.05423536430479691 -0.32702503884185613 -0.33143216677061627
P 0.3006353480009373 5.511393447545869 10.544093032168412 -0.10550856065747635 0.7623647403314161 -0.3129323081942159
P 3.1130133372862328 6.798565467363778 0.9184200001145378 -0.22905700953579908 -1.0401130444253313 0.5584117249520963
P 0.8236688222719722 4.739517587337033 4.124620370600554 0.459523497824615 -0.5565661871029254 0.5213672706042892
P 9.238959121263884 4.2713706889492835 0.46684797419668034 0.599574058123019 -0.6812428360484203 -1.8342676755738345
P 7.271754365858282 0.2731189604294946 13.260988847313136 6.645961772086116 0.6384385963987004 -0.8320694039164056
P 1.3271237790281065 2.184498090861297 11.911435665207911 0.8876623106903615 -0.9170770164070527 -1.3629214740826785
P 2.9622312932015826 3.173892208463676 0.6996046928794057 0.2926010528360316 0.3929648360677748 -2.2622020857382585
Ni 6.394886819411624 1.809468874742493 5.280523261616842 1.9504110902373377 -0.6845433611765629 -0.3386114581278749
Ni 1.4736229345462397 1.5987357624740213 1.2713534473640289 -0.4968705710145056 1.5713417812047323 1.004367768504922
Ni 5.0963281264901745 5.683917945622463 2.9429573574775167 -0.9432498181476788 0.5042833185388089 -2.0919408061844296
Ni 2.6581836919685475 8.11735776294411 13.027547053894718 -0.24345055925330975 -0.6072557430379928 -2.3948504400353205
Ni 4.876626251950026 0.297764781769156 8.929550880512144 -0.5101611174758246 0.05247004487425802 0.8223717170126675
Ni 8.91017947861501 -0.0910765156829788 10.627351636161702 0.04762351541523411 0.857913104452387 0.661977560060905
Ni 2.327211060425661 6.122075252297188 8.241133242516439 0.16736030385695047 -1.372244294145501 -0.48863789869206814
Ni 0.6361382822419728 0.4579110758661985 13.041373192849164 0.8185232898008549 -2.2212847786986067 0.10951099694865009
Ni 0.6505660873801615 5.890002671175416 2.352516652783009 0.9590034814375098 0.9465403159734924 -1.3790767436863023
Ni 2.9927082157799454 6.280588987995353 3.9420399875526853 -1.302448613508602 1.533570733103546 0.9447444004153343
Ni 1.5419992036519397 3.8320044268586275 9.894191401679644 -0.28601594341934616 -0.18046238845654727 0.7040130398654004
Ni 6.472606720685413 7.162648482507328 12.33353354552031 -1.7850727019064225 1.2437950655314514 2.292514363568555
Ni 4.149959701248578 1.7412987840798202 4.61672707841753 -1.328141647399332 -0.9137554082329875 0.4589290587737258
Ni 1.974158591984059 6.75740475273765 10.932695350061586 0.9124225483541769 -0.2703016180078829 0.3761418509731651
Ni 2.722192726781038 8.18489994653029 9.076907550918323 0.21680158920721374 0.8871843426126785 -0.7719402998349931
Ni 4.192816702155975 4.336682396651809 4.328282499447939 -1.075839037072031 -2.4670012511679573 0.7458641715732316
Ni 8.1591182694045 4.966379476898668 5.052980046018477 -0.8444603213815907 1.427844657118625 0.4215750436052998
Ni 0.2725491581869471 2.385550188054908 8.218940007474057 0.3470107379351637 1.81629540736613 -1.3154694512483023
Ni 8.61352618608872 0.7710033505249341 1.5355898655980216 0.46303716740482836 0.30548947876292554 -0.11503346942877608
Ni 6.013672250002007 2.125821580325279 7.482241001169862 -0.2599722110574168 1.16135855620209 2.008723709935302
Ni 7.218616558041763 4.105087774647963 2.4862393050566522 -1.940290713973884 0.08068198853209976 0.4316082594715857
Ni 7.404617628894399 8.290838179256557 4.724400958764186 1.180946762746663 -0.11509826122844048 -0.7885365136307774
Ni 3.842500783958187 2.0574827982092203 2.2780365645889673 1.441571519786414 0.3130670339998673 -0.06227031879413147
Ni 9.246137879780187 5.386852296210117 7.548793528229514 -0.8135731448844311 -0.34713980731386024 0.44351940908687487
P 4.451298867480031 7.968843681732757 3.779238677414299 0.80259787681985 -1.4898092717468794 1.835299973493091
P 7.971702064692905 3.3334836951140274 6.649566866811313 -1.0895322182884075 0.7147265696281627 1.3314799677439455
P 7.076240971384171 6.251058611905432 2.7345896742554103 1.4809569635625721 1.4891585255367579 0.012694307638216846
P 4.184878832099433 7.887796810128304 11.352350952998854 -0.45221333731644703 0.2206019367899104 -0.07460544332071668
P 2.4941781122879347 0.7330918207259637 3.241387533312806 1.2835291508962798 0.5260351083936038 -1.0418351693227605
P 6.615666444903959 6.499953479628729 8.50217202053403 -0.5771949190968705 -0.24808702958405657 0.4658733513020429
P 5.348971693177601 0.3670501103736571 13.526019052552785 -5.427454791697492 1.1782491613098418 0.9760306121231254
P 5.955839196732919 5.062439887854455 12.644788020511882 -0.5593995427866625 -1.0883924482570093 1.5236786708008145
