# total energy = -381172.09729981294 ev
CRYSTAL
PRIMVEC
9.20835357441612 0.00000000000000 0.00000000000000

0.00000000000000 9.20835357441612 0.00000000000000

0.00000000000000 0.00000000000000 13.47735625079701

PRIMCOORD
 96 1
Ni 4.981046959964741 4.97790691146772 12.924663376724398 -0.35489374022766623 0.03601421331107991 0.09117646030552039
Ni 2.9696018762587726 2.9553657619584968 4.680753348421205 -0.11641620870891563 1.1100825316359333 0.059201450060820615
Ni 5.199598018698734 9.114953035529412 12.767718964499547 -0.12326717019247804 0.3048904117263459 0.7202300159448951
Ni 0.052013383974844736 5.213935424886011 4.655186355306899 -0.6924446183015107 -1.0516223306165116 -1.6005803663548759
Ni 9.080209918288181 7.330945071553407 8.69739564807587 -0.818193417265262 1.2219671710230826 0.9019566158258466
Ni 1.1255554483514598 0.3325154816337857 12.827019839326425 -0.35560799268587145 -1.017220456097874 0.1500722062004641
Ni 1.464275518481705 7.461639230844364 6.72858339877315 -0.2237687645536662 -0.787285929053128 -1.5741489116362244
Ni 9.051921856754904 0.22521698573397453 5.159239647576321 -0.47980050290609627 0.2527921483692098 -1.3867903102804762
Ni 1.891294489016444 0.7291901653291329 4.39045080027728 1.8094200204025355 -0.1706369177256932 -1.4669670770413832
Ni 7.721996213849544 1.2120863449101242 3.166666163253915 -0.9728169902818343 -0.7270856054141478 0.45499912759170025
Ni 6.662593576062886 7.577158023791947 8.530856131646049 -0.5657036306278193 -0.1123726347671613 0.9572247922705319
Ni 1.0704802868831857 0.14073218529272366 8.152924130387172 -1.2723847042436862 0.766251476980332 -1.4983594753097356
Ni 6.092025584941468 0.9378615817392159 6.853033373648183 0.5677198897268997 0.8012524185355491 0.6482293572368771
Ni 0.6359187541082421 2.883687939375476 5.545271316453907 -0.8051036739608394 0.13268100730721022 0.32699649959676585
Ni 3.956755773553861 4.911017432633821 8.251079652232168 0.28004712743042093 -0.10993497185994613 -0.24456461825309492
Ni 7.634968066209239 3.036251937905215 10.40582605181933 -0.8829834171574534 -0.6038096934709213 -0.7342029331852193
Ni 6.369316729782487 9.02105545627979 4.980597592320592 0.8967521888067715 -0.8861160492491642 -1.166702851233139
Ni 5.263734199876887 7.11986198739737 6.753503044645988 -1.0084347394854438 0.5943768301927957 -0.6183361692218706
Ni 5.308054004616363 6.5848842820266436 4.313319790832279 0.5597263299984618 1.2008620136133512 0.872271430056588
Ni 4.2988184759551284 8.288355987483751 10.663135990696464 -0.5762610944286914 -0.2714642708574163 -0.9922375609002911
Ni 6.701950078339328 8.446343706144708 1.6074304215444173 -2.163094029290488 1.2292788741931475 -0.20671669416738594
Ni 8.6508428176457 2.7166760344180965 12.485610930013978 -0.5079134590922284 -0.5718261985857893 1.403827468268421
Ni 7.7455327650471535 8.230463069886186 10.616207459449052 0.5063728540779859 -1.808295676990105 0.593601642589668
Ni 7.057014975690136 4.424208623708595 0.4737209762894034 0.8886496143042953 -1.302530888809763 -0.0018918177060741612
P 3.3817309394044135 3.7874233635488292 11.88279620624823 -1.7392026788471855 -0.9283114516702914 2.3871037062103664
Ni 8.41636130759251 5.765396082777757 2.347095088824756 0.4816018177808932 -0.44619875569125095 -0.649114588055308
P 4.695827422877578 6.640226485742464 9.101662619119587 0.8914613727214776 2.1330200927232426 -0.9753186736577655
Ni 1.9146008313799623 3.770636535366809 7.259308686560522 0.755640534233705 0.06251225960160847 -0.11817098661649326
P 8.675732996787774 1.482802725449464 6.875392176450577 0.16057361995242023 0.7235698789514055 -0.19177755635905036
P 1.8721779474334084 5.385008213676781 5.62674222283922 -2.3740694987342277 0.599996233262102 0.040034904434698794
P 8.938603860261242 3.7330756619962875 1.3707950776394582 -0.00799844482444429 -1.5078545592843644 1.309122940204984
Ni 7.773765576460249 0.8025319373649735 8.689363201436718 -0.07584625770635324 0.3720504545126108 1.3446848964699938
Ni 4.768582622804151 4.493713274897783 3.50545990021107 -0.8458294338149756 -0.864105349306028 0.3001366990914444
Ni 6.2259702929698095 0.7207286094232315 10.932804460623014 0.10524887923818647 1.3554526765094592 -0.6422214604799005
Ni 6.974333170837497 3.586773343753863 2.8281422310503173 0.7802416206118369 0.36035090668749553 0.7791270473914195
Ni 1.0806555173500714 5.5961741730130905 8.355205870398185 1.3996357987845767 -2.0108371567338788 0.9169451188148788
Ni 5.905353845552594 5.805682628743933 1.892126003325186 -0.7339414519937166 0.5492447137408476 1.0519488607179948
Ni 4.084448009648253 5.581717058232085 10.813300292339623 -0.17402820279542933 1.6220647614808965 -0.08747792840801064
Ni 7.629728513145296 6.700762200755411 5.3368844381627625 -2.6067396795425815 2.677157567144512 -1.9012793657076934
Ni 4.658146840913328 7.342805430685848 0.5191899835286684 -1.118319831944061 -0.86334147455681 0.9056471773035565
Ni 0.4297409597890482 2.631765808051443 3.2951190093361484 0.026434540042444797 0.12100922739623675 -1.0993476617169327
Ni 1.7316032249832038 4.66233664169381 3.029022459679376 0.9181445384396187 0.21223582421340223 -0.2748833238412943
Ni 1.4416782193271915 2.002439314116272 11.226206540509159 -0.8548426930571794 0.3400430483680789 -0.059585315762800614
Ni 6.44012896714932 4.999611000345954 9.378770517728668 0.08608130517080013 0.9500904952185961 1.7867107517304777
Ni 3.1456563842193033 2.3472184807598295 2.2822820936743717 -1.5995326418166516 1.168126213943227 0.8821539792776227
Ni 0.5254139095671915 3.0135257218036093 9.229873285508356 1.2347792351860862 -0.9932801432321926 -0.5244775340984967
Ni 2.724245300883056 3.810554747198437 9.8564621359885 -1.7879536229986432 -0.8548390935127536 -0.4536999491643025
Ni 8.136860157944202 8.417447893289426 6.87180736448609 -0.6548311788241109 -0.241031665399172 0.48024684641489557
Ni 4.9670594712052845 3.4648087034516912 10.60662524693879 3.052701636632678 -1.236014393144768 -1.0907002704545796
Ni 3.675698412187089 1.4742573735279527 11.073116745002354 0.5924896404724118 -0.6425582749940288 -0.7114941787337941
Ni 1.3182954926070103 8.756858589921947 10.366943779741119 -0.27824015612866915 0.3517027440941943 1.8634057305903715
Ni 8.595141488148695 5.6135503358103875 6.770053218146561 3.000211794264078 -0.2626243039682832 2.8634278205320878
Ni 7.398258134642034 2.5819486163538397 5.2820450105406 1.7352982015864566 -0.5434299068312834 -0.5316827935976843
Ni 2.624159708173029 6.029979699976875 12.967372640460564 1.2648799112262086 -0.4464712926263472 0.5704213478184628
Ni 7.088083959939251 6.728101801892229 0.14713107004515696 1.5563846456742678 0.5018199445999809 0.02338598302410811
Ni 6.794392737757486 1.967346279447221 0.9498121827346224 0.4640306416663492 -0.10980538826061735 1.6596648312218576
P 3.4290434589870906 8.265952063749875 4.92346712638154 0.26997534501671566 -0.7260597352527948 -0.22352759507713763
Ni 3.755405918903254 5.085690687589797 5.960387569430732 3.0218077752672987 -0.5522590750871392 -0.4999903475904099
P 3.085470586634177 8.170838981856246 12.44993684824768 -1.0087813241915853 0.3447792775014836 0.3026337544816852
Ni 9.110210733547108 1.3941723243238768 1.1224457874205394 0.7297628951359948 0.8703407886927784 0.24821327074927574
P 8.56713888556969 0.9258630973063182 10.880552580296051 0.5907220070490279 1.4578756562630761 0.8877245313868647
P 6.1213633987582075 2.884489066118118 8.692517062463786 -0.4346290485757805 -0.821544593125682 -0.5525562946125838
P 8.448719461312542 5.949056690616702 10.24066134254671 0.929483874711838 0.23028702528815823 -0.4226675053385301
Ni 4.050883561637576 2.4532526697428048 7.518908742919206 0.35721930303704935 0.3135429451950213 1.0145069138214529
Ni 0.5165904653740966 4.317769267177617 11.213362729237474 -0.17051659009774503 1.063886235585529 -0.6432002794534019
Ni 1.7307100147069254 2.8681074054841003 0.19351354593810075 -0.7601685040110456 1.3730860733205061 -0.3280146564486351
Ni 1.435066621612057 7.241964752999999 4.14633551093499 0.11370935130071383 0.5436564210197927 0.10505244695666424
Ni 8.131298312512529 3.616553158532061 7.793753228271491 -0.6500209019196611 -1.7168477081907527 -0.291424258919111
Ni 7.244322091461105 5.22935020841684 11.777268476700257 0.9821632073834247 -1.6299295089409542 -0.24274633409743354
Ni 2.55303438679183 0.19306694079996142 1.7700213960518858 -1.8118018903711506 -2.7553496993752224 2.116844511404645
Ni 5.154338961916162 1.9961960505356848 3.489152827239298 1.5756422083522994 1.4269830804492778 -1.146086203424052
Ni 7.650852475761618 0.40612429591717353 12.997696668922556 0.30829275253967553 -1.060594966428767 -1.6167554334528413
Ni 4.771556920940625 8.959884364884749 3.0773248772486506 -0.357162738767501 -1.3935129737162903 0.2767851688496975
Ni 2.247878764672262 1.4957772953389137 6.4863005717502356 -1.6771354772027953 0.6337018530446634 0.8134420186232054
Ni 5.327032420898943 3.085111460852993 5.695544276666758 -0.7501625418382694 2.123957725410658 -0.027949176914758317
Ni 3.1731617357166675 1.2288731730921445 13.502693817411757 1.9641893749683526 0.25226455800051395 -2.6042886468989277
Ni 0.5637473637849273 7.142974954340251 12.659630391881134 -0.5910727055202272 1.0855999731135368 -1.1434132845775793
Ni 8.860645940684181 8.194504450000947 1.036151545543322 1.3109497090010775 -0.16880526383359315 0.5739951812126501
Ni 1.8001225823624762 6.261799995907956 10.73156050203609 -0.6568142706924108 0.2643243173785254 -0.6118477332840495
Ni 3.4976733166067273 6.864413056735041 2.8175222371159645 0.4708780036054858 -0.14653102581642508 0.21670234462518806
Ni 3.5546361905145596 9.05774153608076 7.029519753381472 0.6334547700308639 -2.0651008031734497 1.1697727484077145
Ni 4.308321496626464 1.1081332437873446 5.286047881747799 -0.8767160960915029 -1.4891487553447451 -0.03504130787484933
Ni 5.437394535962857 2.2395636215848436 12.724969184008584 -0.4974740089264594 1.0762002770661916 -1.649036147863418
Ni 1.5312202474357848 6.721029786508909 1.5768375091642055 -0.4786813016999885 0.04655985003741013 -0.24803483618988245
Ni 6.50361135523865 5.175978592320851 7.221140061867997 -1.9434660263780723 -0.26006374232995855 -2.313752961232357
Ni 5.777302483677018 6.894616455767969 11.849897522185747 -0.3266483722287278 1.5090565500122657 -1.0884374425623318
Ni 7.991377383151146 7.845968275185001 3.353408806963689 0.9460165822595384 0.5293366619630109 0.518595621396423
Ni 4.842709867381915 3.4570368532127307 1.1664736873583856 0.3155584329631533 0.28746244605788557 1.0923552895594995
P 3.3998898122376247 5.0774952530961075 1.5318362862758164 0.04151354586275431 0.45865960716242304 0.14374394998959117
Ni 5.072752951113803 0.6753949649784128 8.876388541594757 -0.563331787961533 0.10909524956747019 0.6363935409442136
P 0.48607121982079426 0.19719136227156148 2.833991377106938 -0.2704831378910697 -0.6961351797792206 0.1426435178365608
Ni 2.513447675681295 7.562737742424397 8.799581666188159 1.6484491650116966 -0.9472877356624783 -0.10484341626965168
P 6.916707295487479 4.748250578577108 4.855217573755825 -1.1591024131780618 -0.6274782407324548 -0.4703586407669061
P 2.3465554793176437 1.348029265618389 9.236935171702974 1.4257972876712928 1.3347768933276625 0.441434244423072
P 4.783196279592339 1.1210893969700666 1.4272524129476232 1.0346031703506955 -0.21590684530708626 -0.08768618776407479
Ni 0.5502534427657652 5.0579551272583405 -0.008262655473245673 -0.9300826846381014 -0.44286943420770186 0.1095945578013919
