# total energy = -340874.69623500435 ev
CRYSTAL
PRIMVEC
9.19240525720308 0.00000000000000 0.00000000000000

0.00000000000000 9.19240525720308 0.00000000000000

0.00000000000000 0.00000000000000 13.45401427648042

PRIMCOORD
 96 1
Ni 1.9223341227998965 1.5918579698902118 3.933496293798643 0.755578313537202 -1.7598044142579372 2.5246530973534713
Ni 3.174983155010481 0.7053700068808029 6.116491172614292 1.3193973255477986 -0.607461688401212 -0.19080079426807783
Ni 5.414602329514939 3.863071440451819 4.471037804489688 -0.6965432138509166 0.7746247886456917 1.4004927474682332
Ni 2.335891232289307 7.544188415918122 6.553194757946561 -1.040910600625962 1.539541605975 1.031878572330681
Ni 2.234894278323668 1.0361403167511594 1.5132132679736165 0.23609309044697402 -1.5539822068803624 0.6253902478551746
Ni 7.332321864994297 6.559332526779077 6.608624960223143 0.6320951706791759 0.01936709167270213 -0.35155567699336876
Ni 0.03979024437386613 6.259320004108959 8.37996739586973 1.1025209172385915 -0.021961591872755724 -0.01590201594223713
Ni 8.741710595217818 8.527775753164269 8.005098361392168 0.2512320029709415 1.501529388397285 -0.7421126749505993
Ni 8.824166468256117 4.090059497635175 7.09139536407761 1.1184787261194287 0.6258507324313608 0.6161283629372745
Ni 6.8906359961406505 0.05207497444391988 6.307726289709001 0.37318431100673793 -1.299523469442007 1.091699144032739
Ni 6.949761545235671 3.045820672060522 10.858815234083496 -0.32848645387873104 -1.4264081817824144 -0.40596947585755894
Ni 3.0521358543099435 7.798661764114245 1.237770205443607 0.7326299322711447 0.27098861677257846 0.9121276428215774
Ni 9.081756041754355 1.7752280652489612 8.352816708399727 -0.9741282528940902 1.09917848312892 -0.09901781072681012
Ni 1.2219372070354502 8.382627677882805 4.385281858048853 -0.4782208171238022 -0.3445473639963356 -0.09496395237241065
Ni 7.547534451345762 0.5571323642717831 13.228672402925369 0.2026597504891929 1.0222186806434137 0.6287776762701688
Ni 1.7477887362612996 0.5877651347637372 7.914498936745773 0.17971522587787758 -2.0419027677904316 1.7681715552757096
Ni 7.544022952627744 2.3042785514221156 6.259883498536746 0.06229294450195079 1.3322034761735315 -0.044904573822174276
Ni 5.32390086917281 6.344671484728871 0.5017674280708503 -0.007270822629800381 -0.8557600626651262 0.13240641348958485
Ni 6.523252337071684 4.044621439616412 1.7817555920543675 -0.5152770985461513 1.2418543968653128 -0.07467023512038108
Ni 5.576370273074356 6.452415663979918 4.715470288681381 1.5296264037438172 0.4734758462396491 0.7855020976798278
Ni 0.9166188281872167 1.68051871631768 13.077032651218081 -1.250900309117665 -0.4057097944382691 -0.04515859881450932
Ni 0.14471051680246502 6.988498339994132 2.2338775983283456 1.6314899114495387 0.35707789236317855 1.1134735595953533
Ni 7.23496510341697 5.239900672090985 9.061399460835368 -0.4517487389752026 0.09677092367416236 -0.5902098432992996
Ni 1.9117260874056716 2.4269328116172124 6.708130906094377 -2.0967860500918727 2.6003016372267216 -1.2479818499192894
P 3.8568573746576282 1.8158217258216616 8.42548175085017 -0.9941861999862296 -0.24397532140852818 -1.145774585720904
P 5.670757887829903 0.7458147504921637 12.013990761172987 0.26706588467940456 1.0910697379788563 -1.4205057002550503
P 7.002296139930641 1.5703937041661953 8.448071166948754 0.8531758468777177 -0.24422780373896652 -1.7003332554754975
P 1.5231815119783803 2.9104992777464984 2.521416946625479 -2.6991212158997966 1.6292093429454781 -1.992346554128859
P 4.810716474065888 7.896928573788649 6.282379152104118 0.1654833985492118 0.5935988143761907 -0.26855095386536326
P 6.8566976368031485 6.32538581899483 12.316046755479272 -0.18497467450460403 1.1604555847718465 -0.08133119208032445
P 4.943868460794958 5.27784692001764 8.874523382201613 0.584387837300884 1.3334247501751422 -3.75520235361861
P 7.807927708375404 7.883277852332475 9.768232898595512 -0.27374406803052853 -0.8040623771805184 0.9548629769065748
Ni 5.405198499178463 2.0186889122299347 0.39797138677631866 0.6017669520092798 1.0480739511436208 -0.7738274895553771
Ni 5.582667070513736 5.050675014733865 10.744537093343528 0.9782021658531477 1.2524887366507074 1.7087466763501733
Ni 6.118437204757236 8.04714166423668 8.317271516664556 0.7168269038006171 -0.9210498850118719 0.019167831177702474
Ni 3.893038680820253 8.667095843662425 8.210823466521468 -0.5155810029398153 -0.4126900824108441 -0.6147001151311801
Ni 3.3339290302284543 0.9569293626852708 12.77002562756749 0.8261610088517707 0.4701161857387968 -0.2197658140418602
Ni 0.9436095678098535 0.13823814442718452 10.48455197909682 -0.3897049343695805 -1.0339362261906582 -0.21207770136898316
Ni 5.239790363230733 2.1564003318494165 6.628617521903298 0.012916708061668076 -2.3289533231218793 -1.1679531787004724
Ni 7.877532599194356 7.926243153400593 4.193884954625775 -0.14516731269967903 0.004945774041049547 0.02875084688044726
Ni 3.3734379870086784 5.976800628193791 5.401153840969227 0.97684719448715 -0.5509059034933544 -1.047044224327526
Ni 3.568114740543247 8.628745129914845 4.3178500517768645 0.6376122438426632 -1.7335822473366147 -1.2060893234505614
Ni 6.2219069156735225 4.396093045594042 12.751566359044835 -0.6207247240587052 -2.230364372402372 1.920545413026157
Ni 0.1707075574423326 2.3068891944480776 10.787845271118927 0.9539137256194281 1.9525888146149468 0.5893557228291205
Ni 5.267229692218394 8.585320208595679 0.16162178431958407 -0.21701036278391012 0.5431699683016774 -0.16762024238655648
Ni 1.148535852942829 4.13504712780791 12.777801482974748 0.32443850906160254 -0.3641255432385794 -0.7584787750134485
Ni 8.496310150777413 4.726514044073601 11.286303433382223 -0.19231954490544945 1.6766788492813511 0.8680280813992018
Ni 3.71510129682891 3.6708214818427916 7.143745191431658 -0.727161967178038 2.6129828322388162 0.3498248103451911
Ni 0.2928148695386803 1.0222414003594193 5.8442489055125915 0.13419950083426566 -1.3547911316660604 0.10687818731149334
Ni 5.6940146725330125 0.7489548760473346 4.524490720446255 -1.3832630138535082 0.8341964775617375 -1.0797309159272697
Ni 1.8323496700494055 8.407980330930702 12.791901713036447 -4.3369869489686925 0.6802097667982157 1.1210318315585854
Ni 0.09005615350965478 0.38816400985942234 2.5142459514686033 0.38011806201209375 -0.2916433169084526 2.04776179767437
Ni 1.7051451693689177 5.811052373260283 10.343755588352293 -1.3947417039170689 0.07921903083332808 0.7449725129968976
Ni 1.7517874324454312 3.0341738948989248 9.100187733061945 1.0671065422950397 -0.33405032111975375 0.09931220203877736
Ni 3.1732733676765768 0.7918613457233169 10.118198788630705 -0.7661913131663579 -0.6297667796563154 1.287744731639524
Ni 3.4611611081240055 5.4662452609228716 12.357781193515077 0.06419196129687654 0.20215195761483895 -0.8455095885817115
P 7.85774135118416 1.0864963114561537 4.4199399826995 -0.09218536118600898 -0.691061621911055 -1.1378129076716663
P 4.444527827649649 0.737940536351182 1.7758623411954093 -0.346273602658823 -1.518720555464591 0.9713144375943787
P -0.0027384174557535273 8.656873889279082 0.6774784115661088 1.3480460996327428 0.34567145029844987 -1.1187018978738283
P 1.7725346905778103 7.825062351334534 9.092074516390417 0.7451938849790845 -0.7627090110447122 -0.34413830148337504
P 2.6501519827419617 6.680764197106382 3.1347985564612144 -1.0408589214524204 0.30048045558410835 0.6363847991934654
P 3.751429681471871 2.3928749510144365 4.8590924247293605 1.014383243759395 0.3811174498108856 0.04517351121284478
P 3.504117216787101 7.993945216380199 11.892124290088189 3.401930722375399 -0.8018833672513286 -0.7486311927954075
P 1.8032097461328607 4.7920191222531905 6.257286644118317 -0.37048439557707163 -0.9569643395202938 0.6747628847510314
Ni 5.7298190900897765 7.861767624583354 10.871744351745523 1.5761196622093503 0.2935551892191848 1.3121645552447854
Ni 0.4065295158508623 3.5095683129645496 4.736054841244888 0.20601786832814842 0.10026736686319505 0.9789835241038624
Ni 4.546407252497304 5.665104558741993 2.7312997765457734 -1.0581405913510036 -1.653548948132107 -0.29693361877311436
Ni 7.833684827244224 0.7124932015315696 10.859676562433965 -1.466310417293991 -1.6608719641560816 -0.7752603653471616
Ni 8.269937984730465 2.2594104225146534 1.7413264755315423 1.0740541772574663 2.11946215153315 -1.8390015907143942
Ni 0.8104612580427922 5.958029737140925 4.46642321716915 0.34563468352324345 0.4213140766344292 0.564857223467124
Ni 4.616738343312914 2.731973579833812 2.6374710600155034 -0.5601942707738158 -0.3767571159596608 -0.16691293190688675
Ni 5.371784106927158 7.978667439235311 2.7117374194206003 -0.8382372232900144 0.8738819690768176 -0.5524498509417066
Ni 7.474041173202932 3.1790921600548647 3.7024102624569286 -0.12703872141976832 -0.8088258600074327 0.6508277140916727
Ni 3.5498126621464525 4.300372532110452 10.03150153991572 -2.0718046975561863 -0.6955685086424731 0.43298585654540267
Ni 6.004570883762208 4.386542136777232 6.842940283448732 0.7492248605153483 1.571746472842319 -0.3419279240956176
Ni 0.034377756297506015 4.659712836786052 2.56381048010129 0.30306235737867165 -1.2927344715446316 -0.1085108378189099
Ni 2.9763352825068434 5.8722462134850275 8.224506361395214 -1.180153577421406 -0.19878484091481893 -1.657768128419777
Ni 8.342024824905083 5.078675080427806 0.4383435103880136 0.26392091129251966 0.06811829293447623 -0.6796544085153778
Ni 2.7878542099564223 3.150586512084768 0.8276859865711271 -0.9579241323304017 -1.856222582578371 -1.2282717730848718
Ni 7.556901512062153 7.323828082754901 0.915704183887628 -2.1081179301649238 0.49765167215490413 -0.8236948066994654
Ni 8.739302185102318 7.294826044913671 11.756305586662531 0.00450045897351483 0.5089187604282913 -0.06082047372148235
Ni 5.569926397154641 0.7671163106473085 9.691545259707887 -0.549545275700402 0.016686459516745453 0.7301189929238329
Ni 2.624256977797827 4.217962621097259 3.797624274423862 0.6344130201790752 0.06651598144436287 0.27751150549276077
Ni 4.47483518700386 2.510436618827904 11.099803324113823 1.4779528866289258 -0.05350645655857237 1.3037768454017225
Ni 5.528441073294904 3.1613048563392447 8.738045583335948 0.48227827502262743 -0.21119838408782338 1.9873691555189257
Ni 6.820773717981112 0.6089793670711825 2.259749622259928 -0.6732649600492662 -0.06396698977026402 0.2373652722911783
Ni 2.4522303102349823 5.401926002990991 1.1032678544169536 -0.8214206659533079 1.414788852375931 1.1709323159334546
Ni 3.845210597496031 7.010845076600163 10.038348962415856 -0.7629751202219054 -0.2989617049467367 0.024873880423544256
P 8.034787071888466 3.000134419106192 12.874213265315916 0.8644429351511048 -0.3671242208555871 0.3310662987907653
P 1.3074909205658232 6.307644477304315 12.67099033283333 0.5062797801435475 -1.4403363618277323 -0.09386506288127705
P 9.08449537845061 4.103838912761643 9.392516324375016 0.5220023330851268 0.15747364087085783 -1.183660305023084
P 7.609426914352102 4.669135051932568 5.330183878004659 -0.363537017724961 -0.13223620646030776 -0.052028843571781364
P 0.17283467996419016 7.528487788142267 6.190608615058049 -0.6934566045057928 0.0822912420007486 -1.227034815353977
P 2.371291184025148 2.642053473918468 11.576681396349835 -0.6787018147941214 0.04226173688268851 -0.20913815912468497
P 6.640933506150423 6.2771716546597265 2.660867569274932 1.4019443923130952 -0.8487319521737512 -0.22209729038851428
P 4.38300306084415 4.319676582654536 0.6368709623858766 2.848964079698274 1.1041350558032468 0.42025195391850206
