# total energy = -340869.39515578916 ev
CRYSTAL
PRIMVEC
9.25760235768810 0.00000000000000 0.00000000000000
0.00000000000000 9.25760235768810 0.00000000000000
0.00000000000000 0.00000000000000 13.54943682326351
PRIMCOORD
 96 1
Ni 1.5702467291405329 2.4164934128895985 10.10586065967586 -1.0058271266592678 0.9401562668240196 -0.29224289816566446
Ni 0.88788830464996 1.8374859347042427 1.0717618757514202 -0.27239475309148575 -0.125530512305358 0.3680264209548823
Ni 5.006168791985603 0.9804911746860995 4.1644731455267 1.0464559559242235 0.016579244514919836 0.3749390889143156
Ni 7.860185747125747 7.105533780522465 5.638963865288072 0.1513464449271974 0.10552835815181826 -0.01786505320587891
Ni 4.494621461752676 4.563636886891327 1.9294935409125598 -0.04797575654833028 0.5063934229032763 0.429127402031261
Ni 5.6604405768614 6.5305255865302545 12.039894128755822 0.22109841681035472 0.06349210701637453 0.7275021241262761
Ni 1.3520080125451508 7.1236879386307 0.43242445490428505 -2.1999423084670884 -0.19684262958678359 -2.395592203297352
Ni 8.660746163529508 6.624508765069166 3.4633440066147814 0.638989326695848 -0.5544702238058452 -1.1245750688251537
Ni 4.008051142522308 8.326926282231769 12.540843355876916 1.6639272060426376 -0.5522480193435457 2.181173769610334
Ni 2.80796964130518 0.08508291968870445 4.382443391655412 0.04276490177135216 -0.6340558939499725 1.3689771933584551
Ni 6.534978493236047 9.18913307234422 2.097615301702361 -1.6769755545861635 0.6084245665351135 -0.8411703377764094
Ni 6.786090955594992 4.331669146086607 2.5481883601535023 1.3939711442996314 0.3948638528627006 -0.20546996624447839
Ni 8.870680810862734 6.388625058491991 7.7849232919557645 -0.017383999804402323 -0.04113739347025819 1.7097162393522942
Ni 7.9050943758779395 1.38006780511326 0.030984269134346494 -0.09154541360916492 -1.2092746631570785 1.3464003364992037
Ni 3.8806017316727015 0.05571687943621393 6.674723851459116 0.6521382053729801 0.4872353619175867 -0.5341968182687896
Ni 3.0364472660431976 1.1424714421107791 12.110079714825062 -0.015445902241425013 1.8295265613444234 -1.8539780095185683
Ni 8.874504200612199 5.0072056434430845 10.107934362590825 0.9875848926196281 -1.1996921616749663 -0.20597955889104527
Ni 5.090301881678435 4.6533152803612285 10.374519055671998 0.16988872670575902 0.5116415586760931 0.12005689078529648
Ni 9.010609469611321 3.3217480536921538 3.4291047645121253 -0.18986337005547305 -0.24106174730615904 -1.3953705957503195
Ni 0.41319456340891186 3.4360979572887502 12.020897528838384 -0.5590480729845146 0.8332873354839069 -0.24478701867654615
Ni 1.7076850928707035 4.632069083085145 3.7707538000740835 -1.9057101477855372 0.7163777320783404 -1.7504620538110887
Ni 6.014136530294977 6.127588446468576 4.280171881778252 -0.8979672921607954 -0.7189753176021876 -0.7802755591735658
Ni 8.808117934526448 8.699785472424168 1.1681038913561044 0.32670442227764385 -0.6899064252606892 0.5985767272067563
Ni 4.371263911119204 3.543088067057683 8.020345044178223 0.43978591018637164 0.17434059182952558 -0.3871415445177784
P 1.5874658694165746 8.310540326162632 2.2813453799681875 0.13555832885500524 0.08791553016606149 0.32755031521770683
P 1.3809935653431546 5.6818811837857615 11.891906727206003 0.25825497125599395 0.16335426802135092 -0.3759235643147719
P 6.182911877807085 8.205512828081076 4.396873216358782 -1.0056011266913907 1.1605658850974656 0.5009629959163243
P 5.556061110940769 2.706154531221358 6.245599731774406 0.6325530841522009 -0.502261917233406 1.4797344040093807
P 6.139577041445713 5.148421108911226 0.1797437547158997 -0.3162318048810941 -0.24452322349219824 1.048074208253937
P 6.686071820357165 8.57243789519985 13.060057832333833 -0.1659834781140819 -0.11815710265942231 0.4181953284997894
P 8.52390028634647 2.741824072879202 9.566701604826092 0.37462952809369676 1.4098623616085912 0.25674624792095135
P 3.250418227978765 2.3420993208152585 4.872201103357308 -0.7604135301423162 -0.4211508115836876 0.141754173253072
Ni 7.889208330332947 2.0741472798745297 7.477961566447733 1.5648610585763953 0.6886000477444398 0.3203036609576226
Ni 8.005002419888179 9.137503424322992 3.880192545651088 0.7698911306154482 -0.6686750266857387 1.1242529095990443
Ni 0.8186645834595822 3.193317336998859 5.617718593772218 -0.3027990764149559 -0.09866248426992041 -0.33092463100657843
Ni 9.272692190694517 1.039684283785568 5.482576115412186 -0.09970223838834442 -0.4970400067128343 1.548996580740313
Ni 5.360410943954818 3.5702128417935985 4.3263349156419535 -1.9131828020134989 0.8741622193213978 -0.6457706112837395
Ni 1.934977744514456 8.246533263867711 7.700863337321095 0.0063609092210213025 0.4753524944370717 -1.6394366771004412
Ni 6.751263855746352 4.066457355426365 8.585099517864121 1.2958354790674587 -0.9035666406254438 0.6622899490950014
Ni 8.18436846443028 4.37789235436525 6.644020087674427 -0.5417522620185443 0.14345367244268198 0.05003880972494608
Ni 6.9501356683323365 6.333394203176471 9.944121089910952 -0.14200485581129738 0.7947657823699409 -0.9121099022097647
Ni 2.17131507360428 2.6296126754136626 2.8258303334205395 1.0399477224920606 1.4465072665251346 1.3662659650748792
Ni 6.231218046602992 7.664683701776578 7.353523653625974 0.7137122694310354 -0.2960123925104257 -0.11445060034211257
Ni 6.63468286999571 6.8336194857977866 1.7643943872733645 -0.9225871475920047 -0.17201502902014246 -0.10143104815399306
Ni 3.1775053522722567 1.0999605323540136 8.817661596736434 1.3834491617223852 -0.6913727253935706 0.9402930495121999
Ni 0.8334841532197369 4.213523625547442 8.060235126724157 0.3218578928186199 -0.6582288916517504 -0.07545622135678617
Ni 7.023909501052647 4.63483710617253 11.792806871876461 1.0600162111071616 -0.9456003206577263 0.6691614794038541
Ni 1.757583569262029 8.035108142564354 11.850134574112692 -2.093180849239118 -0.6333894640105673 0.5870188471658278
Ni 2.552820864343895 2.3528381394820372 6.988040920945376 1.8231615383583442 1.2068804518932892 -1.2702699718935284
Ni 1.6185343827318415 4.583864747914527 0.5884992978224663 0.1498364360405742 -1.2595836958242759 -1.7904614770221616
Ni 3.4691846279051872 0.7765193489936248 2.20103845730551 0.49528651435683735 -2.0853374419352986 -0.11976558479712276
Ni 2.909562568933827 3.952033391011378 11.942134774239172 0.19815183531651037 -0.7081252622615611 -0.04043111143185295
Ni 2.0755544354239697 7.004218580962786 4.394502344410021 0.560492518740525 0.3782509268963679 -1.3906333381756502
Ni 5.398737417472461 8.396543451519852 10.65545303231654 1.4662152864770233 1.1714087413492404 -0.588674894712012
Ni 3.6636775946037696 5.54981222938898 13.485239139199422 1.0904519018891994 1.1320754909672566 -0.8615869537595484
Ni 8.29516344874408 5.94428792094942 0.37241297376158955 0.0025780451398213665 0.2311768840922793 0.11658564440724437
P 8.58509303754251 8.082405232709677 9.820983870212197 0.16809538225076212 -1.1956017936556764 -0.4618310629118691
P 4.671904545777515 2.480241262320149 2.4822705287440785 1.1374575812147765 0.1576775293515478 -0.5613510100860784
P 2.281860102656009 5.948472357188544 7.746497762093525 -0.5102922437370503 -0.025880210200871556 -0.8825800110714477
P 8.18781229248549 1.409692132469891 2.414834450557627 0.3916538305658352 1.2276711633863955 -1.279868928435873
P 4.584346143234073 8.112122136089296 1.2566056435738098 0.15069004229012115 0.8016193149566645 -2.6584988143927437
P 7.746761603759045 4.924961104619237 4.632091301330663 0.2655844150378716 -0.5875266400401817 -0.2937346522198425
P 3.644727282697825 5.4807227434319365 3.8369160321841993 1.7196918625077675 -0.13067837505488464 0.3885957604658017
P 3.700124774854725 2.9910387267668614 10.060334548850328 0.07637693339884266 -1.6067204178143426 0.2577785458402077
Ni 8.470465405876945 9.004693861742295 11.926566264453031 0.9508859945366979 1.3083364397479467 -0.6880768282511182
Ni 2.782363113346292 4.789022472461496 9.592485878749121 -1.3660019127802152 1.138460054337362 -0.9980729366351456
Ni 4.280965258295272 7.723682401227769 8.625707064588223 -1.6797721434946942 -0.913436334330672 0.185204531127223
Ni 8.728891374052058 8.638518660409735 7.272362254271103 -0.01701221828728038 1.7072214979548983 0.8446878640113646
Ni 2.7682267546358 4.518163544398899 5.702524711152184 2.8059603224432386 0.14063677181917714 1.878100613598385
Ni 1.2836313619651265 0.07456165467595091 9.91469209796283 -2.0176045573646997 0.9308450167254226 -0.8127506489831358
Ni 6.717140333672433 0.7013429895250238 6.069931173590503 -1.4948319217724513 -1.7245093385010688 0.2257364298029983
Ni 7.4319660951856426 2.655589507464509 5.034781263410959 0.4442472883918349 0.18271878859089177 -0.07568067866276644
Ni 2.554135443870346 6.251640317274468 1.9133297672985976 1.5945940668644538 -0.7294785311263566 2.9368999215793097
Ni 3.482274877555899 6.603169991770093 10.975328187271376 0.2730961500338845 -1.2634472925447402 0.2555833379611018
Ni 8.542128505273096 3.5407366360737504 0.5938742617172351 -0.5607429441884343 0.86451364048804 0.8280461416896254
Ni 5.752646295758914 5.031266151818049 6.449504902730328 0.43171033226708877 -0.7025922482584738 -1.2593296708319408
Ni 1.5164878325905464 7.027186692266474 9.559737110616593 -1.1386631714871034 -1.6331292468251744 0.9590222504905871
Ni 7.5394190850695235 0.7705463439903442 9.47430795660191 0.3292876096237877 -1.8209961552759089 -0.3312861281110553
Ni 7.534605131874072 2.1495874810086506 11.474855446679348 -0.27614162172842766 0.910243024204355 -0.2527103872886809
Ni 2.3624382730660454 -0.01800603647145237 0.32362818692682727 -1.2456940823263771 -0.025423582279427183 1.587430459236479
Ni 0.787536821489602 5.660116560780937 5.8273819933580855 -1.070020373507725 0.7424075804831989 0.5825407567898161
Ni 8.552163746165157 6.737294133877241 11.784771273080976 0.6645684607165329 -0.43021754977164617 -0.650602485454744
Ni 6.153528248110225 2.871467535473659 0.68853787402512 -1.2615503326323434 0.3094716033391251 -0.6679486900426754
Ni 4.232279527805109 7.453730718190467 3.1196221938980893 0.8322398680559989 0.863415779438171 2.3095972871927706
Ni 3.2498535142385294 2.7231700042468234 0.7992338019943218 0.69717390545638 0.1402829880241842 -2.1917170923438194
Ni 5.636574478134714 1.9174901337717447 10.058098837895132 -1.2791472197785003 0.3632243715805486 0.07146226970604468
Ni 0.9601337072307145 0.8940112828104838 3.416856030910388 -1.3791626185318893 -0.6406206916516839 -1.3430342482404483
Ni 4.247276843529403 6.888137505736287 5.925318168078649 -0.6457649548567846 0.006283261905550469 -0.20243169363878685
P 3.233310178930311 8.7083024665392 10.481017586758856 1.0951778466099589 0.18123191963272015 -0.986468776737314
P 5.462077932401858 0.2813153898592591 8.282472201752455 0.5580998501386324 0.4303548466804588 0.08473430422460244
P 4.946401711543599 2.158835825705299 12.391122931176731 0.7670706304475177 0.4267576162475037 -0.2415489713552227
P 5.411725833497883 5.725021610498856 8.355802595322645 -0.3907750275053077 1.3965399334680721 1.3181014895545105
P 0.9678175171388406 1.3963056395456133 7.692028807447209 -2.09335465581282 -1.6812682684242464 1.141333519230415
P 0.21280265252544028 5.111390699715437 1.944371433567198 -0.6871535451059004 0.013869816003556757 2.2242497748642016
P 0.746294203247792 8.159900621554163 5.4528082952199215 -1.3472701406986667 0.6696762142567434 1.1448749567247702
P 0.8707385963911604 1.430558768051718 12.548242031634235 -0.8269436526540662 -1.2872135417264026 -0.8807447576349218
