# total energy = -340865.4485015728 ev
CRYSTAL
PRIMVEC
9.30499679487740 0.00000000000000 0.00000000000000

0.00000000000000 9.30499679487740 0.00000000000000

0.00000000000000 0.00000000000000 13.61880337278971

PRIMCOORD
 96 1
Ni 5.2707131941303915 4.240966396431727 4.657208688109513 0.6924988685782139 -2.6375628355710248 0.01114650353512274
Ni 4.881131579849152 7.995932799696616 3.1792820575393703 -0.9947449007031772 -1.4029751475704546 -0.6695882825286275
Ni 3.715327116056566 1.8003494290236661 10.522228318456039 -1.5460878917339502 0.55643968882739 -1.3144045003188976
Ni 2.0049570079963943 6.969359005974017 6.315311697536381 0.2501230861774789 1.8597169688848745 -2.4114772499587245
Ni 7.041686747633711 0.5010926982963917 0.8814214235635572 -0.7802462485975271 -0.9239302918834605 0.44838676448150516
Ni 7.953297303455176 2.106288425296545 8.835416601793527 3.3533787816086242 0.011231607049761302 -1.9105610481199353
Ni 3.995491270647037 0.46778173954590424 1.8587215361868712 1.6920190791828473 1.1610999032240648 0.9541829201204148
Ni 5.216372011666398 0.9080113829829246 3.8757210712971184 -0.8142652858554492 1.0317919261541455 1.1617066835701284
Ni 1.9037279456632137 8.746743702408448 1.797342053994152 0.9660017671322138 -0.5753547805643382 -0.3744104701043552
Ni 7.561249864969662 6.820581408984843 2.6225454771993695 0.6076745757429665 -0.7670755155435242 1.0069823233096336
Ni 0.8731781267236856 3.840898050534576 8.802527159407015 0.28860607274402555 -1.8098943889357926 -0.05003958105589447
Ni 7.213791972095013 3.8957789228244097 10.063233287574647 -0.6120781041273007 1.8088044983057237 0.2640013868214679
Ni 8.677505219751843 6.4367502828479095 12.899294947871919 0.1475268140707911 0.17758918067381027 0.9277414380994345
Ni 1.5057997490754325 1.3853465629459145 11.314256635866927 0.5155835740429766 -0.4320281206178237 1.5950617505294917
Ni 2.56140513342948 0.8778650537112048 3.866024333926275 -0.126686223176356 0.7343345736670772 -0.5479092827588757
Ni 1.946893826733498 6.716514322567497 -0.21254474141139013 -0.5791846958333896 -0.12755319916234162 1.7222457392778725
Ni 8.196241470056611 2.596801342007053 1.5080376008532732 2.0710619058528916 -1.5938751864205583 1.4586194764076363
Ni 5.869294345967066 1.9875938835995088 9.38627056303186 -3.234406382136759 0.49431900823724545 0.8855380652585071
Ni -0.03359941365740253 5.935201639698651 9.321321683990993 1.5649574749449435 -0.6650310021752482 -1.408852175176522
Ni 9.234632609965729 2.8602071970054608 10.8139697503105 0.1353230729157476 -0.24748899098874155 -1.0593898903770722
Ni 7.355088351498391 0.4949876897664901 5.270136284316561 1.1675896247134665 3.4454065341708464 0.49789207030048444
Ni 3.418888521717889 3.190413625447191 7.921513294711938 0.6629365815400647 0.3899581880309671 -0.7812857456056351
Ni 3.697080016944941 7.690617238222554 8.57031351534282 -0.17489749277426006 -2.3209353379134097 -0.41754123985555835
Ni 6.5687137502630355 0.4259892760324152 7.8042414870557835 -0.7053978360280689 0.6174679076843044 -1.2460540367689572
P 1.2727747092730752 3.156934246251053 4.619430400300642 -0.12858703974349467 0.21165681178148066 -0.6488978440588116
P 7.12601793541987 0.8956831924612562 3.0787350514860887 1.4227973245027044 -0.4619804440055399 -1.4832971816599745
P 7.270077898931434 4.630119980851093 3.5966716553469187 -0.9385719530560351 1.0271066048633344 -1.5268879217667315
P -0.16267181850548132 7.104225632452288 4.5518268056164555 -0.12232923175924093 -1.5288753845104057 1.1619928473519794
P 1.977451436872497 6.836930288709027 9.649031581738358 0.13581081118544353 -0.5785226367693586 1.0895558724374912
P 2.119445691050669 1.8520945173254235 8.943223366504071 -0.6959899124506078 -1.022223051518788 0.985711072635683
P 3.1290378652532707 4.549101371995959 5.932881903947235 -1.2934551517607402 -1.5533342888837183 -0.4446810334951438
P 5.0936484062695495 4.132200286530766 9.206569669521695 -0.09445153151236636 0.6563481296892696 0.37342573759358266
Ni 2.1532042201567245 7.6303766876623 3.9751924196975166 1.0995114409883064 0.05757162776688149 0.6616183769492735
Ni 0.753739185266869 7.909349802637121 8.092620092995434 -0.18665129087607854 0.28316279024126717 -0.46504391342221196
Ni 3.7081250483806873 5.316410034383931 12.205839116151491 0.4916052088505081 -0.6340954889386563 0.7554212191340475
Ni 1.8877419608219226 3.286329534494937 1.7922205836468608 -0.6969695027550578 -0.6894078883577159 0.548121655879998
Ni 0.8938119575651073 8.000352673270314 11.45265078670686 -0.06880709147138472 -0.822802376792183 0.9930479726167284
Ni 4.822100678898541 9.24837609053068 10.490114912819099 2.0388128160111982 -2.0904310544081226 0.07443497918112342
Ni 6.022575561502913 3.4358236162529 7.281674716689117 0.6281153600958215 0.8294479071331586 0.33162705639024176
Ni 9.250097514975174 5.363846909075956 6.404814602653616 0.5268254655053831 2.3724119085261464 -0.7586338125340741
Ni 4.398862890478215 7.959782886362266 0.6036412092037837 0.4805980591067271 -1.7975721199250139 0.3755073027129598
Ni 0.1848419043511506 0.24883050770190132 9.759561919069998 -0.8909021577838979 0.6792522879809528 -0.7627658324245767
Ni 1.418230422334228 5.002468740693408 11.785113676920428 -1.1631051065795517 0.1356233777649858 -0.7193807805707224
Ni 3.6197927118857076 4.6029679996130906 1.1128032008961986 0.6658689246955113 1.1970033019888933 -0.26918318813272346
Ni 6.715704787828737 8.011053419817161 4.538452733432296 -0.44583134504950317 -3.119023499788364 -0.49876444560310873
Ni 6.037872976566407 5.137558687099615 13.09731272797119 -1.2369088799345795 0.31086591258349044 -0.5377876209438416
Ni 4.575574088453161 2.463190890123411 0.26676961141291694 -0.8537692574873426 -0.34110877062843187 -1.2752445422899843
Ni 8.197506949648238 4.066748937652046 12.373881778923792 -0.46409774745885873 -0.13973662860241096 0.7800207628502824
Ni 3.658445669412322 1.8194805028500305 5.8237408026672846 0.5410104987565134 0.2580258859643234 -0.255601849903863
Ni 2.465628799336693 1.2553278399032146 0.49295733942168823 -0.2563094174938489 1.5847308009171288 -1.7439800456311707
Ni 7.889753478960894 8.56168592212696 12.189170144530603 0.49900484374868903 0.9479032577592902 -0.5684703947396791
Ni 7.022229998912443 5.667859770970403 8.090726526106494 -0.24756046765662526 -0.7977644599869487 0.8251312820356758
Ni 1.1639899893781205 -0.05363028069340198 5.550330214897425 -0.004923405443546359 -1.186139876911828 1.202251180651394
Ni 2.5710451103186402 8.932210902557815 10.118226750328146 -0.896094757728431 0.8047660881157624 -0.7170559890922876
Ni 4.363959846741496 5.632724102308753 7.152146366988172 2.4845747412753467 -0.09775154241987681 1.3311454672226624
Ni 0.4488563061531792 1.9871379387466432 6.160887828369271 -0.871245302784919 0.4679418037952974 1.1820669923940352
P 3.227670833424216 6.5532209302626 2.3615002999391668 0.7511974108606869 0.23483427833920847 -0.5557624602547074
P 8.2173265932524 5.685334555331256 11.01921937407604 -1.2275408084561181 0.4764904646962567 -0.2385217544931247
P 4.103764215707143 2.6327837653954536 2.600837849704464 -2.474569550433519 -0.375061987645425 -0.011744285020121708
P 3.4190280966728475 8.654000797336767 5.762552072913009 -1.0375396272712 1.0668779712240013 -0.5187133779212099
P 4.143664042831389 0.19019041662517508 12.69877133208129 0.49466353606085767 0.7111586497712462 0.2945664040925185
P 8.464095113619708 3.8656028175622987 7.506848200025187 -1.5361094403649995 -1.071613686136774 0.6038999391918826
P 7.304897197695177 0.6287674925954823 10.305553088877565 0.7632090906095824 -0.8251294822634627 1.3477013146988144
P 5.796352474505552 8.113185066859078 8.859399301054262 -1.111279637267828 -1.9908326885874938 0.0684003429512693
Ni 6.130467001686132 1.4186305372051102 12.062542162393704 -0.042597265845236314 -0.963974966510172 -0.03367605209620652
Ni 8.07851464804729 3.575556756160738 5.230615170570103 -0.0888077029630277 -0.7293641170356794 0.65596092155318
Ni 4.90897213086495 3.4047077062940656 11.479602710509422 1.6139364759468076 1.9144341579220963 0.06376618661336761
Ni 5.4503740761534685 5.49086942308554 2.4644861457054295 0.07752235985719552 0.7522523344877625 0.22860706648257403
Ni 3.9811615752712584 6.032680788241937 4.704289181416545 1.611246330709154 3.650733804189874 0.5178775122834759
Ni 7.8203195913673476 7.580222753847074 6.881513320821994 -0.32026252330704197 -1.0126150961153788 -0.39189371449078314
Ni 9.458715547653721 8.774249273532346 3.3856752654358724 -1.74215507660729 1.749179587554239 -0.21146346482375195
Ni 2.431432935371766 4.9152530038381 3.6547152961161204 -0.7186107351739173 -1.35951707638682 -0.24416069794645692
Ni 5.975473666702789 3.1504393583469668 1.9699599837900035 1.3984176101067594 0.7514745757814735 1.630429331395508
Ni 7.767951068266774 7.614641937739934 9.458695076660325 -0.3700586208935627 0.9939159770439786 1.223869273141802
Ni 3.5076209730837506 7.541169681449578 11.956383312651376 -0.41560648472669076 0.8315873220736646 -1.778860916668756
Ni 5.175960409707303 7.8351889765689675 6.667343926934882 1.0944407113336185 -0.26828870134291216 -0.7164360961201016
Ni 5.217088496435188 6.2354925027941945 10.178163027486592 0.3186779524287415 -0.4255890498606993 -0.27794319371354065
Ni 8.531761051783775 1.4679377162935856 12.917830501890458 -0.36054682474838556 0.03884756899481697 -1.0392319273719586
Ni 9.142420089722892 8.11164974235453 1.0637956427110349 -1.9901084088269596 0.5554457003452369 -1.6981169645504692
Ni 0.9070613427895045 3.0438227027523728 13.064218575650738 0.8812404663244178 0.4882162377736173 1.2361750870923485
Ni 2.9623853690323623 4.512635088763701 9.942543754521397 0.6016828769359057 0.4539015236521473 0.4192664500767812
Ni 9.46485684567191 4.453101717975238 3.1177118229082073 -1.7147237198692147 -1.090629050897012 0.23673303802381812
Ni 0.8612630780686953 6.51132983378094 2.3285159465832828 0.6687650152963838 0.13370482058603422 0.6518330154277354
Ni 6.670826787310956 5.764138574901042 5.795822089676709 -0.14915046571714313 0.19357527168942146 -1.1483446604409255
Ni 7.706621833057839 4.787104585191849 0.9824085559748091 0.7310983261179667 1.5148937255193329 1.9852711353393162
Ni 3.752053939204747 0.5065305385415899 7.853105748287189 -0.18953272618893166 1.2849568844817418 -0.013976516784750124
Ni 2.193234317238933 5.528722150870389 7.792733997269273 -0.87994925831682 -1.4937852256754918 2.1384752023005427
Ni 5.867861376429488 7.543877435575779 12.245483055858314 -0.28787279412242683 -0.40933170746157244 0.6055238479485507
P 2.864952745474063 3.039095764277765 12.142212477183936 -0.0896170862382005 1.1317875274131928 0.5470983568218062
P 6.94884148759506 7.370720746453786 0.6820469749020875 -0.6928696216540713 0.18634224427609197 -1.5745034667621658
P 5.948265855482803 2.1257079540298247 5.664836577445994 -0.7321979869400486 -0.3927123537373366 -0.30022540215050875
P 0.8915024573103877 9.459459947413501 13.300410105931261 -0.6480223834323937 -1.3553665445535559 -1.2424825173676148
P 0.6173418867825479 5.106666097068715 0.7718234469310419 0.3695765390508216 -1.2981345595142804 -0.946017353590487
P 6.748197837343165 2.915981349007031 13.553010998416452 -0.6576843320021899 0.0682944135010243 -0.8507937197987863
P 0.7810484209541244 1.3911994060571906 2.347609800421658 0.6268521771126817 0.15190411720288033 -0.19353670514200216
P 8.523675009393157 0.17113285227508895 7.0358962480023175 3.4696240119573147 1.9796324489963002 0.7935565925531881
