# total energy = -340864.1415326832 ev
CRYSTAL
PRIMVEC
9.36019441114948 0.00000000000000 0.00000000000000
0.00000000000000 9.36019441114948 0.00000000000000
0.00000000000000 0.00000000000000 13.69959066366840
PRIMCOORD
 96 1
Ni 3.105796748151657 6.270047910415671 6.731787236853459 0.7159668697931669 -0.9665897784251999 -1.0642055665981607
Ni 0.22936313992803997 2.27847724452493 1.7995235845412598 0.11430019080717736 0.3194181730288757 -0.35263425476952814
Ni 3.4034134897235555 8.508032953907765 5.386089870392808 -0.657500755236474 -0.43956788063829455 -1.0612184589453788
Ni 9.328613117556767 3.191508048396149 9.991919550592241 -0.5426742596121815 -0.24120470064192653 0.21934646711625452
Ni 4.205853596599178 4.982787173697991 2.916410062544268 -0.0488635584699223 0.6579931214918604 0.17984686635973543
Ni 8.008048809115826 3.913778090120076 11.833404886689259 -0.6058696613237438 -0.9911777521772089 0.2889624276421797
Ni 3.8460851641215865 8.084203350864126 12.579580864945283 -1.5558084614558239 2.6720865803795077 -2.3078013716346124
Ni 1.7555887040031362 0.37928162977143126 13.284794760408916 -0.27543971056539657 -0.05834732959064144 -0.14155414142712397
Ni 8.849137158724822 1.278771040384628 12.427378487664996 0.12618202984642785 2.3310935093933334 1.1457002808395431
Ni 0.6231970639541521 2.7900305896119666 7.541898959070393 1.3173072757879893 -0.7325273452550094 0.46437491237964545
Ni 3.9179152960508463 6.563162398474672 11.174687756974725 0.19182615020879865 -3.5261913668293983 -2.045002489761678
Ni 5.502034598592931 3.192996319307897 1.7811794755296668 -0.39590155009859557 0.5980509366102733 -0.5211173593770122
Ni 5.7070696572208215 0.6668998116708207 3.9185077963572215 0.6956996349036987 -0.4851041745071968 -1.0238474744960884
Ni 4.161748360522728 3.662784476921861 5.310742177402951 -1.316054891438127 0.002143785815880179 0.26506376664771125
Ni 3.4350509468412125 8.504185914003815 0.9010768995857278 -1.0027777983099826 -0.6454204270331724 3.2463208741861576
Ni 4.88088273711813 7.611560333954043 2.944014211889144 0.19110778398553538 -0.014924225410000104 -0.7076946024820457
Ni 3.5487679487709207 4.244558000499033 0.6958368527001805 -0.9192141173547136 -0.6201212861467513 1.354712713019641
Ni 9.255210472966038 6.2403480135416105 4.053187889695422 0.1304194649665431 -0.7464362420266176 -0.4468117066849015
Ni 8.324048972515854 4.6846275408501095 2.384153839453435 0.4768622462133787 -0.24641195587447884 -0.04681078970595164
Ni 6.753071382930335 1.989247237147535 13.42516023583388 0.025572192042149507 -0.0642140727840636 1.4804358009517793
Ni 8.373395917463867 5.814271963838729 12.936180871613901 -0.21735720460036762 0.8263643831118285 0.9801957992444087
Ni 1.9093205370505906 2.2633698907415285 5.127126987670931 -2.571880405771551 1.563274945036198 0.399783401651505
Ni 8.00253565460627 7.608125142604285 5.448012236535369 -0.8684823953278009 1.7037559080038012 0.07392307254171139
Ni 1.7752731928547434 3.067419951056274 13.580143526874423 -0.27658539413406563 -0.8505839177808254 0.23591568432884533
P 5.591733341657577 4.666740209325895 8.11263774945348 1.9227074536744821 0.2232712560919574 -1.329880741577626
P 1.3770905225041155 7.185147317252275 8.52937887726777 -0.07742208683390538 0.7465519416688755 -0.5061993046145992
P 4.2857709365017085 1.3513874286446228 9.323735520247887 0.26160074779977527 -1.341556378143341 0.08539533484736905
P 2.19197032775529 4.318793702392564 7.223232076281955 0.6673686491694893 -0.8324129032987536 0.19022486715994982
P 7.091685776033398 0.35811729418304844 2.026375384308156 -1.177774021445636 0.6123069323086552 -1.3930152081442655
P 2.0682566381919556 9.005471125819232 11.096695809063053 -0.06991652248547958 -0.34985334959028136 0.7430161606014752
P 5.825092348580744 3.734923495266766 3.9278782869845847 0.5771987757516124 -0.2589196014231864 -1.0358488698323387
P 1.251383111530704 3.9684509856893757 11.666955357492169 -0.3954809176214092 1.2445692246933147 0.49682480537823465
Ni 6.292905505173458 5.768968622877351 1.1713366009452666 1.1903186908798662 0.9372820306000181 1.7816590482391834
Ni 1.627588045398415 5.0373009459622615 1.9386151375065466 -0.3530394606277468 -0.19941784651312752 0.4224685019538466
Ni 8.225561006896923 6.966605498085692 8.130446455344622 -0.9631136469511412 -1.5887170392583865 0.1746082436686154
Ni 5.252866223305349 0.22621530654677724 6.806847571874821 -1.0477415075048666 0.059464216803904034 -0.22732125779161494
Ni 2.3393091480183186 5.725565401381914 12.894986656000054 -0.17985149434542572 -0.5816257011747143 0.08112267561394415
Ni 4.970852925820768 0.6593714073040362 11.606841380910298 -1.4185380350057182 -1.17324708010956 0.13401206741380792
Ni 4.070439664018958 5.9399512942289 8.819549584183724 -0.877255770645057 0.21092893247652061 0.949392697820623
Ni 3.8093651214373945 3.887429142846051 11.680599712888739 -1.7456630897605485 0.1332538490915447 0.116416980039864
Ni 0.3891435306055033 5.1858004303325655 8.112390640320964 -0.1458712807452391 -0.23677083324028902 0.09282145210811112
Ni 0.9647739585890907 7.210129676141928 6.147458380201399 -0.26339126404129476 -0.20708873279482395 0.7340656362764068
Ni 8.812847684983652 6.9042385227084875 1.4561429804428383 0.05480152122091207 0.13027754007204018 0.42628324771424647
Ni 6.06074460313522 2.0580633864756455 7.907472584123242 -0.6109172510499802 1.2578073206501434 -0.2180966538695534
Ni 8.590065697747749 9.211835332053841 0.4314890501322132 0.6759990711509777 -0.2923467707333804 1.4664274024878292
Ni 8.798189620532098 1.752986569956181 5.849177064826142 -0.03776513456391561 -1.0898551488454649 0.040398458421704614
Ni 1.2728834780985316 5.904242152541366 10.450349112285412 2.275534541181107 -0.05661414894961863 0.30861336910388787
Ni 1.7219481652809885 0.27804083097548804 6.548952687335525 -1.558303974184168 -0.13045443196953663 0.1247920914774367
Ni 1.8810246693385562 1.8926032298280653 11.417841271332186 0.3761832457340618 -0.16028154263329816 -0.5085526353381242
Ni 6.661229155344995 0.99404328652013 9.827894311748253 -0.044070507956653134 -1.830381453145551 0.971273042833482
Ni 4.593421806484888 3.4781359217265893 9.468732419868656 -0.24437795616358562 -0.15149145514549395 0.5534636369182017
Ni 5.876255171244979 2.6057564421932353 11.439514801496665 0.8338516926278092 1.7515815121275122 -0.5784879268766812
Ni 1.8736675565295389 5.014302948288273 5.097056427098096 -0.030205577049102823 -0.7808972519179648 -0.8117188652845118
Ni 6.493747196704097 5.787127400039555 3.886833834481352 0.1634249733582863 -0.5401442941014761 -0.1053992887731217
Ni 5.624971392019944 7.959460039915306 5.209269245785554 0.8547915281042698 -1.3376598713024124 -0.657108919114694
Ni 7.729030773843567 3.61987734573034 7.458386368493633 0.031091322088165806 0.2590998357547925 -0.9221256345745538
P 8.066662346533212 3.586648655562387 0.5260410540002637 -0.4551438806996807 0.27936218554825437 -0.35985314111547057
P 7.297619413324987 7.490139892022018 3.075229161255464 1.159364665700513 1.0584388393177127 -0.6820817870099479
P 1.7317295684431044 7.1190269039152545 1.060315335006649 0.29097354453493757 -1.901760933329802 0.7400449937882932
P 5.926304130774005 4.810465994545311 11.128958527167534 -0.3068382794813361 0.4202604385589343 0.06576547643158351
P 3.762751353258125 1.5089663015960288 5.270671185118724 2.836676777690489 -1.8720922026207758 -1.4986767494398383
P 4.085116448859339 6.226757011253197 4.6939727589525555 0.13257224964348782 0.946663214704602 0.39132035848581637
P 4.22130727757588 2.1860078839138852 13.123687094163618 0.4181500770841508 0.6363948264957944 0.01032452185445964
P 8.352897091698285 5.680084216726678 6.275097735301759 0.3994807828094217 -0.792320406153242 -0.08076272117136413
Ni 2.3714239750510644 7.00121013683243 3.4826409832978107 -0.39139492047749364 0.4181109963160993 -0.22112772738639339
Ni 7.491703044489073 4.718455283460528 9.426523559180385 -0.9524268566612565 0.8753297572669376 1.3360287634568926
Ni 3.560458831593392 0.41744969453139263 3.336507756075242 -2.1315162544842066 -0.23451494732657674 -0.880842973775683
Ni 1.9082534748874507 0.6582725204798903 9.209070330624092 0.5951386480594848 0.10293745749619047 -0.6800472730784223
Ni 1.0728748438706939 8.797253601090748 2.1428349232010215 -0.22829416322784554 1.3096453883673573 1.1725405409608385
Ni 3.371757312217072 1.692603955794641 7.2993884900691395 -0.10491746404069673 1.4559884665426925 1.8307249525278986
Ni 3.5705491211711533 8.25306125808381 7.644262045176515 -1.969342122813886 0.5184688660105715 1.1059083456535856
Ni 4.598055102719574 8.25114241822904 9.589795302374087 -0.24268205651840138 1.3089514476241264 0.740188461344693
Ni 8.205015380159272 3.8100577758239944 5.068944019196566 0.276528315643885 1.3572154248368369 -1.4430373056986632
Ni 8.65311596731714 6.646018839423045 10.609976931793936 -2.5612092992109505 1.0881649056272356 0.21416672268752796
Ni 3.116804336781942 2.845424220151106 3.0138684067777124 -0.6580100907727249 -0.17969157172879377 -0.8540929593753485
Ni 8.175156359980182 0.4753602813483249 3.8307615898472327 1.451663099694461 -1.4116600769389624 1.2841582998398464
Ni 5.831101593394216 5.148237970151158 6.023243920236941 0.611398818672089 -0.056814952106515056 0.4337052512099305
Ni 7.408884044318355 2.5299575878326483 2.907545958434676 0.026220624259425812 -0.5420363689178666 0.37331235194417
Ni 4.741640485022786 0.9771574957981617 1.2326018814400002 0.9216168132589354 0.6374052700381797 0.09905226350917135
Ni 9.013726817291946 8.976445162942944 8.168723098359779 0.9571777410826804 2.24328905088384 -0.6473322993439045
Ni 6.0267951779974265 7.750203533606922 11.3526316049116 1.3840392298979 -0.5761119704453369 1.0227616976310774
Ni 5.823735120390785 7.0765222610835155 7.441398551652558 -0.12236599853444734 0.2635108203382946 1.1685998111455358
Ni 5.322683913435705 4.5403214235770575 13.326632957398415 2.680762253776635 -0.06138354531380396 -2.3308489974826956
Ni 0.7857134394586838 7.487537757975063 12.875724311916496 1.049341762112451 -0.1283111603742887 -0.6896778541896509
Ni 2.1218811919869425 3.811798771984907 9.665239405366401 1.8105235378793592 -0.14873703232880836 -1.6374307024140056
Ni 9.112158621744396 0.39993864282260194 10.54427398312776 0.5770303684945483 -1.133825640889144 -1.8786122631274806
Ni 6.384129959927505 8.722727733170396 13.488494119294 -0.4634110058044793 0.27535820659518384 0.45590132769099545
Ni 6.25355524785907 2.2696599413874057 5.432613780705708 0.38435729690442194 0.1789726912848982 1.2008021069096932
P 0.8710709243543453 3.5507616701809974 3.557276365492799 -0.5168171893397615 0.6791476440822884 0.12682326297485255
P 8.363511552163203 1.751348535933817 8.772560472208472 -0.022007871729658873 -0.3247239015125053 -0.8594282555453329
P 7.239183719601456 0.2902689889572948 6.279509194928845 1.1995985735198953 -0.4891570044203317 -0.7908055121706122
P 2.2152397710672704 1.277937983081826 1.4948998014314092 1.1455568132831433 0.2636424608201524 0.8623235748152569
P 4.973997951143707 7.003072815520718 0.09905144932262375 1.207862099080268 -1.2547520787635873 1.3329868913067753
P 8.395897824833941 8.270106172110808 12.173703178767312 -2.7909617921518772 0.48357282546433494 -0.8591886287307009
P 0.9743307170852823 8.787378595984498 4.620036583280256 -0.26675066743183096 -0.1956241837986502 -0.6573161500294938
P 6.69155618524476 8.004473214849865 9.387397946531921 1.2930496887922054 0.030669404059398792 -1.1316851975073736
