# total energy = -340894.5356715723 ev
CRYSTAL
PRIMVEC
8.99596046651569 0.00000000000000 0.00000000000000
0.00000000000000 8.99596046651569 0.00000000000000
0.00000000000000 0.00000000000000 13.16649746836841
PRIMCOORD
 96 1
Ni 6.1601999804967145 1.884869666070256 11.331786162986084 1.3597325348317357 0.7998151718683904 0.42339384198159336
Ni 4.770899796511938 0.3720297532228702 6.141210407091721 0.06234590922707327 0.21075024080681123 -0.7964534544850089
Ni 2.852862023404775 1.5843056237024447 4.668208206531355 0.575640430125557 -0.6770727638311307 0.6555001798666775
Ni 3.500490228908984 4.160811734936402 4.7732639349793375 0.3994998089728152 -0.04887564265478034 -0.5380388177226992
Ni 4.906064105768662 4.452181905486552 2.690179070419845 0.23089997628180878 0.3679919681725211 0.15948347221203502
Ni 7.23564009222473 5.99461133221129 2.589192214988622 0.0462906555364235 -0.552622629074145 -0.4011062342279866
Ni 5.204082291263285 4.518428159953541 11.534484048683483 -0.6693820800550924 -0.2841367241187623 -0.20106026721255696
Ni 5.337375440698017 7.960597575756945 12.299667870004207 0.12338801204105847 -1.0324966655306542 0.274752711800701
Ni 1.9202597753957769 6.560277339935931 0.1800397595260231 -0.014933224271064605 -1.2123833839893894 0.5333162154360492
Ni 2.6060668380371252 1.7076042608187603 0.4280296084723278 -0.3823407806950254 -0.9349955485586866 0.749700000379554
Ni 0.7417538417227788 9.072156469625776 4.700308493035234 -0.646363507672732 -0.7977510902505099 0.03564037491142894
Ni 8.682136594229755 2.0661112859434803 1.2706416633885673 -0.04634310604091374 0.5546337459669028 -0.6011164629094744
Ni 6.904336852204325 0.618703493121304 4.678253995825664 -0.3994908101117507 -0.07651140209417791 0.08290804964914109
Ni 0.7258201961616801 7.069952488371798 2.52405696166594 -0.7431560286134492 1.1465528586478253 -0.48928607379902833
Ni 7.234542585021448 3.685681075521889 3.6787065072046348 1.093180356563956 -0.04768573611173723 0.8001650990086413
Ni 7.49400408303026 3.866364945832789 12.579772398991482 0.29305048166862435 -0.6613705226045256 -0.5933260203307782
Ni 8.051114932145707 -0.29600219070564276 7.157979762843603 -0.31055712309382 0.28884621377928965 -0.6409194538390253
Ni 6.564973231412271 0.5785779100924398 0.22552603552567485 1.4373687945589761 0.7213345618629835 0.8304776339492536
Ni 1.9164364921056531 6.503881662416437 9.171176808051774 0.605432573786325 0.1453514036860271 -1.0262630259161165
Ni -0.016222415899011536 4.6424824577671995 1.2377281420389785 -0.5942858131408862 0.8332130306025457 0.41377508794490675
Ni 6.528440635080055 1.8609673985364714 7.1505931795270845 -0.13148750121974132 0.1665771458340228 -0.4577314389211988
Ni 3.370111770735427 4.3536311562081895 0.6024567881284493 -0.20157885872018833 0.8928320278167592 -0.13387862715973717
Ni 5.985111597730418 5.615260666184884 4.82324369333997 -0.222866564454371 -0.4259657164738277 0.45168009052079633
Ni 5.37644489794274 2.8862640254194316 9.201736086490714 1.0555687168587693 -0.06305939035433011 0.2386307692671632
P 0.15887316363583054 5.444283437450556 12.149332772652274 0.7210309145796356 -0.14956518465705854 1.3375284879308706
P 3.9953580260612185 6.114194637565674 12.546092421791734 -0.47235638792322526 0.25578671222115945 0.496691365124164
P 2.2702656176753986 8.303631548507518 1.4449707870732482 0.487103978546045 0.32337587212504304 0.0573181169951787
P 6.398907797210667 7.790124120820845 5.767940110890715 -0.27170621166489334 -0.655283178759865 0.8095018030285349
P 4.5095761346418195 1.1315749063877136 12.622075904101616 0.6593892305084387 -1.1041042025653114 0.4323284254670619
P 4.0549562655837335 6.15242747046691 8.307415249570637 -0.996318415837884 0.43249040496622293 -1.6244615438478476
P 4.8122182439273224 0.9261701361209081 3.6449734538368572 0.419070274905575 -0.22603133533559783 0.41093530450326654
P -0.013253748873739087 5.215210294627716 3.6977185705113347 0.602077284160847 0.8544166612633544 -0.16924337981227627
Ni 1.511105491627772 1.0886101981674068 2.6067298403394363 0.027804938027410176 0.0628624438521756 -0.6372209219415154
Ni 1.7605185015540712 6.3827420558639565 4.665890847059506 0.33361966134023835 0.3070537379262518 0.6992361873020474
Ni 5.947409526509459 5.681264029713441 9.250372747921428 0.9366418259128578 -0.4669619563805313 0.4113438527955948
Ni 8.522980057832422 2.4468203420329653 10.055886360578514 0.5604387826844541 0.04834599540355545 0.763014458100273
Ni 2.429575085404337 5.178641714452769 6.8057096372601595 0.29471552807587303 0.41479787278246627 1.0496713775377278
Ni 0.5985192561376561 0.1765871098160244 9.132453695293332 -0.5891700891808757 -0.8317076497016128 -0.19555656378550837
Ni 1.5198765532933498 1.0788675727481036 11.337250309504723 -0.9422391174949772 0.9887987104220713 -0.5408446626026105
Ni 4.0836713720827325 6.8765573256163215 1.732882010740921 -0.4019181886063207 -1.184151899947522 -0.6020281760904663
Ni 5.6297351669232585 7.910885897024656 8.07091863999248 0.1273750217132645 -0.6617944975158215 -0.22394617067179495
Ni 5.200214028169748 2.563416988440711 5.066481875853702 0.7174647944949321 0.3544828779424927 -0.5578849059143488
Ni 1.0550732567425107 7.381302687598099 6.707790404421719 -0.44634530857144417 0.3985107055866685 0.6545784393833565
Ni 5.237817143823199 4.604609463293269 7.147617315733266 -0.27645503920378844 0.09098491312000459 -0.408445191091561
Ni 8.020132843554682 7.159003503169289 9.177061965530358 0.2980438211181577 0.4604930608267359 -0.05392066127785553
Ni 4.092361470102166 0.9031134888912921 10.52890566802081 0.3666742778023621 -1.5571230665021891 -0.7398110234006162
Ni 8.140561769213233 7.167351754682782 4.579123906679339 0.2834209289986603 -0.08765353475392645 0.43287658466104806
Ni 7.19837882307722 6.061451320083333 7.006591238495733 -0.6170076802184341 1.6953761685805382 -0.3921755073972601
Ni 2.0541646501569293 5.261863346727907 2.642792847524019 1.4030769632556417 -1.6900406153002379 -0.6899041112678441
Ni 2.4400463836389346 5.103831305415903 11.224281734040288 -0.7454792774299871 1.0804009454111005 1.056521824800658
Ni 1.205557687041776 3.2337599946685955 3.9909239170407433 -0.7694239611710426 0.5358307543277869 -0.6646255392067134
Ni 3.640188502349759 2.4668453505125303 2.558461113700643 -0.047832031881614404 0.6464306134652414 -0.25126645575330275
Ni 1.0738838105299189 3.568697602804789 8.175144041269453 0.8349613807522202 -0.3400638743036853 -0.42303594442154235
Ni 3.9465909232006062 2.7284748750458596 7.204957569124437 -0.9748869854369855 -0.9388889700758218 -0.3571308570883011
Ni 4.114824383926727 7.000494675941105 6.123290453411895 0.5007812189228215 -1.0907252101552443 -0.34115145094090926
Ni 0.7279063594439852 7.298404909907536 11.215459395398817 0.6796137850854296 0.39679757955030376 -0.3766858964020932
P 0.18075134001602022 5.723805927781664 7.842966393870696 1.0386817112954436 0.46805904609945204 0.8767999140545609
P 8.610780634095025 1.8006314902379796 7.9092864152152815 -0.2821505469266689 -1.0108916856663686 0.35449496212735077
P 1.8033212824820901 3.310792405994074 10.286010231609087 -0.496893453832641 -1.0423874422818047 -0.7717448959947354
P 3.906693837573081 6.0614873039260635 3.97816494600455 0.17910613153896895 1.015894795307915 -1.211840881222358
P 6.945124537939432 3.962279878631137 10.382441532550619 -0.1872606423253033 0.47637862170874085 -0.6499185720138421
P 6.214742490115584 7.883610144234879 10.282258016408354 -1.4356142737617146 -1.9193747897568234 -0.8821215833777903
P 2.633612469647381 8.553575320114092 5.706228720203846 -0.4307525963395097 0.29243136002738673 -0.05128245232406007
P 6.7510186942900265 3.840123728521517 1.5032457207793464 0.673194254712331 -0.347383290783234 0.7264279172254908
Ni 5.141821247378708 2.93825168220443 0.2980937515643575 0.8458443462133111 0.03146233227433936 0.8508001475566895
Ni 1.4718021394053016 1.2008797874868014 6.772648582155377 -0.031094150301643222 0.19746560788276313 0.6693918502471053
Ni 6.827277452996799 0.6745342243099279 9.328002491036234 0.5131078588089745 0.5514715461888373 -0.6100664730139106
Ni 2.514182095624602 1.6189580642519885 8.95333692133335 0.11572638173074264 1.0944206567289603 0.6885481114605819
Ni 6.4940040975868945 1.7840699266212325 2.3727871839990797 -0.6617793280071699 0.11145757915205966 0.29924709739763944
Ni 4.1415693750362275 6.781712912139208 10.433475617503257 -0.14003513367943624 1.030842931977315 0.021531960534504853
Ni 8.448448523576717 7.10783447880641 0.25643435723910235 -0.8082874710054596 -1.0673238005121684 0.5507482948695676
Ni 7.720288478041482 3.9850666470402736 8.050602162386795 -0.9471483818711367 -0.7816824668234216 0.6543745509026665
Ni 2.998047832861963 8.470578586856021 12.33894423434463 0.0828543135930702 -0.3277344062040549 0.2008340101343638
Ni 9.038871415099994 5.059850053638457 9.966841642953499 -0.17686412958232764 -0.9163787047884475 0.7025675656681255
Ni 8.528260686753134 2.21344713000382 5.664372314339642 0.07787357254902717 0.6912616537370031 -0.04944694177721807
Ni 3.3646782104831106 2.802313720329 11.710783287757662 0.5655761039110195 1.194079186363563 -0.9308614717856549
Ni 1.0675596501700204 3.3577603167181573 12.516678329147691 -1.1273716577336843 0.10546973699974094 -0.5814130709432761
Ni 3.1889331225869815 8.64485733316088 7.8439406564126255 -0.7761666792115148 -1.3542578848704094 0.8791239342020472
Ni 5.571081503272421 7.637624595328669 3.5671206108971214 -0.010048385374937534 1.0979834343795543 -0.07665872630531959
Ni 3.029668634661456 8.318321952302275 3.4930847540750314 0.5490143428975963 -0.39272623769440745 0.7976346192773037
Ni 3.6327488428652126 4.273207267705354 9.30161733835404 -1.0565989578954964 0.3970644600584452 -0.25098414862619356
Ni 7.143089648721691 6.173352075014739 11.482607941810949 -0.056612863398037984 -0.44737503538753925 -0.3879462998072609
Ni 0.6688091949314934 -0.01874038529408353 0.19815312636052634 -0.02970318349138755 0.7743581652478665 0.014683313043787616
Ni 4.444841201569515 0.23947067417984097 1.5841931741939115 0.05060136709663544 0.14897743047438858 -0.6232719159605911
Ni 5.844162885754755 5.553728295115601 0.5789404473079502 -0.10107752146931623 0.6139395828160716 -1.0644500785087991
Ni 7.792364115030823 8.610645694684784 11.340620196376442 1.1267545929749756 0.6594537651977869 1.0142490321743758
Ni -0.07514775756246485 4.830623979484011 5.906200829814403 0.7882068982055005 -1.0039008561708325 -1.1349942072759487
Ni 7.913134887195317 8.639432768869245 2.483648905471641 0.19074757243263923 0.35154513547040744 -0.12281157071229816
P 8.580869064825233 1.5656480012466414 3.523591855942013 -0.8362741860263727 0.12188700201549975 -0.32979488827750947
P 1.688020054412645 3.3643183720558048 1.5130540167116329 0.3037984642137478 -0.9193575849111135 0.9834749842163126
P 4.8066317523433995 0.9575570429426522 8.411509309821644 0.1390077208561864 0.8656683229177737 -0.9707194843228574
P 8.386736233293782 1.4681227914861004 12.20239454714278 -0.004334879929928018 1.2956074222170526 0.4861516419351047
P 6.547934881879344 7.558766003984612 1.1521846523116506 -1.3730691040396419 0.38727678454406206 0.5703802101678822
P 2.0908591737814333 3.2006098795530535 6.022369268493655 -1.0048994726386757 -0.46383189539198183 0.8791668716248406
P 6.877564873212777 3.780147658650331 5.958143506795989 -0.3606779510096111 0.4314457657517925 -0.3114744927017668
P 2.436070169017206 8.427281028090457 10.142574136504672 -0.527159451806034 -0.08740799440202365 -0.3412800060989735
