# total energy = -340889.24137778784 ev
CRYSTAL
PRIMVEC
9.11341512920505 0.00000000000000 0.00000000000000
0.00000000000000 9.11341512920505 0.00000000000000
0.00000000000000 0.00000000000000 13.33840423971382
PRIMCOORD
 96 1
Ni 6.6147902041744455 2.2273642586435605 11.426437428369944 0.433214427616441 0.1292138746942162 0.09150479017921659
Ni 4.3528314211725005 0.37228574773374945 5.5764669057060585 1.9089605364020352 -1.059191401213021 1.7078377913826586
Ni 2.833351693492458 1.5505109066685303 4.484985055977805 -1.1210506006116627 1.8397279273574574 0.48124906242716475
Ni 3.832473636184346 4.703278691898874 4.987469610941813 -1.6892127200823035 -1.3673232026948 -0.8543505839121093
Ni 3.9680903687915956 2.6734021421189054 2.496949107036028 -1.229447538560528 -0.2178068905432765 -0.7763523128597597
Ni 5.015331144099993 4.730336421830393 2.3028889536548363 -0.07533820772168316 0.4837211781167411 -0.09914842276740343
Ni 5.317477313904492 4.689608568996458 11.366935028741828 -0.14877637020717602 0.5625589143512505 1.0473473573902414
Ni 5.811342400707762 7.96408601513466 12.311733725702563 -0.5212286881438959 0.7259237238955627 0.233771641402649
Ni 2.0655464571400106 6.541618592985439 0.37482018851985766 -0.9285065984002331 0.4350440246260121 -0.3453570043818246
Ni 2.951097018758614 1.556589554652472 0.23045457725506094 0.3980239957582371 0.25833904632936794 1.3971379720633874
Ni 8.085841243118857 0.10636449227912981 6.647527414501155 -0.1867147971241623 -1.3159240222872175 0.11651236796714773
Ni 8.881105199674627 2.681804710996258 1.11822425549149 -0.41215580717392886 -0.5204686700494198 1.5531211444316477
Ni 7.137462796640744 1.0165285658542993 4.589651718992454 -1.1210925095931918 -1.6361184113604856 0.2911974876202856
Ni 0.9707883346228104 7.663480012510499 2.354134599049892 -0.9644472781609004 -1.1165054044431417 0.736163656456016
Ni 7.674334090095018 3.910119934270077 3.6084248785213577 2.010893978113743 -0.6288666364395492 1.2870921856571897
Ni 7.7305547488850275 4.166808388716404 12.612421749064138 0.3475244443467886 -0.21354580127407738 -0.1297088120527637
Ni 8.541694274838138 7.338276902077255 9.295600641564935 -1.3228426037839216 -0.4421826925533223 0.4210209708740426
Ni 7.154076552674814 0.7131912726742362 0.04143687654180782 -0.6479038555766584 -0.5279575222272972 1.505749854236536
Ni 2.065273054681962 6.511316487218414 9.14259551262581 -0.033150261499723555 0.4872189068573544 0.3662163643293371
Ni 0.13597397848576603 5.154092004974798 1.086597059144457 -0.031695531331068 0.2456326545062931 0.9202446155017571
Ni 6.307823037693026 2.1749165537746187 6.47312763187822 0.07748327908914397 -0.2298404246690429 0.43112566340821235
Ni 3.3986386157532253 4.275385618222672 0.32575356071544725 0.21580862916632507 0.9249615613614521 -0.8400997304200499
Ni 5.92669089775836 5.718813895488932 4.634628246024461 1.3602619249726444 0.4209111847690558 0.36803619114689523
Ni 5.300271185877983 2.800279109483876 9.514350859590946 0.935268599714415 0.7175072176970932 -1.223297202688416
P 0.05839785369760058 6.009276666919498 12.383321425317941 0.7803226103614174 -0.7474829381235772 -0.3792300029801856
P 3.9402671119775414 6.257261809784619 12.603284638916161 1.2717930934062742 -0.32447296184396374 -0.8101980577646111
P 2.527469023427965 8.566737939995367 1.3286958470877972 0.15659766602380773 1.6052541176814612 -1.2708656964959983
P 6.670482284878894 7.865014077753205 5.765672342773838 -2.2528653817183653 -0.12874876213233954 0.15918188181121617
P 5.08431969768086 1.029624543594815 12.509435599824958 -0.6805033867792345 -0.6326618418159233 0.005130379248029874
P 4.1373082634929865 6.159775606659846 8.148270871731144 0.055705263982104056 2.0411383788205817 -0.34525493158632153
P 4.898688542081299 1.048744488827663 3.5455878802465786 -0.03679788555463985 -0.04403271274018224 0.7214173513847769
P 0.32015245569156336 5.82347235642984 3.5033052787678747 -0.1842953890493923 -1.7193257374176003 -1.488488753163243
Ni 0.5368421305254167 0.08689550324150686 4.586570473290249 0.4632991628169634 -0.12210914532863486 0.07120901604465801
Ni 1.9092604987043058 6.3767295705364795 4.775402260332029 -0.03291603400173041 0.8017213877521676 -0.8043408276528857
Ni 6.102269956317009 5.585548424020899 9.136834011493205 -0.11097652575058307 0.7536353308782182 0.2794547452620606
Ni 0.28506762959174553 2.3385752651623606 10.083860027145505 -1.353756776864275 -0.857291154597672 0.4387831799534701
Ni 2.470227662127909 5.429818383916558 6.868491281095831 -0.4606301006252325 -0.3936464355158317 1.611115718668561
Ni 0.7431862563467205 -0.04682928435604809 8.862822777304933 1.0779938786315049 1.3907505804798048 -0.1128616585884379
Ni 1.840827863454804 1.2348130883601014 11.636477044082534 -0.10325935961198345 -0.2582968802375229 -2.754967633445455
Ni 4.256174538837141 7.293694074584837 1.2527656050970828 0.8196987981661947 -1.8239562663454976 0.5483795375270749
Ni 5.735691940565784 8.327702170923695 7.9421390884855905 0.388000550083964 -1.752635921533956 -0.5816565544126499
Ni 5.384943927135556 3.113288470288163 4.349533276186911 0.6866943460812948 -0.33138794379624215 0.5619385071584322
Ni 0.756845443150816 7.447118420626303 6.802679664077486 -0.51157136755979 0.2088658792999048 -0.14749467528127502
Ni 5.323583302134238 4.740005755430037 6.956898699930345 -0.3830560615944952 -0.43054767941755523 -0.2567670738565578
Ni 0.8820364286911553 7.831422029074331 11.324839252276124 0.29203078215485834 -0.452445250821595 0.20782046875452595
Ni 4.805421850225738 0.5356555638574869 10.217498237298013 -0.3224597880686769 -1.0126806592459914 0.5187462880416743
Ni 8.246984651892554 7.19099499792661 4.570564582054573 0.20049796695118374 0.31613307451970074 0.08071052777719002
Ni 7.171692784388397 6.0664086672363355 7.009878628250955 2.10654955723654 0.7309965104327798 -0.5324289277350895
Ni 2.5059431365642917 5.269212666643689 2.417358917473573 -0.2040628014843066 0.45736531383103174 0.48344144209279327
Ni 2.1113322554478406 5.3930001862327135 11.55904764528019 1.550874000268684 0.6924309914547558 -0.2581364434002587
Ni 1.2368818336260006 3.671075051783137 3.761590403569204 -0.47708490374714607 -0.4683945750619998 0.13675749136942897
Ni 1.6415265849528258 1.233400508993518 2.4976162090336658 -0.7440469158588348 -0.06604495534521529 -0.7774216346645385
Ni 0.9901452286526334 3.6386495202586024 8.251216921943142 0.519205744176596 0.6312482492978484 -0.8909978028214978
Ni 3.9047339058465247 2.9606661047903065 6.8931540054948455 -0.7140827653965767 -0.49766247078818165 -0.6104310554421809
Ni 4.017649121020493 6.893524010154737 5.816678305347338 0.988698180288465 1.7149916288186204 0.8274378186816653
Ni 0.7024183044856044 0.2610218834063932 0.05843339601714686 -0.053538595348088434 -0.5873857435869432 1.1999127623262043
P 0.16947033630432295 5.860591296817537 8.059597341170797 0.4795071400353935 -2.5549602329774452 -0.19885040404543172
P 8.802647807630018 1.6475870061062308 7.803393720416741 0.4437114704930229 1.4867843688776265 2.572615998385995
P 2.134261608262829 3.5018207034206723 10.36085863885872 -0.5975333735439063 -0.6389463892730545 0.47318813979590124
P 4.1538399987896435 6.400360656327124 3.49999710902549 -1.0879887850606875 -1.0754338312138125 0.2417430896438998
P 7.207207763688877 4.0418634653883085 10.302863598115975 -0.32454006763647336 0.457653791605728 0.1609346028362648
P 6.610078568480746 8.155476849183772 9.987224105665263 -0.8835066366507752 -0.498001085074523 0.6546344894322726
P 2.2212491569985455 8.607967030669059 5.78125172617496 1.7814122223356998 0.20536712211802693 -0.3189139796989475
P 7.016974333378836 4.064647003559004 1.655175747000126 -0.7014478502413856 -1.1151182942876279 -3.4874618114696845
Ni 5.233169109257649 2.9161470712047666 0.32189858605696553 1.8410839271647195 -0.10904459883519284 0.43808435411423263
Ni 1.7802054250902168 1.4916838111117936 6.948228196644105 0.22499800897507702 -0.4579846925825854 -0.4084732161160191
Ni 6.961819944175215 1.1318588360743613 9.023323690302217 0.9605479431064942 -0.21309688666211685 -0.4572437006515028
Ni 3.1009306791843776 1.898752730899981 8.902397783107432 -0.9805583247901499 -0.48807919797512067 1.3338322700262062
Ni 6.647999489412051 1.9095339011623542 2.517957351912463 0.045048555599206286 0.9439710125844194 -1.9522571423071409
Ni 4.3801990072231405 7.1317486852675325 10.394911826350166 -0.1575687716878254 -0.4883715324045589 -0.49450027101011607
Ni 8.279966101748453 7.550346075370092 0.23843337232243858 -0.2618375464009297 0.14604920108400007 0.4023550190334232
Ni 7.33460419572414 3.5956706538534022 8.09830566118128 1.311087777240839 0.1327062041181908 0.24172971990746112
Ni 3.2130803674758104 8.419929933438672 12.40422304323574 0.5080780096945507 0.17142496084462733 -0.1411815885790536
Ni 0.2082552090030618 4.803535373265205 10.399554200087827 -1.4026943831052423 0.5864580895663513 -0.6848027854855367
Ni 8.917258118043888 2.162248906551712 5.743236937066391 -0.059414594512891224 2.0419115095411797 -0.9422224053244288
Ni 4.000160477120667 2.6608803095402913 11.51517748686175 -1.3101596089996144 0.28660652581549345 -0.16183731715619223
Ni 1.2918266142784502 3.401254165935221 12.671123990831697 -0.4677034625322461 -0.17353197988530114 -0.32615472042176086
Ni 3.2682438700946994 8.585739410829728 7.8582546576487236 -0.39780596621016 -0.2231373016172544 0.16525611302975413
Ni 5.6149938687527055 8.001059140878064 3.627885665485239 0.7684597974855605 1.0070856816567173 0.5590663278169599
Ni 3.0856657086100117 8.38256493083873 3.509333802967841 0.405029994762425 0.01159644658834777 0.21649177127627875
Ni 3.7434629092590717 4.463176653240814 9.329693928083564 -0.5796577788150662 0.1000007434653697 0.13249383099706857
Ni 7.260503016177768 6.39948576846137 11.213903470898426 0.5324135011161218 -0.6406168349969418 0.23770671479099703
Ni 8.188813722235134 9.007790785318964 2.584155377738183 -0.6733531488876984 -0.006247523571608596 -0.7147826196770787
Ni 4.846122362813869 0.41137774252702924 1.3367211205730432 0.7313803761347597 0.3325883918622466 0.48571686839053124
Ni 6.335327324972692 5.902348965576788 0.40753096994228893 -1.2199110598250025 -0.3181444485227747 -1.6706745520688004
Ni 8.12197593465758 0.24112912055879532 11.050534566116216 0.45980117696603395 -0.5661849411396119 0.06945475235771263
Ni 0.21241092636539669 4.66370824280401 6.0624780512311265 -1.6354265274997835 1.3393352021223062 -0.5075740734749388
Ni 7.186101093927544 5.961659072142744 2.522371890268417 1.7558076343937181 1.4057082302309016 2.086576456548723
P 8.813684153519905 1.8676850982504203 3.473774167932546 0.004760911723753091 -0.10275593761300367 -0.5691190840672714
P 1.982650831859751 3.221701658319602 1.5699297719221776 -0.37727262214349866 0.1695223445052758 -0.40959395998402365
P 4.976425974319712 1.1988697785420117 7.889253028342245 -1.1452315687332406 0.8201690529343939 0.001956352395422437
P 8.638907075504862 1.870200400864465 12.439822777298215 1.166570696530649 1.0976275937020321 -1.1370266643249451
P 6.527009788310389 7.758687861818203 1.642890863218487 -0.12885572002384904 1.4249812195279006 -1.9348677431860997
P 1.95603054586111 3.5308378176348705 5.913168412183289 1.4063821163694747 -1.7029776350768802 -0.30758904160443157
P 7.123154734669546 4.066032242679782 5.6874555448923125 -0.5738905373139859 0.3287854731763886 1.4697425829039914
P 2.594361491497128 8.661708840506096 10.093543942209578 0.15434383699262452 0.22794963540423321 0.36463642143672687
