# total energy = -340870.53337872407 ev
CRYSTAL
PRIMVEC
9.20367458741864 0.00000000000000 0.00000000000000

0.00000000000000 9.20367458741864 0.00000000000000

0.00000000000000 0.00000000000000 13.47050808037454

PRIMCOORD
 96 1
Ni 8.882282069512698 1.1800859251780667 0.6617994098835123 -0.23239173033598687 0.7200554380402439 -0.4835365729097608
Ni 5.983732082693044 0.8078764481544097 2.8915257425337377 0.9587427715769554 0.5373554185024294 -0.1931314992837835
Ni 1.1671547626758232 3.1624193312604563 0.23125888538176284 0.17861479372484723 -0.41535605927878144 -1.2390002152459694
Ni 8.014550445403064 1.9727523810540368 8.92100560909415 -0.6892055425389227 0.1455828029705428 1.118405192569016
Ni 3.215239218520511 4.102215725756261 13.02910616424823 0.37803469712050375 1.6980912535188564 0.0911666901135075
Ni 3.550667131256647 3.7713528355120203 3.632672790339381 -1.5561805000832618 1.7708922966409824 -1.289140069325154
Ni 1.5562308933661075 1.8467540788079755 8.739974856267365 -0.8587425423322179 0.4238214164373153 0.5154473055754284
Ni 9.010213143378312 2.2681074955447857 6.7969889988893115 -0.9671448795977216 -1.9119970092355136 -0.7257298627172017
Ni 6.666893220809801 9.003245961873544 0.9804278557759862 1.8655212342714775 -1.9723402862102613 -0.6661016095316077
Ni 0.8416474905526181 2.5496939131648184 4.208994915164468 -0.30085763641786895 -0.26301614009006313 -0.607724198033979
Ni 0.48080731248911895 9.053939800352092 10.02483264947162 -0.03227582931457022 -0.6416959269937337 0.12109535935213983
Ni 5.199459377850559 5.554242617805356 12.96467676212673 0.8592081691147266 -0.2721168168397507 -0.6193738664577656
Ni 7.820932747495803 4.3931622802195545 10.92454151984303 -1.091674718552707 -0.24350018154432257 0.1618637995187535
Ni 5.669196510796832 8.248056868068135 7.842138933632045 -1.0668504604201754 0.4851918491249967 0.0219559354458009
Ni 5.741482169368092 3.062559464250247 3.8880738339842296 2.761201015949677 0.24794304780702456 -0.5167878787637229
Ni 7.024317915311318 4.908264324179037 2.283291717534965 -1.2571797143684735 -0.4094098689976755 -0.3410426932771869
Ni 9.300312959798754 5.677958408805469 9.311704347577422 0.5237997913051818 1.8484138851672296 0.8674040746619577
Ni 1.6830391189575051 0.38670434380286234 6.647358421940752 -0.2658440964571615 0.7012043667720117 0.25812333077413613
Ni 9.056470810806267 5.912596883419136 2.9934702417907504 0.5579489263830648 2.1024144520222436 -0.29414242918122246
Ni 2.107291693123644 5.145829567245168 1.8411085449440068 -0.25643668710033257 -0.608807403795829 0.18885575472656504
Ni 4.6170324558099995 5.6507615510160525 1.8246606584616154 0.7495637319120059 -3.0010286337384184 -0.14128211871265992
Ni 8.521764940419896 -0.05741988371458928 2.6165650500990187 0.591612122963465 -0.8317896678924578 1.5430257078688587
Ni 6.457932997713045 5.265403704774812 6.742406607985714 0.29634072238412196 2.925649545476471 -2.4390453893849804
Ni 1.8587464665235793 7.524233896545746 5.448941538502387 0.45625922525104645 0.34617255830458443 0.7949028221684374
P 1.3763818923295639 4.834275985847694 4.064268055924943 0.3318291450987188 -0.826685513896673 -0.9832960354362873
P 3.9920661507905297 8.962179166795245 3.708161327594472 0.2996960120096 -0.7231482180329545 -0.6950923403370028
P 4.3384648433862205 5.035090957119191 9.232564712696252 -0.31489714523007056 -1.3457657882389984 2.575526744274887
P 0.20655346224669327 8.66007775898482 4.995497670308941 -2.7433274781033656 0.7129483946818173 -0.11195585894471687
P 2.801745739703214 2.8649013532906844 6.760901391649955 -1.1767995733475087 -0.40228457080680396 0.06935396511379023
P 6.7752388755972826 6.966371581422261 1.8457692856494416 -0.07947948358356635 0.8024006732073794 -0.4440688538324417
P 7.9433416167341235 2.074885555635815 2.755095995746721 0.09131350010401693 0.5184467545233846 -0.7107459877138598
P 5.87540483525432 1.140924290696183 9.163878611174548 0.0030881520070204877 -0.0003172741301026794 -0.6591537174588648
Ni 0.05635225748664603 3.797537289119766 2.133634449930706 -0.8811599907954695 -1.244824021016598 0.6819815139866577
Ni 4.613295764012199 7.798126042385085 1.836124755267875 0.3229974057397018 2.415682032068691 -0.2453462336141258
Ni 4.055553096655638 1.197582110172206 1.7251008312361555 0.34272907984067424 0.41811305319862835 1.5950756344865626
Ni 5.500336696968601 3.251925064594492 1.049078062967613 -0.7646429948426314 0.4852247592454611 0.8323630238974247
Ni 3.2584872844265913 5.995117027899646 11.583815441476993 -1.6102317734017109 -0.7325939368268867 0.11561119630911704
Ni 4.37367810155959 7.185823993310872 10.18796041489672 2.9924637748875433 0.7030406486498021 -1.6005507986685208
Ni 2.5423401773361403 8.84970106221167 0.9626334717319734 -0.3522642730246191 -1.1525319590493956 -0.6823065014262443
Ni 4.561920853629619 1.5381640805604817 10.89769440168001 1.9660968764037106 -0.5121840614431243 0.8639611104186797
Ni 7.649072535820076 3.492426279787467 0.2667740240747578 0.5256640982074302 -0.4530124361789747 -0.9917899318399114
Ni 3.174476144696712 6.543959742131886 3.39431234980692 -0.9797905933861901 0.8916889153512514 0.7219444275328406
Ni 3.8713231466147753 2.338377549427085 8.68911074981281 0.7993199773995266 0.5490991893019188 0.4205196057575919
Ni 5.822916280271903 0.2528672720883591 5.062957842403386 -0.8491546415334665 -1.7589340958378419 1.0235975632688112
Ni 6.695341778314736 1.147808639131541 7.0014449437450725 0.1510271139145657 0.25768907145019493 0.7280500262099462
Ni 5.719595831695256 3.545715554440841 10.136934323773097 -0.4410133548355695 0.22550014542247618 0.33283496065541385
Ni 6.980848961220146 7.205915614479839 4.0578015543063835 -1.1633421622910223 0.2710485234762364 -2.0069414212238987
Ni 7.169128527987691 7.961684539771115 9.798447109673443 0.29405552589437095 1.6022839793095438 1.1398309665429598
Ni 3.327882989242903 8.713541903451391 11.658926628082554 0.5438225142840118 0.1476995922032295 -0.7547000246973067
Ni 4.373742527280242 7.416725776126737 5.25361932010017 0.8948806828156718 -0.2714385598258035 1.254225002615524
Ni 4.197381718833271 5.995936154919361 7.4773034405207 0.3797624784448879 0.5435875154550702 -1.7495202587231096
Ni 3.273277589153357 0.044882638475759136 9.199467379262574 -0.03825621526772121 -0.6728528122125123 -0.3517533948264716
Ni 1.175125144687882 9.064993413281055 12.509185076383995 -0.8261237278559321 0.33784578360644396 -0.6783482881094446
Ni 1.6623400552795364 1.622534163591135 2.077570267452117 0.1256212722469514 0.45306694356599386 -0.140966387244454
Ni 8.209024085027554 7.544923756549336 7.784660146401431 0.8570317302886982 -0.16496043616620623 -0.5060838620826574
Ni 6.31259777559708 6.064604769459745 8.858515421164268 -0.0557335461168782 -1.4342443899973816 1.023769055849669
P 1.0855181709356796 6.051949717188866 7.394257766233158 -0.6801732571333253 -0.392245441403247 -1.2777827353308058
P 1.3345051739059275 6.923059089795529 10.990170160736088 -0.07736372279214418 0.9063514024594326 0.07380814423040191
P 8.137520738778491 0.149234818950271 12.325743881237399 -0.7103371823112155 0.7328860141460087 0.011227750395019373
P 1.4080517358670874 7.54481331245679 2.232278511555473 -0.08065936282428045 -0.39827262143393344 0.22652061626719053
P 5.29657654989588 5.431750915497625 4.221522036361482 -0.49677415464595737 -0.6970844310663673 -0.5242857298026647
P 9.131904126015085 0.3934165835273366 7.943612204760861 -0.18638980968457577 -0.9988638079675571 0.18771315648168962
P 0.20447895404170696 3.509517503108938 9.61031848316571 0.9771534128736591 -0.06274597287896935 0.7514946303861315
P 0.07098886085128527 5.033443499405383 0.0772547223683867 0.9429736816681566 -1.3933327393846842 1.7824972278697622
Ni 8.256717525658605 4.298088323886332 7.895078468659024 -0.4515466502667256 -0.599162424506897 -0.5133462000720256
Ni 5.848576124440056 8.178246997904775 12.009766093566025 0.4259317779120987 -0.004612044850714638 0.577841551541934
Ni 8.52945921220059 7.27249499493623 11.881027857457388 0.6304445224496305 0.6752264546510114 -2.3861179452583294
Ni 2.3869269317753665 6.6530508945440525 9.121823341467962 -0.08114221599796993 0.6972579805297541 -0.6841103874042025
Ni 4.021352242663939 1.7182155624333595 4.477434804301793 -1.342231806943811 -0.33322962499067127 0.3033508351533679
Ni 7.531679669118213 6.037141005113343 13.41603323697106 -2.637588032382006 -0.19218070533474 1.029679507796833
Ni 7.875768239444819 1.1862707943606345 4.74190146720978 1.0474931389394864 0.38697905079798517 0.37374763970937563
Ni 0.3179694628069503 2.0517475182474585 11.446699100581316 1.2980970214081258 0.5785429484843326 0.01661832528297138
Ni 3.2090267383148063 3.6163261442751566 10.874390698152833 -0.20600655547423874 -0.2995949676553614 -1.4705409104355707
Ni 8.687486301284949 6.506914952757131 5.276990210450309 2.266805645948541 0.7521718589588142 2.49824092590853
Ni 0.7276388149198472 4.874661709021961 11.56238376531847 2.0663537017439446 -0.6318149204345958 -0.22449073032135533
Ni 7.239904783960824 1.9390301181300362 11.257976837076152 -1.48405591420287 -0.9170718742007303 0.6044624965635719
Ni 7.629579153485733 4.618854783337007 4.595666125739566 -0.022491753344612876 -0.7044714675590577 -0.5127293924236331
Ni 1.8698645051731955 0.3608236114496173 4.198083959188375 1.2045525750910608 0.589412801319301 -1.8383073928608469
Ni 2.6605245600345824 5.569888864249351 5.6692517328431045 0.7094100425112556 -2.776633548454663 0.7404797673328667
Ni 9.1139937756739 7.721938025877203 0.6343494510486782 -1.138882486586761 0.9022155259141881 1.7297911557252983
Ni 1.6653312494526533 6.43556806897251 13.376362639296028 1.004693784385773 0.7997598931504226 -0.7597301309220464
Ni 3.9928484631127295 1.01556104198226 6.7267944151369194 0.8453915749466085 -0.9116764142167718 0.34988831659327485
Ni 4.580079703179033 3.736581353708834 5.868938333635759 -0.4165079134950375 0.723284743610819 -0.09101319525477874
Ni 5.888409627151594 3.462790448287663 7.857279898352643 -0.7064113648942479 -1.596304107577025 1.6817835174977682
Ni 0.648280132588462 4.027408260405203 5.939106226732453 1.281836336574889 2.94567766777194 1.058333681198416
Ni 5.526070170531784 1.2152991833514364 13.304942126116373 0.03339143097625217 0.9712452749193402 -1.86676564820154
Ni 3.2397578070656903 1.7619514230815174 13.131253144341576 -1.183868307268832 -0.7624729837745062 -1.2896247222710564
Ni 2.368271083809496 4.268388066665876 8.513710804970989 -0.7950905126992114 0.07204668145460495 -0.5047810841108339
P 6.775119227830357 7.410430462851623 6.144760489992336 -0.706659476349312 0.7991194313529463 0.507288681024036
P 2.496524286278369 1.3425031669411231 10.957166704781077 -2.734827668162471 0.7343464007416193 -0.6394544392577245
P 3.333773340845348 3.3012291482418368 1.4274963387272228 -0.7346197090076638 -0.9292835857755738 1.8843993021229029
P 3.9531254044937376 7.406951473936428 13.074515252898458 1.0016503695737589 -0.7745743950237305 2.6676974501728767
P 6.633447068117164 6.22469348160496 11.099887163006017 -0.38337359283491396 0.5228659666370027 0.08079048908550603
P 3.308058274630922 7.97428436999572 7.3825654183023035 -0.18661709520403344 1.198833670329413 -0.762154681203139
P 5.688708300479932 3.362074639560223 12.295044104979404 0.3504375042285255 -0.46683648654626053 0.7452435072700971
P 6.881136352999998 3.2664576664386504 6.034410274925146 1.1097570299757147 -2.1670792391904805 -0.7298971067210139
