# total energy = -340889.9098839369 ev
CRYSTAL
PRIMVEC
9.08325187842206 0.00000000000000 0.00000000000000

0.00000000000000 9.08325187842206 0.00000000000000

0.00000000000000 0.00000000000000 13.29425727324036

PRIMCOORD
 96 1
Ni 6.567981177329164 1.7860125198692571 11.398615172091189 -0.8358607526380378 -0.010427365980911074 1.5525909829597906
Ni 4.813542040154377 0.6065713694741877 6.010931695786578 -0.6133633985976275 -0.5034536235486621 0.756949997073748
Ni 2.761926159131784 1.6236039805777949 4.865459181542978 -0.6994817276539501 -0.8165407121531874 0.3274104472057329
Ni 3.1696914916749783 4.2426687579435765 4.941488722730413 -0.17932827485210406 0.40025648463318164 -1.3908164007207338
Ni 5.245741319604396 4.48684472848234 2.637819875348389 -0.8645252104522659 -0.13303659087441602 -0.34798184359918133
Ni 7.313443639278286 5.9779149844067945 2.6250842482264334 0.10483930250459363 0.6323787633578657 -0.41270422347823116
Ni 5.293174059659207 4.592128698221005 11.688457190241127 -1.370716544647065 0.04536582972930897 0.65386958624179
Ni 5.708632906339978 7.909577444294989 12.401361645018197 -0.46196373183499145 -0.41664701017606304 0.4000549101453368
Ni 1.7750308686386431 6.537525034586196 0.5614067173534418 0.146974798222063 -0.6288951756846395 -1.141917159648027
Ni 2.7619624921383368 1.3600352677914216 0.4915020127456626 -0.4103953728393965 0.008042410688502278 0.025357504928182135
Ni 0.3122404083646379 0.19172019232801402 4.738844103657106 0.41751938547868744 -0.07643966831597804 1.3730657616055322
Ni 8.600449563898378 2.379058019328964 1.3908719987780316 0.7704745139227441 -1.379117881336883 -0.0816950031776464
Ni 6.721406380750421 1.0642391781926261 4.705980899230008 0.9976489617238496 -0.7951085104213403 1.2923603760346647
Ni 0.8187116198100952 7.394002998057703 2.673966675242705 -0.5928323685238113 0.3029219751460654 -0.4812122956519583
Ni 7.517435304569541 3.7131606036932534 3.7650668451798897 0.22312316054986733 0.26931919948995553 -0.15513470832503604
Ni 7.686710782099501 3.727766472327519 12.61285970946328 -0.5622763501138253 0.3480003555419426 -0.7614237165743853
Ni 8.133397847912489 0.2460707368304968 7.113491295990548 -1.0518403601645885 -0.7472409973161002 -0.9474101201729555
Ni 7.118771390167848 0.4412089567499749 0.3509632184235547 -0.6343376868564494 0.3116804380649858 0.37005733534198204
Ni 2.1722142130233055 6.47747565800589 9.15340159062696 -0.7332171722331824 -0.11334528309307576 -1.0044554431227217
Ni 8.861892795801406 4.7116188735218545 1.2504140453955037 1.789548735399905 1.3497070322749336 0.2874722162498985
Ni 6.3988873648319675 2.695427673888339 7.680105441508185 -1.288398306063123 -0.7948534569877408 -2.2381933815284873
Ni 3.176840010714261 4.065318269707235 0.2813873275250792 0.05891451494802111 1.6707807386293612 -0.06053328149836672
Ni 6.099812221391773 5.480625123717256 4.655741434418987 0.2628523608186892 0.37981415761842974 0.6704606578312517
Ni 4.982072691050003 2.660148324525473 9.70722742616314 1.2595189040246115 0.5450746415235581 1.0162879169812757
P 0.23731811555190324 5.692610050450149 12.538797600580684 0.22120126093680612 -1.4155308727482783 -1.7211008270401518
P 4.0075669557914 6.075923269583242 12.708964145096356 0.161676880318928 0.9110408375153021 1.0376859230410773
P 2.426136512569884 8.45234714593712 1.3816452317639225 -0.20188841954080713 -0.041418415045786736 0.43150258713165685
P 6.70355779128131 8.009502295567101 5.726102724215775 0.3892673326115296 1.3253098343774916 1.3937865390926514
P 4.92600177868724 0.877217751937066 12.86776390851195 0.2975293433755844 -0.8813733923578563 -0.11793135980186142
P 3.9653752519318455 6.246170655038492 7.848131971937889 0.6675648243406955 -0.04652719702726181 0.8512272077917792
P 4.611385191694042 0.9298615534567263 3.9128186496279125 0.2652316596841432 0.8303557636594086 -1.3698829930021763
P 0.19632540090859407 5.4516132179847645 3.5472795373004975 0.20305595748634706 0.438417054863303 -2.181460447612817
Ni 1.438469145687494 0.8131045285738189 2.7364231135071395 -0.3065811691652075 1.381833480495833 -0.9811807888654972
Ni 1.852765336158572 6.553847637780086 4.691250590048298 0.13405757593976267 -0.5438505393084698 1.4227366464680982
Ni 6.103781602357677 6.13882478717795 8.94276734341267 -1.1942380805389303 -0.7017669241437011 0.7164016433377404
Ni 8.594327452294214 2.2491856874056237 10.463298217700544 1.256866811113745 1.6272468199024688 -0.504009496052132
Ni 2.2356698089679448 4.942215382861471 6.962813776189853 -0.5448674106087584 1.9977636113793722 0.7445529089609758
Ni 0.39342106155610956 0.3288536756109513 9.311630017514512 1.174816481479209 -0.806039041290915 0.3107766953037938
Ni 1.6721448773324692 0.7815129793760726 11.47371458831087 -0.46750394492693037 1.5270578716856926 -0.4960889556534746
Ni 4.060476896584061 6.863068773300177 1.6437415494597398 0.08094552660613157 -1.3824397466212643 0.0648023411873658
Ni 5.772851495422229 8.33409229285907 7.767182941663192 0.16364557400952465 -0.8703531299879528 0.30386942666099925
Ni 5.094950259158224 2.994884313897339 4.715605512665871 0.8668600292330297 -0.2396810649085485 0.31224453809857194
Ni 0.6448500085279952 7.645082239841516 7.003600301020976 0.39688936793316165 -1.1608240238548588 0.12874002038159119
Ni 4.908135022714851 4.70504259933578 6.704745880595589 0.7968427195036276 -0.2539638000798078 0.1389385581811478
Ni 8.25472284004426 7.365018342080126 9.084125447032546 0.06954268408582862 0.2814167540844379 0.621690173295768
Ni 4.504584318931793 0.5159159764988835 10.77281455889888 0.21660207160189793 -1.4356045035697018 -0.8095917916391799
Ni 8.29126476138484 7.129725791643548 4.699373741988363 0.6555575154671742 -0.24465563530500445 -0.37993397102574566
Ni 7.473317951362683 6.28711795342361 6.989176097419474 -0.4306921754152196 -0.6686973952832419 -0.9593788624990572
Ni 2.1687807439040565 5.162711316379382 2.4796177898905887 0.47141022195987203 -0.3084364772063914 0.7168101916300688
Ni 2.593559006765646 5.245832152120779 11.30272419287161 -0.5813930163386181 0.39204078159160866 1.0779874508736014
Ni 1.013554634051331 3.222828513758594 3.7494327524601774 0.19399976082134976 -0.05337044520134034 -0.18681969813314275
Ni 3.6069955585456803 2.5809968697499808 2.6811061110303496 -0.5469924273715612 0.11613158758896128 0.446850787452953
Ni 1.0389877386383608 3.440417806752273 8.37245722280344 0.39913908319928676 -0.585109803068573 0.4295927717034537
Ni 3.597467227577182 2.697861985327383 7.076279939004232 -0.060387757059437934 0.2080248714558482 -0.8838272532149876
Ni 4.769497352960624 7.099069817364539 5.848289716928014 -1.556741000572422 -0.02840940438062849 0.6572752694892293
Ni 1.0795626237063116 7.431453244562104 11.197792653296508 -0.614842040025683 -0.8377276306434476 0.15173545283549997
P 0.16003781061388536 5.6206888639786845 8.150163713786325 2.493485927722048 1.576567548380046 -0.4276572452436377
P 8.463646710975073 1.966414980656043 8.27041052394864 0.22767915535166594 0.2850147558483414 -0.27956915935273785
P 2.1795353138437146 3.455405171955344 10.387387667109572 -1.0423020816568502 -1.5670045872819591 0.5625159769284571
P 4.051738808508088 6.122847347546312 3.9622733214973915 -0.7197206804086443 -0.2576916425533562 -0.9077269426507206
P 6.635051907425817 3.9313948075532457 10.321302469815667 2.013342953874868 -0.05297680930734747 -0.43550450920219835
P 6.366360240715485 7.970607812052222 10.266277039716462 -0.7984278046025605 -0.6311304927730614 -0.7167698253104365
P 2.187092579206718 8.635465498963736 5.834384166995056 -0.20650637792879276 0.26320511617241765 -1.5675486327108874
P 6.932610147842428 3.8186716547228743 1.4266200439254295 -1.9727971712420216 -0.026398801708502926 -0.007963220711134672
Ni 4.896871790683452 2.601488685445817 0.7148855119593649 2.114790457089093 0.9118175677803264 0.5893459526371075
Ni 1.4197213143061977 1.2505548357958962 7.229868640954978 -0.014062134520020945 -0.6395408283239437 -0.7533653650462833
Ni 6.7808744292258805 0.8408148043465518 9.173382927580727 0.04642666689365553 -0.7592737601109182 1.1745981948208157
Ni 2.8823700758546464 1.7024284382943111 9.29119633462916 -1.2538773894681179 -1.3679081286639927 -0.0008124685989663427
Ni 6.301269659475965 1.7982476598259463 2.532848369466078 -0.05563892952054289 0.7640642395210261 -0.5697582603131672
Ni 4.112387679696516 6.992387026873587 10.550987020690803 1.8575778110546846 -0.4955595655125659 -0.3334926488440708
Ni 8.157486631257061 7.109951552827131 0.21623770514991078 -0.6607886819591264 0.804893357722246 1.4111767095446406
Ni 7.797953364912842 4.185707686920268 8.465104572863007 -0.4182608916304022 0.3415252893405602 0.660677867412875
Ni 3.007682615455598 8.182174909209758 12.404897754880956 1.3562774864035996 -0.2830748585131512 1.2625841732134964
Ni 0.2339600374212515 4.843244273011372 10.286737064031565 0.3275724267048939 0.4361321154838682 1.1057862182534248
Ni 8.353966447443506 2.489592108514523 5.857316652406082 1.5860837154005976 -1.227314294267609 0.30171612776342227
Ni 3.919641079933383 2.5478248347671837 11.896499077437868 -1.4475611617109456 0.6007140852647331 -1.3613312467774232
Ni 0.9824899134486016 3.1698731567077427 12.659443165489916 1.3017415601392484 0.7052651671049466 -0.43448095303369044
Ni 3.2324113442369216 8.327806682725418 7.634253187238425 -0.004189869711631494 0.36489147487032636 1.3170895033502286
Ni 5.815297530327653 7.996613161492459 3.7928116373088483 -0.7224686754674267 -0.2167859054779299 -0.9008266159864614
Ni 3.0075100336744716 8.286278056235455 3.6455775782042044 1.0890089987950857 0.1566359754609109 0.562257838171064
Ni 3.5741868536284116 4.224874667984294 8.97428804324764 -0.024837884979286257 1.7015987524514824 -0.5123892354753949
Ni 7.317049690178661 6.072217302914845 11.465724960169887 -0.040705191028846024 -0.3555946229494327 -0.889594751826384
Ni 0.5642061755083427 8.981501053373552 0.2559778393923087 0.2968639418774436 -0.13239278664283005 0.3904233005928437
Ni 4.551244982597355 0.034470939967063685 1.8663411640570633 0.6438643953999621 1.506824061137321 -0.9238097071451961
Ni 6.011205101660889 5.708333159035916 0.47300306245925366 0.09529819578337781 0.12867394303034616 0.02291598536622505
Ni 8.094957526979522 8.514549253155684 11.404412103286704 -0.013316514603248035 1.2675101497602044 0.22737242274452454
Ni 0.14225280390624093 4.814977193913216 5.450047265402334 -0.0070659057078458955 -0.17934035903696208 2.7787788769324404
Ni 7.997003741312904 8.973089962356557 2.7870613330650795 -0.13855829202359365 -1.332288322577854 -1.2146294997110887
P 8.442391902141626 1.7783916717447863 3.5239482971425535 0.32047335376626745 -0.3007583918358433 0.6510177186152917
P 1.7254635644488494 3.167920257605524 1.5941806035460928 -0.10689721347488686 -0.6058256954596857 -0.2434245911113808
P 4.762503249199191 1.269965744546783 8.133279765641193 0.07360219886718292 -1.5603677986917321 -0.04453022120189105
P 8.719240328823085 1.5337342888691974 12.47533110473408 -0.9509752118163944 -0.885477644334217 0.09535707404577126
P 6.433821550632581 7.7808677685813405 1.651266115116845 -0.2856107375611275 -0.5952522908192136 -0.8253652524233528
P 1.5867986449397073 3.0745444307645715 6.099856729324801 -0.208970266088253 0.3776760282295044 -0.7722133509907216
P 7.086280599057917 4.092059362530169 6.053925450765789 -1.8459633667442081 1.6326355950182077 0.17700502603556614
P 2.668023503695814 8.469205660977666 10.019987396521485 -1.2140391744252574 1.267216015558553 -0.2383158091299057
