# total energy = -381166.0643534215 ev
CRYSTAL
PRIMVEC
9.30405720585922 0.00000000000000 0.00000000000000

0.00000000000000 9.30405720585922 0.00000000000000

0.00000000000000 0.00000000000000 13.61742818928561

PRIMCOORD
 96 1
Ni 6.8174362488868185 0.538509525436541 0.5699014143569248 0.5716649904175768 -1.165483634114057 -1.5533384026487762
Ni 8.753015088080934 6.818096836946495 1.086730625756039 2.4953026692158122 -0.6754095171960949 -0.7470723329487198
Ni 7.914589279494255 9.286128260353925 2.93839617325693 -1.168250655336233 0.3787224672161477 -0.7506659638372492
Ni 4.198902396559375 2.6539730061204905 3.2281477739395172 -1.2084004880822417 0.06566571762892562 -1.4995493818527788
Ni 2.7697713017645618 7.2019078036755015 11.077110886124961 -0.11000799118972668 -1.000161186622742 -0.4852309298930482
Ni 8.37179995330474 9.018506359670488 10.029167944340525 0.3341300253177536 0.6568389532827591 1.3632510895079555
Ni 3.837123437229144 8.133969643706978 5.969757555436083 -0.38799283677448015 -0.5109679296478362 0.4151920228970914
Ni 4.964979856525752 2.019668907973733 0.2838416635627808 -0.24975670397699568 1.697728985083431 -0.22368366103902768
Ni 0.7582667039649948 2.041952124916329 6.216260176729961 -1.5092277854828073 -1.5270303608818667 -1.4916908050403084
Ni 2.703842752597449 7.071427705803699 3.854712757325168 1.6990937266414412 -1.031154806790779 1.5121539579906669
Ni 2.6954504930224084 6.455889890986051 7.981024899777598 0.7757288203431479 1.02439460524881 0.2877714926578721
Ni 4.6493769329726 0.1272729893623607 12.70595915069138 -1.8103085936550756 -1.2942575930573774 1.2267211407683003
Ni 4.9377096649354595 2.7260701451969735 11.237456077134151 -1.3491341904905991 -1.370546337617788 -1.0773503315102348
Ni 4.177047166246992 1.1355787867547935 5.372932990821626 0.7774635436460675 -3.5175324056028194 -0.22792006771787843
Ni 0.40350207334166255 6.2132959041128775 7.563337860861538 -1.2318857156883753 -1.43453338199271 -0.02942473301902029
Ni 1.5060663436041355 3.887356041936065 13.198501981637358 1.867294009901184 -0.04050824452669152 0.41537379989059436
Ni 7.396632416365102 5.519055069621985 7.511427734645327 -0.14709409740874668 -0.818965776654912 0.9276856451608345
Ni 8.773121155643754 4.591589433836706 12.728346573074376 -1.130240237530731 1.2393732823146721 0.11624188791458046
Ni 5.064272754735098 7.203777919168387 11.397951063463914 0.8922134203961538 0.432944461784506 0.6433499176573887
Ni 6.804019798435368 7.569380845998998 1.5473484453053041 -1.968456634885139 1.1349173312914262 1.6037615922963346
Ni 5.155164089312226 0.4336621050916079 2.1262934032397665 0.3408429185615549 -0.8917246536851934 0.2634511707449527
Ni 1.3989673414219965 1.707359620661783 0.910605753772052 -1.238496021916041 3.4999452886486755 -0.31644700621569377
Ni 7.181978513199076 6.1837927387997365 10.298684151065512 -0.21217746017164105 0.00014346755639975292 0.5869468562773118
Ni 6.058736906263022 5.515975426695889 3.7956133861271013 1.3756018977638245 -0.4259430907660084 0.2038961939994553
P 0.41743489896652164 4.016142801401374 6.910994126251316 0.33323502430730995 0.898284566290898 0.7130522672495332
Ni 2.9480649494768656 0.18869000120360108 1.1824275058658806 1.4601896491082333 0.3662029945928984 -2.42608497256957
P 6.1483535850066895 4.513258576450603 6.100634936549409 -0.2842755636894717 0.027684610399461997 -0.082641940471948
Ni 1.3151656984149143 8.442492179747264 7.707423281545514 -0.4788754199886655 2.411515045175195 2.1529582264080664
P 8.907164707414935 8.620748611230853 6.3715132572453355 -0.341916868352024 -0.09890725329087482 -0.5183112573867847
P 6.1570714865829785 0.8498930590592269 4.096163275571099 -0.7285873867706549 -1.4154156873266528 -0.23271903176841854
P 1.1325735762861262 5.48659321412607 11.387110906445198 0.5403810927026307 -0.3299383558339092 -0.35867686141918226
Ni 1.5888073240928648 7.30735998773704 5.937634367621468 0.07997339250084937 -2.589481920903398 -1.8494430977626923
Ni 8.90027040104564 7.808281122172292 12.566462491007856 -0.884914058521263 -0.08878636280678903 -1.844286493262417
Ni 0.5627028653178907 3.2164869990776572 10.910337522011123 0.6737722387029881 -1.0704543757213498 0.8430904376172577
Ni 6.089216997579909 8.716682744798748 6.287588800683496 0.6756763977042363 2.1906863370864595 -0.01771592922252433
Ni 5.341738347913428 8.037291185564799 4.03747235248317 0.47954956323755477 -0.008362255921766244 0.015103174190025602
Ni 2.5965483652145607 2.1084389175141545 9.873575265738133 1.0772875965930995 1.3847149158086862 0.5696286767138383
Ni 2.89747879059716 1.750679310885051 12.336204753547705 -0.3687180477052682 0.7482704670218792 0.4229220445514974
Ni 4.052679833941489 4.67392103580958 7.547132984473681 0.6981990042867846 -1.8948552073489042 1.6495025459768753
Ni 1.5253350460208857 6.707880975609546 13.255422342644211 -1.074085030495402 -0.6553178886525423 -0.5035320421950812
Ni 5.045766985006988 4.422683579817546 1.5579020373629184 -0.4204879811887081 -1.1134133957813792 -0.8107696139973649
Ni 7.515603395507053 7.021864993213633 5.521404344059566 -0.3544044592960735 0.9551802510366776 -0.1437534630712879
Ni 4.2934874418363815 5.592045398187608 5.615105503904611 0.6770907615532596 1.9207174198276469 -2.6424073081475203
Ni 3.953684665561855 7.448642095993123 0.15409472539664706 0.2619087659584973 0.8461955589051426 -0.3066287345736913
Ni 4.664161079829294 6.547655806937961 2.1947889417824378 0.0203281700343908 1.1993622891393731 0.6589084342172782
Ni 6.067557152468274 2.884732232262565 4.633560966174804 1.209635131820291 1.2779935657900312 0.34741337269022105
Ni 6.258253108399569 4.088612102764998 9.09847100949714 -0.7608485607972058 -0.6190949017647661 0.14059563416859655
Ni 8.497227948128597 3.419008411682871 3.536759628928717 -0.5077838754928997 -0.04940631834726975 -0.70332038467375
Ni 3.304605724615581 0.07769352946937293 3.3801314087623546 -0.09555787720266767 0.17201502902014246 1.5363089579703153
Ni 7.924042201587648 0.8118162050560643 7.657570282371478 0.4728608383634694 -3.895343930968924 -2.3158856913046435
Ni 0.7230052576640577 7.128759306137844 9.720406294030752 -0.5862066356771776 -0.9307450008124486 0.828918774102566
Ni 0.9275056432311465 0.5135569744894227 2.902582065959588 0.3670422026647421 0.40011635951089153 0.5683438964641437
Ni 7.8558899827548645 2.887421104787162 7.055312148364755 0.17867778575229873 2.7781507564301378 -0.30078384575714
Ni 5.63820282585033 0.4097367220570001 8.812177726867816 0.13572005124385014 -1.0557579500514398 0.7139092159331899
Ni 3.476535397217765 5.449358377297565 12.698074892638287 -0.06831163989220493 -0.5685557553646337 -1.0691582826177457
Ni 0.8720897482700626 5.65193561424585 3.9735385931751352 -2.129496138730384 0.3835548556077846 -1.3480710393334074
P 6.621948703508578 3.9979998899032267 13.307222680985715 -0.7260057420864077 -0.47451714301996994 -0.45047835690321125
Ni 7.558178761156039 7.594241286780048 8.472191660666871 0.10550290423052153 0.7672665485084077 -1.3545936709432735
P 2.168403566029825 7.871511494757628 2.0982416708464777 -1.3648606000869203 -0.5935031693385907 -1.7442919204446345
Ni 2.5303406943320916 2.9114720925936797 7.062896815776698 -0.040033875993434276 -0.4282288014763915 2.351926644088601
P 8.129875858548422 6.273949052859761 3.0610068995671256 -0.01225979120395953 0.1208343923812693 1.8364502850474502
P 3.084853198115716 4.731820183631616 3.5777207406572265 0.3820646442155033 -0.04582811407770817 -0.09648450278199514
P 8.306904154484444 1.6746930759079395 1.4960244746913407 2.6798960491215977 -0.08145331948048552 0.02497569610873118
Ni 0.4212449103811325 9.074442351427852 0.573378340524544 -1.1614282330977612 -0.7006832041612191 1.8173199919759022
Ni 2.0869372413745553 9.223893421886691 9.969455435774394 0.7205542320535333 -1.9349623597824352 -2.2188738552642686
Ni 0.10485951561926517 8.032927582748066 4.239691383230081 -0.17547959052997522 -0.3945656048959914 -0.049859860944920585
Ni 0.7394827429272466 4.583057613403988 1.9348456794884474 -0.4130235544908629 -0.5810906546068508 -0.871735612157776
Ni 7.615584793947612 1.9562059339589324 9.35777415265725 -0.5553827083177855 1.6009138384348944 2.5070484968978306
Ni 3.2197341150329666 4.352400731890878 10.514465705961577 -0.27949588291264127 0.5562278299269002 0.5849287974060184
Ni 2.7484929229972477 5.719594718048171 1.1578136226000613 -0.2698997545837739 -1.291059397835054 3.179281673248473
Ni 3.897413727746063 3.131112970407402 5.493937836862807 0.44406242607453844 4.249118212880166 -1.1880363226035926
Ni 0.6985914116275767 1.80187953753854 8.566343136879357 -0.4770283394775978 -0.3918222378228994 0.4460493745975802
Ni 1.526712046483309 3.1286660033694464 3.857041562836956 0.5476686275029794 -0.4685791802689801 -0.015758548385837377
Ni 1.6843413832020824 4.221241437845043 8.787135856971783 -0.2909550325921763 0.8316924801929612 -0.503793523386584
Ni 4.747450999691558 6.032201735189834 9.32441166442645 -0.08556065678063973 -0.17823452756729302 1.765143052862031
Ni 8.332741521269242 4.937998090707994 5.41518829690367 0.4785247215174662 -1.3465096083835586 -0.6559154130272252
Ni 3.3615465545482266 0.8223744491422681 7.946286341490095 0.0718852161760762 -0.8340064730381184 -0.44812888283442825
Ni 1.9402680840120987 0.07629792089259238 5.317810173661666 -0.497221269485705 1.8449254123979968 -0.20088851752138306
Ni 5.719483069362028 1.993608243816651 7.095101879294487 -0.5640547821704867 0.40405426111271703 -0.05304288665859252
Ni 8.738221637167062 4.436555929070745 9.428122128984166 -1.1341657978373823 0.6881884141283181 -0.973096469195466
Ni 6.3077320844750275 6.1994328589168575 13.43696961915185 -0.43135886246494104 0.4235522219363287 -0.9561004488581017
Ni 5.401656476143206 6.876544924142064 7.373837476277687 -0.04919805899120559 -0.15896719469724882 -0.3649495818017715
Ni 7.270832259254103 3.3625141764947943 11.235358942646107 0.06932542586869996 0.23171167354982677 0.33094725671439773
Ni 6.082173826295756 0.7405620135599569 11.341669891185225 2.663273352963252 0.6171861147778274 -1.761655865644379
Ni 1.966263619768931 8.8281546538548 12.53300417098812 1.0612904498338949 0.838492276723614 -0.07643838276439739
Ni 8.024098032485634 1.4599368281129492 4.992843646964034 0.7850223298299318 -0.9427427966042733 0.410160631120771
Ni 2.1035542874954225 4.910588338260024 5.578882948497132 -0.11356614085463021 -0.6878258885825766 2.4418599760156394
Ni 8.313370474223527 1.5281634794031609 12.446629025765452 1.1881689915267148 -0.36953642984150553 -0.3394450097727638
P 7.007090150414116 8.18280663983712 11.718409774458543 -0.19929854732644386 -0.6913326161842546 -0.4337091078646724
Ni 6.482676271603059 2.4607928669225276 2.212355001735516 0.10063169218114928 0.5235668493587693 0.5480550643081206
P 4.350316623082886 2.7530053907288385 8.69410179802644 0.18333893867339393 -0.14471299877107982 0.6233765598592554
Ni 5.334527703600061 4.806140992373769 11.684979366610342 1.4123702156321096 1.2027376333695092 -0.7305059439496064
P 3.8883329679398115 8.07176271741128 9.215581177203386 0.3819229764313164 0.047827146785607955 -0.2732380749283875
P 3.1537683496371396 3.037904925592819 0.9931541402771855 -0.10883479681723192 0.3211935197617436 -0.4963658634639452
P 0.9171725573286634 0.866973447227585 11.249058236435786 -2.2284658698280784 2.360883853281889 1.5866534718611385
Ni 7.471241650879789 4.85866239514661 1.4698102935908128 0.23711124729884325 -0.8934753178277128 0.9533213434510678
