# total energy = -340893.10909558914 ev
CRYSTAL
PRIMVEC
9.06581161988080 0.00000000000000 0.00000000000000
0.00000000000000 9.06581161988080 0.00000000000000
0.00000000000000 0.00000000000000 13.26873169198428
PRIMCOORD
 96 1
Ni 6.44206595992815 1.9611707482770164 11.292951446027951 0.12619539958286652 0.21935238065352544 0.7158282873327736
Ni 4.647443235543763 0.30393495836971185 6.003225379701214 0.20043677469594512 0.013507804678447706 0.1446816313125121
Ni 2.8619316517620708 1.6181929659077403 4.849283557199804 -0.0005157632941539505 -0.2830175229126545 0.3674610353697155
Ni 3.5390661818673683 4.32275119506069 4.730263050331676 -1.3193865269145213 -0.015214502956909282 0.8061465134030568
Ni 4.868522115879383 4.772497039995069 2.547901912237035 0.11013731767873935 -0.5234768607481244 0.21500001722210071
Ni 7.020863632205166 5.8560519016613375 2.7590074932920348 0.508966068726459 0.9411602826085017 -1.1160341212336777
Ni 4.997945641495364 4.73940682785593 11.522287467518728 0.1761593902058192 -0.034304686819140916 -0.07687341341928697
Ni 5.556608146331003 7.735303976818011 12.39537044835699 -0.5847205380499543 0.3501675383965905 0.4817596835149961
Ni 1.5931169311743552 6.627126370995607 0.3591131137570127 0.41298987303945006 -0.2833810768996603 0.850751039486309
Ni 3.051552166036647 1.8049668153571965 0.608835425668963 -0.2970565175042239 -1.473808525443249 -1.025644418495511
Ni 0.5282902229976837 -0.11117314039480333 4.855055759410486 0.06625038648780204 0.3692232694764609 -0.5599901251828098
Ni 8.538634603629282 2.1209194135109195 1.2249271268985193 0.8433254364461992 1.1347358114082393 0.913230646077769
Ni 6.990656348137328 0.7015668922189898 4.754411652544009 -1.3826099536505414 -0.8695131505851604 0.1690500328545476
Ni 1.1003900737052768 7.343606523206071 2.6249667498562013 -0.46676321010616384 1.2331524982159408 -0.26390625600450035
Ni 7.787967276082739 3.7996357372928746 3.767829244068504 -0.07195772128522446 -0.5292600430888046 -0.05470664751426062
Ni 7.608128772465184 3.6934932157243745 12.727566261055834 -0.08378171050334604 0.46705554453560205 -0.903626804439418
Ni 7.979210570623865 9.021887688033868 6.894618580116851 -0.9222413342168118 0.6772375715437692 0.4030314762751575
Ni 7.099237573011425 0.5250718598992196 0.23684795293693947 -1.7013128457799473 0.6792810843363591 -0.457285866743348
Ni 1.8429525657306176 6.656010046577879 9.054927131628354 0.1143716674750611 -0.964176540998017 1.2008015926890612
Ni 8.880615146728612 4.569468190445482 1.3582009026776487 0.521252856513612 0.9788395423268303 0.8208213418064122
Ni 6.344726341369815 2.0046866436928688 7.015430491346265 0.7170482757828037 -0.303842944298438 0.7172940732450228
Ni 3.5028210673105815 4.240551481782453 0.38084205086799494 -0.1930227416200611 0.15085922087813372 0.10299787842048068
Ni 5.8779820997886185 5.443303633641977 5.059751811703192 -0.6408793446297092 0.692345373719485 -1.570219237564515
Ni 5.378347093922273 2.981473442794035 9.338320774199474 -0.5496915714702791 -0.39809572953643696 -0.6218326124109033
P 0.013672150390968116 5.621328974950539 12.517522286532751 0.7007621370282706 -1.3260431129990904 0.49952009282221066
P 3.7872609045339916 6.173853925370235 12.74995065634152 1.4214498093358745 0.5851121170614181 -0.020951919661318756
P 2.671431753767632 8.412991521427553 1.5074740226713397 -0.831420200368181 1.0172970749720802 0.6399200660402334
P 6.411378187848429 7.71683691870091 5.785697577747758 -0.9064485901589292 1.1319790745987086 0.15267853347505964
P 4.780076058446663 0.8637071185384558 12.466265094638649 0.057023982793527606 0.5528833389346994 0.9825571003877337
P 3.97323696256749 6.003262549528548 8.132485339833504 0.24588410839546684 1.2930517456747344 0.18072489808931455
P 4.903652135616139 1.0668737684235254 3.8802543730376677 -0.027978487490796976 -0.5746592971592104 0.15780248496518628
P 0.18753084471346126 5.5911126250711565 3.350540817627424 -0.3921883629130665 -1.0246848827957191 0.462122626010359
Ni 1.5287859324512534 0.9177139710741465 2.5458711704509622 0.1389041053987866 0.8951905007466067 0.718250523621021
Ni 1.607304926242232 6.556059474294592 4.806982480530977 1.182295049244441 0.361909509423867 -0.1594590467320028
Ni 5.972556645825738 5.788167104812607 9.28975703491538 -0.24813408077190813 -0.37804600997441346 -0.277090101684626
Ni 8.915763298088457 2.4538160134421902 10.197869404982253 -0.4249581011449197 -0.08843386456337674 1.6689938219322675
Ni 2.2596988566413088 5.498994913962724 6.847567924779615 -0.8108688585793906 -1.6468733358841443 0.6928616512342713
Ni 0.652843594651707 -0.19160320725946145 9.208646125603696 -0.33038084268796647 0.9319264227150595 -0.09429829376395372
Ni 1.7386504039057464 1.3256482931631275 11.608720008207309 -0.8493924685758856 0.06169233480347439 -0.4673715331141241
Ni 4.2374056451763495 6.8651129898625936 1.4948689182992145 0.3432191321032153 0.6286100403440529 0.3612577347724811
Ni 5.5766073265992055 8.065172595693262 8.073028121396979 0.4611144964608187 -1.2041214010909131 -0.5470456492069998
Ni 5.346752740688056 2.9677206066803166 5.090747821375442 0.37644061316050653 -0.9563449607687401 -0.7021050242094102
Ni 0.5997532956632128 7.572155632254745 7.010282016969878 0.9961458948157618 -0.691967421554776 -0.4020197471811915
Ni 5.237310263717187 4.379639162505372 7.2659442486060914 -0.47959275777066435 0.46207840303598485 -0.22451207047759397
Ni 7.9712507880873815 7.257816748556027 9.061667562512039 0.12234980058453121 0.33295271718020075 -0.0059719013127187475
Ni 4.58042875660335 0.3384702608691177 10.354414212416163 0.34860147946105124 -1.136290557489869 1.3148876106029033
Ni 8.053940055189047 7.131756639023229 4.46848411564607 0.5215593320104372 0.3868373830137983 0.5485500016666681
Ni 7.158600507007884 6.137382165524824 6.911336843186929 1.3945367869951144 -0.438732786331509 1.3126224687178103
Ni 2.4365819056952036 5.045332638440918 2.5145968403642818 -1.276311035881286 0.10565691330988256 0.18673202351534293
Ni 2.193273655451319 5.5549400370067294 11.599458375132969 -1.199038330141051 -1.2591363238742121 -1.7286197611250165
Ni 1.1764612983791136 3.106001430175733 3.955236793744954 0.08349888915560459 0.5316138880329618 -0.7261396965611107
Ni 3.9719949463858293 2.606493345671017 2.7476625367246603 -0.7586147863706806 0.257823283035214 -0.332889210932117
Ni 1.031100076067077 3.5054320210355323 8.45667966726276 0.47658533840290823 0.20566922673947802 -1.6122886559307394
Ni 3.6274306469961832 2.613002598360305 7.100987274639604 -0.3737206431261822 -0.10262841089620388 0.19932348702710834
Ni 4.025619221674322 6.943650115276663 6.014078969282851 0.646701607738441 0.03940935503555794 -0.04893246403464476
Ni 0.4153773533674008 7.335220647526975 11.199141147904072 1.585344780352044 0.2711243710194944 -0.1354184608430313
P 0.12657595420970608 5.74936543140014 8.007718921608175 -0.10795805063923343 -1.4050073475091351 -0.10845375932872936
P 8.56729163392293 1.6620896254084812 8.26651248455202 0.5089511563281235 0.05816066750113209 -1.7335547365327886
P 1.9345716572040768 3.559718100566808 10.569247655178453 -1.977822392370755 -1.614427042429981 0.9822483108980632
P 3.9028046726746246 6.238293713831875 3.8591709217086874 -0.18876422345402327 -0.059584030211219954 -0.40949497251231415
P 6.848368435939037 4.04240003884406 10.510480345000499 0.7464637528304435 0.5722326899955887 0.10019717574689195
P 6.274810802735011 7.894227653201323 10.282138843036204 -0.11957738004571664 -1.133321447559216 0.09754199751223201
P 2.3732028171843234 8.475518423653206 5.920693857720432 0.40276639553922894 0.3246290278058538 -0.011759197418457169
P 6.695119957582876 3.933238602031086 1.6946694323576372 0.5363467747322569 -0.8591824580831139 -0.28064285203289085
Ni 5.343960470732204 2.6679232846997287 0.23389975102251545 0.6595337265061028 0.6049319800008227 0.6744900907056192
Ni 1.4146836283462705 1.03606814079372 7.012471410457988 -0.2200805170688016 1.1210542001560886 0.5368111159631852
Ni 6.91337937052801 0.7230800630152018 9.23666945567035 0.03518888919630714 0.15295749816805915 -0.17556315138271697
Ni 2.730123817709763 1.287517489804987 9.239521559982398 -0.4416288769323813 1.8089726484524717 -0.0639541342544576
Ni 6.563910467092536 1.8909560378612296 2.5531564566084994 -0.15904587045398413 0.33570225490087996 0.25114587101503844
Ni 4.031403209440013 6.845431112998466 10.399845713811466 -0.059680189469452055 0.5404407422959725 0.12118920461752676
Ni 8.185766020864444 7.408282022767882 0.10963285901331306 -0.14263709007865757 -0.21084562873409496 0.6440402588561941
Ni 7.462477444183707 3.943129402426648 8.20935072959868 1.364960101779262 -0.12253980510815024 0.7484892679009045
Ni 2.8026684416926066 8.50796496317265 12.664526233896737 1.5909369297278406 -0.29111109855406636 -0.9876165171885122
Ni 8.97398393983025 5.048569133162473 10.18709559454221 0.5932918246587331 -0.8208557945887733 -0.2526543372397649
Ni 8.590509177289595 2.246281455554754 5.689008884458352 0.5037739830025582 0.770822384180466 1.3041293436451347
Ni 3.7886751711350066 2.698901162748889 11.39918099938728 0.041903582212321384 -0.47386691103048073 0.16892070636553488
Ni 1.1132000654183183 3.374041214314293 12.902501067208716 0.15499458320274598 0.4694700675143657 -1.0217803075544143
Ni 3.166678906846212 8.34460810494385 8.057251796146424 0.03896943928466192 -0.2700985008581413 -0.7747350889713109
Ni 5.637357329762044 7.712476263347779 3.6748412150517544 -0.10679334090717092 0.7085291825681991 -0.27429068456261796
Ni 3.158728190121274 8.337427982200234 3.7884485258463823 0.6038305194065279 0.2827200462768938 -0.00975527961455094
Ni 3.382708130151284 4.330856030581892 9.386910804337045 1.1766810454917733 0.7236297856550634 -0.8903593979065506
Ni 7.3139975827002015 6.151361646927166 11.428756396390435 -1.5628116322465344 -0.1122890739144195 -0.15607393230985378
Ni 0.6143401864390683 9.25809740783804 0.3814458339168899 0.8918755774407608 -0.45323612215400655 -0.9803145842104601
Ni 4.921085691217115 0.4048863962475624 1.575489367206317 -0.9834600718179773 -0.9072659438539019 0.06287504225766591
Ni 6.1352698314348455 5.537551810463479 0.3650285557901051 -0.4650014902200508 0.8035224455166484 0.023627923831585115
Ni 7.9562106067342775 9.02094484363319 11.30030200602861 0.07356671764355717 -0.4111949859225564 -0.41020074033008713
Ni 0.08440905155174513 4.916126692302016 5.581054107162013 -0.32578139624274216 -0.4110995979952727 0.7181769900706083
Ni 8.291029158713082 8.930005688025604 2.322943771141323 -0.6992307879854087 -1.0239001821108946 0.7628709905438732
P 8.609021564464422 1.5378698756193125 3.6386840388669537 0.41252656024978634 0.5257926533654944 -0.7832266713820898
P 1.7484324145627683 3.0482431448227336 1.739344845070091 0.23858423229994394 0.4183254263197505 0.20253093822081247
P 4.867252902263087 1.0179999783845963 8.385891090976177 -1.0572733582547016 1.386106139729258 -2.2767555580724013
P 8.587716907333744 1.7185061706528248 12.306390414624271 0.7800652429349726 0.15111658830457844 0.4202871780318117
P 6.482553874287982 7.8815808460960906 1.4130137058596872 -0.35988862233909635 -1.770427184079106 0.8325543139726242
P 1.6724065189466562 3.2931832411447126 6.141047473132454 0.9747414609980568 -0.32281897118030856 -0.0026739472877373304
P 7.136833493488412 4.0048131841786185 6.035574915037127 -0.46067638048213566 -0.6074400911346571 -0.39841660321096545
P 2.417307990350599 8.472726153697355 10.440753375245832 -0.6684042895228552 0.06771334418657371 -0.5022783722936383
