# total energy = -340863.03191653197 ev
CRYSTAL
PRIMVEC
9.29846926332765 0.00000000000000 0.00000000000000

0.00000000000000 9.29846926332765 0.00000000000000

0.00000000000000 0.00000000000000 13.60924967055935

PRIMCOORD
 96 1
Ni 6.510099954154197 8.885142818709902 0.3744744552033002 -0.032991110214039956 -0.9297744093690633 0.5133767961996449
Ni 4.373125793126443 4.431018061538934 8.229363638509906 -1.6326823890957431 -0.1473794898596494 -0.9909805485647386
Ni 7.1570595364439376 5.427841840951772 11.019327439017491 -0.37885385058768944 -0.5128155243795361 -2.543341417791594
Ni 0.9619266250035732 9.22558766666791 9.045509795324563 -0.11112539262362152 0.3167460255133513 -1.7530627246587291
Ni 2.585857755247643 7.287963383972214 6.930033694780214 1.2385898671814282 0.06762464112750935 -0.30634051390931116
Ni 5.919814540829143 8.84355076657224 9.542982539655192 -0.9735839503548458 0.08359479130352054 2.1345534986486334
Ni 2.0914581549437283 8.885812308482741 13.263451578494411 1.707090628803989 1.4952942061208505 -1.5104909684659469
Ni 8.972669308039613 5.790835476397779 1.0067238594287033 -0.6987530770180418 0.3081127753183855 0.34713697910038277
Ni 7.266223563293062 1.627362265329873 4.998663562379129 3.3816570597280275 -2.902052217772505 -0.4304160389356974
Ni 1.4420716722274447 6.000218402853366 2.7940876715388954 0.7658272449587198 1.0154965314282318 1.836275450032483
Ni 8.920216644031443 2.34048045503286 2.941190382029171 -0.7475032498385513 -0.7413130618674394 -0.7304743193807226
Ni 3.944140922710398 2.309060928054735 7.0049802853088865 1.5417141881462866 0.4016518223188115 0.18816669907934047
Ni 1.6340478645892018 7.96978292679495 4.649396326970146 2.0705507705444277 0.5509359854003415 -0.7541138131765335
Ni 0.7006601008467302 6.870099482560561 12.334375514858408 0.6469317214713761 0.9514693778439937 -0.3964198844959108
Ni 5.789347721347024 6.303506568418775 12.400095234531681 -0.6465439991146542 1.8399804096878958 1.6392602994235765
Ni 9.248917525557555 6.7284930971359165 5.3495915043635165 -0.7555580018222278 -1.6168251103485123 0.2686779663615308
Ni 6.97517218302011 3.782654410420044 1.7054703353414005 0.6746613261761607 0.16079087816954887 0.12213511347056386
Ni 8.39848884313898 1.2188991161451754 0.48733090411901664 1.2621458001244974 0.44777689881164817 2.6107742546232715
Ni 6.833110172611172 8.690572353478391 3.0402386043800704 -0.21227156254734408 1.1478489517514296 -0.056253680286406336
Ni 7.475327535676632 7.683799212163631 10.873327526958587 0.5721167332430146 0.2739564411516508 -0.14184107653992345
Ni 8.569431898470691 4.820447244543039 7.879414825318298 0.2602401200068228 0.19914453824708284 -0.6584734035623886
Ni 8.281969727257685 1.840269311561935 7.787525494302248 -0.39716833262616114 -0.9183234872196443 -0.2679788834119772
Ni 6.333438340346146 9.123471879371735 7.395837713161717 2.2837672135035443 0.4425025377865863 -2.4552793347453394
Ni 0.8366353334042678 2.8481675676338276 8.627161443674506 0.6442243498425421 0.04674342680312595 1.4433262976939918
P -0.010858752176695727 2.824800514867912 6.126026689332809 0.5034543948796104 0.39696161593199375 -0.8480277270178751
P 8.00302495371025 5.63588578786168 3.0867272303285276 -0.6666574820350776 -0.7051373832778307 -0.061107151723965726
P 7.406016747249598 8.679432787535866 5.147943974324947 -0.6890571898865165 -0.559592375523759 -0.6391420502236284
P 1.7712653726141194 5.552627295833821 5.776513974340452 -0.276654299698788 0.7347454359522507 -1.3581973291341318
P 8.96827113217082 3.378375572315594 0.5876148930089493 -1.635959517185118 0.29755325463498433 -0.017915189717523986
P 6.479712557242532 1.8766356240838198 2.8925231247782652 1.876603460227568 -0.1939866481952272 1.4967610204743642
P 6.711011975289549 2.354186398437938 10.946314000207892 1.2716496258498744 0.5844199760903999 -1.7391494570117467
P 4.105339182459667 8.311882902246921 8.847086974358504 -2.266125074941749 -0.20926979960654282 1.4352016117043283
Ni 0.7867964690508927 3.9232937550616978 4.242397686663535 1.2206967889510913 0.45497135967755836 1.1549724501700884
Ni 3.135685529661237 1.1381047184201292 1.4212412418230658 -0.24979552763473112 -0.046983824948706183 0.8799207190717296
Ni 4.515764308617547 2.8619386003223757 2.966489656667254 -0.020930322394763952 0.4297182415377244 -1.146761889334838
Ni 4.47659915690643 5.896428891125093 10.150962009768252 1.876643312326568 1.3401610404577113 1.1565382519953114
Ni 5.031996714291287 6.742171145133792 7.922325400369689 -0.37861011000799955 -0.3826706532306184 -2.3124892640285855
Ni 0.2598894208879881 8.403974939888636 0.7028387321491791 -3.4363727061033527 -0.26688616456843073 1.1347265554368589
Ni 6.008280175534643 1.959308312560444 8.878511150571162 -0.2089054742885886 -1.4645422696499744 -1.0613454714415462
Ni 6.844379917120639 1.5543692831522216 12.721721840791457 -1.0046531609558247 -1.6895400215147354 0.07506515656595458
Ni 2.4702777847421387 7.002872322371349 9.48808251858853 -0.3360238999063568 1.4783658057966282 0.13801630347719457
Ni 1.3426338440226286 2.1106408966293966 0.06466527328105219 -1.3901862233359028 -0.44839704889415033 0.5387253022667625
Ni 0.10561852059379494 6.015960710984165 10.142715197552539 -0.3101758284950013 0.0007957564284179844 -0.004091396460554244
Ni 6.594567247160794 6.745444206245453 1.5080275730150265 0.8910422829061879 -0.4112708334658143 -1.116770228068754
Ni 6.237301468660192 4.7388810738854135 6.800283787263177 -0.027536000636739673 -1.234640652725693 -1.1044541297055623
Ni 5.196486632090352 7.926628731853997 4.966137517582005 -1.5622395617931482 0.4352743954692632 -0.5593270376775141
Ni 7.296387796947113 7.002872322371349 8.281881391801546 1.5407230278776112 -0.1234404625455487 0.0797021411173337
Ni 3.289472909563935 3.6175321967244094 0.747012039299899 2.5459752558700153 -0.9134013673276786 2.2788152688149075
Ni 2.655596273251769 4.610580797695957 10.445561685837255 -1.1017989514709026 -1.5982522324423312 -0.057260524284365906
Ni 3.4115525099474238 4.448713048173848 4.586657696479821 -0.9286770625398264 -0.5865627334650156 -0.20454591176831227
Ni 7.777899719123865 4.29870084671244 4.86092441023954 0.7524325688193687 0.5321548481380964 0.15334342075256815
Ni 6.900087045302335 6.622220894166697 5.633711805793764 0.5512871980921732 -0.6495411340697652 0.2833679642735378
Ni 8.155092116835513 3.6847415311422522 9.941570714690506 0.4006076973250133 -0.6659830816758725 -0.03747202880352901
Ni 2.170643917520146 4.016985129382974 7.251212114830947 0.38684972430897246 -0.2636599443216492 -1.8437673875341538
Ni 3.886118475730965 5.629990558473064 2.0649175346851716 -1.0738415470260279 -0.186944139526149 -0.7793882714726061
Ni 9.007984893556902 7.529677087374514 3.0009349054798515 -0.34716680389705373 0.567336538245552 0.11065359519352556
P 7.93637352743644 8.958544933526511 9.11630554926163 2.06849645911856 -0.22329156780693157 -1.8115301247670026
P 4.3431103349774665 0.4722199620378827 13.271835078205413 -0.6473695803397431 -0.04519099471434152 0.38969259307440635
P 7.858052522483274 7.3680696949862865 12.962089125872824 -0.31162618778828266 -0.49737939233012407 1.2623579161353036
P 2.4870987152847337 2.8882253723753974 3.0400479857641924 -1.3892025192663946 -0.16866205338750953 0.20312537727170182
P 6.447744420589442 2.359681793656663 6.7875857979049865 -1.8021666812742319 0.9082679027558551 -0.0201978151041136
P 1.7940931141741365 6.567769059309075 0.5585330011543223 0.7971903326510335 -1.339600797078867 0.14042388447742268
P 0.516839595703829 0.23543909647574165 2.6897318830444283 -0.32743255869291993 0.7315356707657014 -0.25394323125451745
P 6.3457588118602075 5.101261010372985 8.885111203915073 0.8913788403100003 0.08685366456045042 1.6811949919841498
Ni 3.2902353840274468 7.638218116796135 11.692019604603846 0.269632102744684 -0.5767920272314969 -1.5637097185807713
Ni 8.848162807229581 8.827204057952073 6.6315965405271715 -1.2702905407188188 0.84922149021566 2.070571596480034
Ni 2.214867436403829 1.4642299240146222 10.546691835412304 -0.7092454919089334 0.08688374646743746 -0.5971052848675523
Ni 2.341466092753985 4.812273890232956 12.833535931324738 -2.4776304487470298 2.0150632790000844 -0.692157168968079
Ni 5.800226930155668 3.113508680935925 4.734140714354947 -2.036042966575545 3.338269179660696 1.304635850967908
Ni 4.183325442526415 7.463667255466342 0.15946223557442027 -0.22271461225753902 -0.053751482689842915 0.42257160319061415
Ni 3.0032195393296672 2.571128980245172 12.39007799380557 1.7475101702716163 0.22018850340157564 -1.5567998788348156
Ni 5.527902666584091 1.725944634380505 1.115116113345249 -0.6245685232848276 0.14155851230249816 -1.6311345849926489
Ni 1.2759917162178862 4.145713135149522 1.78192699724659 -0.06340443239857467 -2.2851108720156326 -1.085498671648982
Ni 9.0513250578792 -0.07946564649534109 12.151467189531001 -0.6927904316767036 0.3147444217022902 0.13965641018377883
Ni 8.699238526649038 1.303096753548823 10.179215408028991 -0.08943942300975563 1.1879946707323799 0.9168471597844339
Ni 6.43087699770151 3.8155244985726555 12.642271071846624 -0.474521513895344 0.5939271442498868 0.6662898142830138
Ni 5.726908501560664 5.6427852519095545 3.34026765653742 0.37926111332843715 -0.6000206587421344 2.2069097409238574
Ni 4.74119639268315 1.370910488456035 11.272078425202576 -0.8269500804119694 2.107077147605236 -1.5998969671346057
Ni 2.1282336001045707 8.105391799671239 1.9209595664334285 1.3844701467877316 1.2648490579882732 2.0206837105106557
Ni 8.815832030282868 4.907090379311364 12.432730071416893 0.5841775210622907 -2.093403763883201 -0.060631240528811706
Ni 4.193739727881697 9.29283419496202 7.05044886920067 -2.056529259454355 -0.12144837181618437 -1.4182048200360156
Ni 0.3871371103790359 0.60785487062756 4.999098730731475 0.2749442589862168 2.474307297911068 -1.9006211632984042
Ni 0.4425271607655394 7.2751686905357245 7.753176019721042 0.2200969721290338 -2.9337719174732895 1.7792519814595873
Ni 4.790385294048727 1.0167596970929504 4.914844372666517 -0.39466459236770096 -0.6309872823269779 -0.9634435194867342
Ni 2.571956543992154 1.9129182503840994 5.21437037764733 -0.9480644659275026 0.15044784437232797 -0.6874757043320096
Ni 5.4851018134676925 8.764885718263587 11.753532696871112 0.8167034629832967 -3.4246986121995344 1.4808875437772173
Ni 5.157163406405092 3.553047313743261 10.171008579230264 -0.4843960926965787 1.9751013938951663 2.7554366026620736
Ni 4.662893984668119 7.855774397561805 2.297064043264212 1.899694794829393 -0.7879168777689076 -0.033716161305522574
P 4.582062393066803 5.832799467298129 5.611706048899289 1.8144367568908364 0.9036298897632115 0.6071726964058833
P 1.928558275355158 0.2232534527631541 6.754774290107498 -0.3791762669241147 -0.4102467630766742 -0.5235131133026985
P 3.6579805371668024 2.410879164340758 9.111541943558496 -0.7193710103787094 -0.019213339703657233 0.7380801567524385
P 1.4090993009150943 8.594007752215346 10.99624584925194 1.2533883656468414 -0.28153913859491514 0.1035961741261119
P 3.4856427114750064 8.867094490250434 3.4807833315404793 -0.8794152401902209 1.7968493828263763 3.0042137163346196
P 4.424974056645244 4.750299593899956 12.614699251368512 -0.09873421804812028 -0.7297405265384916 -0.4669822680955054
P 0.855052811085704 3.3559476649254676 11.180624262538872 0.10034449995803364 -0.07451828292354908 -0.22835766947592928
P 1.48137630097457 5.316576360093456 8.725801463233354 -0.9450606461041723 -0.48242919877819496 -0.9314947344942797
