# total energy = -381174.79140219296 ev
CRYSTAL
PRIMVEC
9.16519558850602 0.00000000000000 0.00000000000000
0.00000000000000 9.16519558850602 0.00000000000000
0.00000000000000 0.00000000000000 13.41419017594737
PRIMCOORD
 96 1
Ni 2.4450176105677053 7.489257250824319 9.657063433089984 -0.40497651581667027 -1.2608664191914414 -1.2518881269522313
Ni 0.6995729788070171 3.1460359407503784 4.062997281916617 0.2871803960410925 -0.09160763430566804 0.9326494169240132
Ni 5.362519394361934 1.1399212260445561 13.1338740393625 0.8558315393330099 -0.5379611704072284 0.6507204990898471
Ni 8.851132023249747 1.3569072363087158 7.3323445163479715 2.010226005512441 -0.2479371342697536 -3.6279309473627457
Ni 7.775972070638203 2.026223154263143 10.813796377767172 0.5019906658498903 0.949784533942403 2.074820344454059
Ni 4.642153335872287 3.3447740462020383 1.0846633441233886 -0.7167235454535333 -1.2141633587079477 -0.9511955553573167
Ni 6.346696448393023 5.536144863356412 0.5064778844015937 -0.2807294982094262 0.6888358179043299 0.26072348740114454
Ni 3.022232476055626 8.305216301375433 11.650492600306615 0.1483588230537832 0.45366189683751545 1.5666731720844695
Ni -0.33870805899561823 4.38195342747104 10.675173708003946 1.5596882561262042 0.06416830714779272 -0.174263458734687
Ni 7.341679268257328 5.629070783443775 9.119006866603273 -1.16777268725855 0.5256489286987786 1.1825233632051635
Ni 8.794161166235934 5.253975980653025 4.221150983902565 1.2686931143247118 1.2328473082706963 -0.36264458781767867
Ni 7.468186465709333 8.710684563005271 6.1079770093584544 -1.3254209060340592 1.2669846162740372 0.21641618084333697
Ni 0.7168631206597451 6.03092795793342 8.922421665642048 -0.14265200247699303 0.008488754197301511 0.7128326950395595
Ni 7.562826277408919 7.419675084407191 4.214832497926805 0.04662669871960357 -0.5486340767400422 -1.013865423582712
Ni 6.667469135752488 8.031488563992143 0.3371738052208254 -1.2929404169078507 -0.3847002820661375 1.0853035249190406
Ni 0.5075694592198603 7.806400520652016 5.680708413028962 0.28882564495399937 0.9451285232276302 -1.8307270094104278
Ni 9.067613947745606 3.0915580169907093 12.689368459315844 1.0175050772178282 -0.3801178049017776 1.1333523007971513
Ni 1.560163783283511 6.03770103762023 1.7266614795142103 0.3206368759273252 -0.6006338668461011 -0.02124219720822793
Ni 2.502483388154032 4.267599279632987 5.11920360964004 -3.234108648390682 3.929204588272111 -0.12898993160886818
Ni 9.028011136748715 8.142891518786687 0.12985432695352347 0.4752820462104525 0.2347250064548538 0.5270987737714277
Ni 2.9366478777938845 7.31510020047418 7.054979112756705 -0.6074035814697669 1.0816312182737757 -0.8187166367585835
Ni 0.43581789095988027 3.7430292987472766 1.8530366981468773 -0.7521944846666336 0.38637844109950875 -0.8971417109357066
Ni 6.695807921126797 0.4839681635480023 3.919237519914613 -0.4911400962886316 0.21664449480405917 0.2076338066650166
Ni 1.67605768401383 2.866598286391605 11.313769722718524 -0.04192569369950844 0.31604848522569445 0.876450244024626
P 7.409089283272867 1.9327656528201171 5.710031540430826 -0.2556959522795661 -0.6156509090802236 0.4556159352400927
Ni 1.1736491465417942 1.4513545788967694 0.7962263840210718 -0.03416893257222502 0.2892182524067277 0.7515223983002735
P 7.475986047324319 4.37081771458948 1.8429485671438037 0.8348845047676976 -0.3319031928697639 0.12836952441604987
Ni 8.076407188545666 3.4008925400076326 8.662575533798192 -0.17276501981228956 0.9726876637928217 -0.4533402518320386
P 3.387016433585671 1.3987830158608574 1.569084268343283 -0.06864588330317209 0.12134449924846845 0.6456086317845784
P 5.707405711837767 2.1363704772348293 11.296868185167178 1.2236509864834089 2.047292057126803 -0.022339029816832497
P 1.6417981821609289 4.10284572016061 9.107323075013632 -0.7433002675007973 -0.34358294320053734 -0.28630364986309403
Ni 6.551584400217957 8.147730742162379 9.408874513767985 -0.4065245770300805 -0.24792273609205048 0.9378862398429202
Ni 4.984005973542525 1.9061499242538185 8.265622655574328 0.605232541960377 -0.1625798517491716 0.20469760685482813
Ni 1.0305804403021517 8.427773299443114 7.895136113225429 1.2490411444217393 1.0590497334288342 0.02161217895313697
Ni 4.253823990364686 8.59754022101114 8.683353949167564 -0.39897273282475154 -0.14825160805195758 0.42992007313588537
Ni 5.3219175770242275 0.34414302009748293 2.128563563463213 -1.4790363495010914 -1.3404726581608593 -1.518197078860953
Ni 8.290387014591593 6.590344013202417 1.840158681546152 -0.9931739566716316 -1.67329784862426 0.008020813421947477
Ni 0.8783978633716253 7.228021675299109 11.492433299837275 1.2897494207743787 -0.00543351231074548 -0.3084920130346751
Ni 8.57349991246107 1.5541147540638975 2.4678490297934306 1.0935310550351556 0.19531925096372166 -0.2666524512910698
Ni 5.51972999770137 7.151748915957258 2.5618289473963323 1.4137917785699847 -0.33569505581202835 -0.09473358152915942
Ni 4.392878340849494 5.663971849001785 12.505338660063634 -0.5126620295208074 0.2297059559737076 -0.3713673124026572
Ni 7.851878222148563 1.3005962733915883 0.23399844668453285 0.15616520647207943 -0.6456963064023783 -0.05251992427558697
Ni 8.770194179252165 3.626567155878146 6.3303576538630155 -1.1125204516534646 0.11187898296019441 -1.533313108566785
Ni 2.1043839439371768 8.218559375206578 0.958472345926046 -2.43440249129633 2.0279964421219847 -1.0947435872860178
Ni 2.322405621325301 4.029624971015926 13.557453644387609 -0.9778578951398514 0.6539922278625834 0.480289783837689
Ni 2.748880511699615 3.9247201400345717 2.705736269050512 -0.034912495606468905 -0.43702840204589255 -0.10507173023037389
Ni 4.228729684299078 5.600127095147504 6.282013079124202 1.194373063454898 0.11276087134451548 -0.8158660546836658
Ni 6.440392244926518 2.33049848920548 2.16050335426235 1.2804191445123883 0.8301973837046733 -1.6789604462266765
Ni 6.838418367577075 3.354241693450312 12.92040104864361 -1.2898890316760365 -1.2632061230682115 1.246929497395375
Ni 3.8974261869800135 3.3626461779872594 12.075842921157827 1.800375907922396 -0.4303998409857813 -1.3646068322049014
Ni 5.984167129026652 3.876566201368135 7.361158058864063 0.5461838154273367 0.47995219799261213 -0.7787889473257104
Ni 2.781068679304587 1.1035628943563651 7.572498308523249 -0.18320652686058772 -0.9131157177664597 0.20901166084914968
Ni 3.5727033002362254 3.866273686499005 7.622520114091136 1.7666893143032285 0.27767682742603145 0.6058344372104341
Ni 4.039780007948247 5.479320649475196 1.4446007461211134 -0.5972142996415908 1.6472713426535115 0.29797594399469973
Ni 4.601194075898874 2.2003343786343463 3.428197491297136 -1.5006464715716994 -0.03169373155885509 0.555851420424088
Ni 4.147590205994174 7.79626381411127 0.5279033625935484 2.7001164899335306 0.062369049155524846 -0.6260024275178767
P 5.037365743416144 6.219181079404416 10.51197639877625 0.08264862534016733 0.44006436065873894 -0.3969143076338261
Ni 6.76239306852148 4.9902291414820965 11.503767897467421 -0.571037641246223 2.1336939788618157 -1.0108891145632073
P 5.7606738297535145 9.250615412030484 7.426699290458573 1.0098308485020222 0.05426184666735816 -0.31760785929301427
Ni 3.0930977698829745 2.207171614691667 5.435564171747502 -0.7515941320784734 -1.8847032065165668 -0.18111442021824936
P 4.431784596966552 3.8125106480107442 5.003895364920529 3.410719524311623 0.3936595481419543 -0.5121012719213309
P 2.1321269915853125 0.3732168541739335 9.957353740904006 -0.9970313827445089 0.82851871045067 -0.3845946097262086
P 2.330489324009693 6.642796428693095 12.90547094470611 0.5958678129160254 -1.950116184704738 1.2429491725913886
Ni 4.147581040798386 0.9986488981792232 10.6697680755286 0.538994239657433 -1.404319320303175 0.29984102222789655
Ni 2.4731914224178433 5.119504228061864 10.833112027888891 0.5445897314673395 0.5973713940447454 0.23022197637817773
Ni 5.385643183333275 8.159727983447944 11.709609029654231 -0.5600274061786484 -0.6811150522213044 -0.521840867806598
Ni 8.912648817374057 8.735183131344705 9.826967832594821 0.4011517427539414 -0.16414488224344634 0.6629196122592003
Ni 1.6792929981267442 3.1421865585197155 7.022824856376144 -2.5599803118998556 -0.7135760009634872 1.051547511514518
Ni 5.172918989110207 7.829845091475911 5.080114966126815 0.3661232903948985 0.3051938018993776 -0.48848646071586843
Ni 1.0632635284796383 5.8855862831385295 6.567749056028004 -0.09250880596369875 -1.929069391336768 0.21853579828950107
Ni 5.21864415089301 4.1350155573740075 9.719184213616677 -0.2709441366878882 -0.8087276438666718 0.37084435001965166
Ni 5.999518831970367 7.033939489307394 7.151051444557845 -0.5764734675498135 -0.5351602106233235 0.4800337019628249
Ni 1.9670343198688054 1.4552589523021562 3.4284926106014866 0.8362201928599856 -1.546961552588155 -1.4798717009181932
Ni 8.899661734943464 5.407997095858482 12.916027417213915 -0.09037041946445726 0.9067722920469351 0.6801046086789191
Ni 3.0837126093967866 1.2688388699886184 12.863148820119129 -0.7633271042446854 -0.1526841899020145 -0.027916781014926118
Ni 7.4829241005353 1.2414990909551236 8.856236120783691 -3.5560665571222754 -2.0129320915896947 0.14879771036341471
Ni 4.020597253165443 6.081299873980382 8.521055745646603 1.116623675188561 -0.8030174808557718 1.955966215727612
Ni 5.587937384750404 4.446228945527326 3.0330290766930568 0.26929863066466525 0.7770552524640553 0.6324247861044527
Ni 3.97801575353768 6.069696736113669 3.972277424455256 -0.30563217498837686 -1.7942474264271553 0.3166123281489644
Ni 0.5712868168526993 8.039948039703814 2.8893096415525164 1.0135638331818932 0.5864912567971319 0.8790218614065441
Ni 8.907690446453133 0.7022382177419618 4.5124529842079895 0.7625002374680159 0.16326247963849302 0.5024213256294057
Ni 3.2740462303114986 7.8159231590750124 2.8139882295333862 -0.36989715561503395 1.2806970807641234 1.0544245759519968
Ni 6.6786598398087715 5.372307823462764 5.351215958397466 -1.004931868538508 0.1253235385008745 -0.473469675592062
Ni 0.6236549125421336 1.9392546114375204 9.355539489922991 0.8872049114379689 -0.25950272762016596 0.48665609237534896
Ni 5.204685557708964 1.5165924425107205 5.635489170053616 1.580528332800007 -0.8298914224284805 1.2304937204368551
Ni 3.056372830363292 2.5318853362396676 9.498534874596336 0.11470899620982182 0.7495087103043544 -0.39327491110902596
Ni 0.7345482824509055 0.719027023385125 11.926570293889768 0.08578665674851677 -0.2738821362702896 -0.40816828328109056
Ni 3.0550255465825598 8.97351488259747 5.2938968239437365 0.8040783180201185 -0.96798974409652 -0.7138179417709641
P 8.129473672154091 6.861230539891647 11.118767351069764 -2.6963554802292014 -0.9405041370817415 -0.6565869851729532
Ni 8.18703110169829 7.458031428777012 7.864068849065242 0.5923356313930509 -0.525056032309786 -0.49235211431886167
P 7.779693140127844 8.742020367402025 2.051324792485381 -0.5778870600678886 0.09277954312658215 0.5771872057873866
Ni 7.5706533546112675 8.93261977899457 11.865388029411692 0.025382187518530483 -0.16311901208209326 -1.7637690553326397
P 1.8140030458083753 6.516353387611602 4.2494411937392025 -0.6071310445346706 -0.005115723960010545 -0.08278412247676711
P 1.3451849508967684 0.8173714072219354 5.831175265308107 -0.18370814908735458 0.43563486413247554 1.289687457188192
P 7.913935762824324 5.363463409528026 7.080063337106946 -0.023143270885682722 0.9589613153456646 0.39580256262688607
Ni 7.563825283749734 3.2260755955608076 4.056934504903323 -0.7615756687712174 0.29024515100934534 -0.35737459766799096
