# total energy = -340868.405477758 ev
CRYSTAL
PRIMVEC
9.34016156064077 0.00000000000000 0.00000000000000
0.00000000000000 9.34016156064077 0.00000000000000
0.00000000000000 0.00000000000000 13.67027056199717
PRIMCOORD
 96 1
Ni 0.7502503286261524 7.192680794056611 9.366923716252993 0.5637688754989517 -0.2705954950992178 -0.01984454552975292
Ni 0.4549013504521918 3.488942551723123 1.376705224677672 0.04058049252552366 -0.47603692209860593 0.10557463800872141
Ni 7.114307500152554 3.5119473691329297 7.530473333446017 -0.4416851840916135 -0.2706818841654371 0.3659597682338407
Ni 7.439148971811373 2.1740066161141782 3.472576721002269 -0.7228443136392906 -0.07679628032444838 0.2245606643273423
Ni 8.150056672790921 3.486626191707844 12.847579676824681 -0.5364406199976438 -0.05268498909854153 0.9093202552797695
Ni 6.101404362181013 4.426788153070545 5.183712026982652 0.9805040745134469 0.4094412364562433 0.4449273451779951
Ni 2.6272753063620526 7.184863079005044 7.674571474751343 -1.4813300306312744 1.567202048004746 0.5783907391771845
Ni 1.5277608521740513 1.2898015614108975 0.5325731982387174 -0.4872284199390512 -0.551001034310322 1.0058759776193322
Ni 5.7961492088771935 3.9550913244753105 2.436944300380802 0.4957385142925913 0.526559613438506 1.5145137164720948
Ni 0.046741903469605016 6.797937554839938 6.940095744632468 0.11831239729036397 -1.2581335936413107 0.5556663009964752
Ni 3.2415496979945186 5.367258339757861 12.978677247544255 -1.3216781511621754 -1.0185715708091296 -0.1589880206328552
Ni 3.209568985525506 7.6113815471409865 12.019680850815384 -0.41688972231448845 -2.5295865300993468 -1.376678932878087
Ni 2.1729044770746504 8.66196289600622 2.314568572331663 0.9467791714571758 0.3458678825799721 -1.3710867835022904
Ni 7.016908297574615 5.433536124711165 11.602396066191961 1.5510935724786576 0.7134531022323778 0.7539937426589015
Ni 4.245925268651748 2.723927296031838 8.781972761184916 1.4989444012789284 0.8483866530191905 0.9161776445212351
Ni 7.368359888925086 1.265012773182872 6.368158436376036 0.749954025371889 0.018641269250271122 -1.183200077557214
Ni 7.004569944428714 7.749046185307103 11.428961412096353 0.29404524148172584 1.5318066992245878 -1.160018497234428
Ni 1.654684304785446 5.243800087008032 5.8067885866731785 -0.7410420675942399 -0.04481458521152927 -0.9747360616814181
Ni 8.576005391084395 5.12336804653623 8.552900633948123 0.09272503573956288 0.7241154670422303 0.704732177419612
Ni 4.138924380204023 6.372586606872987 6.386613661191317 1.7370594072519374 0.0542631322189388 -1.9367785870555678
Ni 6.777024933572963 6.600570605312277 9.49390694589704 -0.4236136713018833 -0.49677981107291225 -1.7720189540462579
Ni 6.511979174889209 7.2581366448109454 4.412066190747631 -0.6992048198434797 -2.7926263243384937 -0.5698641897634121
Ni 3.814624637903616 1.2903339506079576 3.9498197374082804 -0.31724867618138264 -1.016289202532856 -0.8971491671348742
Ni 6.88514664138292 8.727166562404053 2.438612453198257 0.5426968853200008 0.773301441848578 -0.8947187033165107
P 3.979982854478208 2.0340536384168395 5.969506339633579 0.07020551448080813 -0.5245433543394257 1.5428976669314265
P 5.3650073608720446 4.931735956078655 7.456845775524878 -0.428019770789379 -1.2618200413539624 0.1633118448191897
P 5.8907930638563135 -0.010507681520922716 0.6404025589983586 -0.49479517654271554 1.4990215343737667 -0.562387935991025
P 8.48355647402298 6.79412676900835 12.772215782908217 -1.514268433230508 0.8279070450085999 -0.023263341403314774
P 8.468201248760405 5.357927518567282 5.406933477148594 -0.2925946250781284 -0.482975043979336 0.2158070865044283
P 0.22533419466374827 2.0120388781103378 6.966178145207736 -0.5036798806268551 -0.22006560467046615 0.9683147315361066
P 2.0509313099797795 -0.27655750755000996 8.699841920368977 0.9612187439212736 -0.8894965356856229 -0.8516797219481655
P 8.390687249700727 8.430429636253194 9.731632732626394 -1.3797714557604819 0.7141231317162089 -0.19709922568227992
Ni 4.653249705209472 0.1540986520648386 12.413972026222622 -0.12937302597989978 -1.1524278293713635 0.7681738908140254
Ni 7.763859681211265 9.327122486684008 12.92660771603951 0.2622278398608129 0.7113008317760654 0.3596186565071613
Ni 8.564021964069868 1.1212209891698894 1.1837468313081232 -0.7423474166692248 1.2691703110714465 0.3645649447688431
Ni 6.093007557125626 0.4294260603647992 10.020184875384555 -0.1389015342956253 -0.3856485049120197 -0.1468156469363794
Ni 5.881266099277344 3.304857311637909 0.18986119586524838 0.19739233144266652 0.22332987724403472 0.054969928477976306
Ni 0.31046416128979093 3.084887171638575 8.923186660664765 1.1920045632227214 0.37777347303931713 -1.5094566136641618
Ni 3.3394439291241107 9.471764225380015 10.39101823555642 1.1579276761436705 -0.8489324982203316 -2.364926655892695
Ni 4.60096348196136 8.583468180004589 2.9984374402135043 -0.9300867984031594 -0.8076853186450864 -0.9555263215221868
Ni 1.2155379385016918 3.3657178030070933 12.784955762992254 1.2167246916772207 1.10606081207105 -0.5997486360276704
Ni 1.9975336075307883 1.1016907117830013 11.870784668623571 0.2474375689255158 0.7338375794260007 1.6195427663899915
Ni 8.40714461400283 8.162133501418968 5.470937866828839 -0.35216040045690317 1.3317640746432677 -1.7103649286798865
Ni -0.13044002336039662 4.997089065058119 10.995408868446273 0.56999583024527 -0.7379369463063549 -1.0375946488788517
Ni 1.789985882129523 2.6422662653319025 5.581612240736278 2.037168852649872 -0.881582937265501 -0.2683450085021443
Ni 0.10094379381099756 8.183176884944869 0.9330410223479888 0.1163007661769739 -1.2679194693834808 -2.3493560551479473
Ni 6.092157602442601 0.10789100582456407 4.43113599817987 0.13130932377066418 2.6642038351973216 2.1359868886610505
Ni 6.90376158295732 6.334273265007364 6.843364363591191 0.03742497761567748 -1.0766252804187522 -0.605464455465525
Ni 8.313920463549204 2.6363632833574817 10.570509050272618 -1.0125752440163789 -1.0645323538099603 1.6540055760535515
Ni 3.968513136338036 3.5533149437606335 4.389892647698146 -0.37543042672843724 0.8337370214268157 -0.6479575916327294
Ni 0.8408442896430748 1.8527891270599088 3.391020300109475 -0.702594562251319 1.0047467491108955 -0.411712034768291
Ni 8.063230532863367 1.2442215740134728 8.60644684496261 0.0001635221610577829 -0.43569297106392063 0.18600671531354418
Ni 3.573527052926213 4.0405538008454815 1.7149759803282978 -0.17671037761328276 -0.2605396535251126 -0.46130655786696684
Ni 5.274071549949642 4.300920138691919 11.691225670729503 -2.512088373314583 -2.217135018196291 -0.506366940540715
Ni 6.1198044800443165 1.8052570459399306 12.122590748590962 1.245771729641848 0.9947253603191515 -0.5650212598488139
Ni 5.568959124152817 1.642728898254974 1.9939591277814044 -0.5823119286084617 -1.035831386330842 0.23084289779162823
P 1.560582179164738 5.413426757320457 7.94779921477939 -1.1371521341592157 -1.4500949838763928 1.1174600550469271
P 2.5967890197093486 8.91397912960403 13.373352303583058 -0.5412190152228937 0.5714443897663385 2.6931523999108715
P 5.137284886950607 5.294937470409856 0.09976693348065423 1.319298080965773 0.8588962943012627 0.7178856840824347
P 7.635572565042489 3.243268287683274 1.6545404663006262 0.6700665077166267 0.006598222042807991 -1.5207159886280648
P 1.7521675688155531 5.227725669321358 1.273094814800698 0.28714542903809903 0.8629208420796236 -0.5189432345438288
P 2.0845465506853804 5.021270742798269 10.84507616943853 -0.7855586619493762 -0.2659651954160581 1.7100792791186679
P 4.117470029578636 2.0269270953053162 11.144947653739099 1.0848217001866154 0.6851521984051555 0.3288250681650724
P 2.564798967078984 2.076971679828964 2.3015680017459097 1.8575729259586784 0.8568221853810535 -0.8876574255943551
Ni 4.681587754751232 8.11513380949605 8.5604054535944 0.2619306203353683 -0.25938831352948877 0.04207096102812109
Ni 0.8389435668079568 9.031973387962978 6.841901694323478 0.35054214812718987 1.3983319923714883 0.5732606170394707
Ni 3.596494509690612 2.2993609216184483 -0.168319047723154 0.49752671654126573 0.2523041529891977 -0.4745179143509183
Ni 3.3640926149318577 4.040357657457092 6.708342991087672 1.094105953702019 -0.34344924583615044 1.9172659709439368
Ni 5.198687107678204 0.9005400628916734 7.55168950995693 0.24314511219774895 0.06409065983232187 -0.901555523732686
Ni 0.5799978675031485 6.428412751273479 3.960332089009879 -0.7457003923018576 1.0988193000172881 -0.33572590904996374
Ni 3.5758714334255477 8.919657947706005 5.751178199999916 1.08247505433131 -0.1287734447226879 1.2278719665432918
Ni 7.38361237241279 8.433390467401757 7.598182031118437 -0.2520403578048498 0.8440075501148885 1.4029368381333516
Ni 3.726490875386792 5.7883688544710346 9.831508011978732 0.6781932505888191 0.29147773786486575 -0.6098918951092592
Ni 2.2961572462747357 2.8712216405517945 10.309256331113883 -0.3349880024426747 0.7201955631625339 0.015682186621947185
Ni 1.8315028993388576 4.353766771621146 3.4299528946727307 -0.8030807299935395 -0.9280093470488404 -0.3844208031525057
Ni 6.304879777232836 6.317834581027965 1.9839800993930006 -1.1062875833698755 -0.33613420023197593 0.7673647646491687
Ni 1.7213730568382353 -0.12043484252020781 4.515878348109807 -1.1217630532976552 1.1915435644259025 -0.1236021849343936
Ni 9.006708251506005 3.05807156839718 5.095401735416278 -2.0602283055724966 1.6521476969092062 0.376911382149338
Ni 0.665813401972423 8.346732450378537 11.718634374216746 -0.6912341429331773 0.5704681418959983 0.3264141447307346
Ni 4.186185596644795 7.2417633419610095 0.9849032022707226 -1.431632149185515 0.23602007111719353 0.07537934537226373
Ni 1.09423726302416 6.265314853746055 12.506506872768476 1.70220990367292 -1.0796836076291019 1.1734998195503146
Ni 0.722290555619146 0.7000450933272513 10.005762732241037 -0.9677850842848815 0.5121385529171696 -0.3654262643278739
Ni -0.013194845941873354 8.938805278477464 2.983892006940142 -0.4496044389386902 -0.8834685843239882 0.24684235854367811
Ni 8.248670096344611 5.462406563449984 0.8217558018881329 0.6007714208652299 0.22525203396741206 0.012417914048378612
Ni 3.078750685630356 6.537244311346183 3.3623945735980763 -0.2045420551135703 0.023106247000160205 -1.0820875890849042
Ni 8.456871633040512 4.774372917621317 3.2081801035324737 -1.0660248791950866 -0.586023573132094 0.2077055404432165
Ni 6.195674610706055 7.453355357227661 13.532405911245098 0.909591249552969 -1.6329394994118713 -0.30955722107439587
Ni 2.268379606414092 1.8626336571248443 8.037325595353787 -0.5414218752623192 -1.1137522671780367 -1.0128063861905783
P 9.293535266462463 1.6405806611440297 12.40701454003157 -0.9545847835445236 -0.9767016700482211 0.08097946516786053
P 6.761099958467921 3.8824622298026927 9.822130489981394 0.10745205753709236 1.027565546777624 -0.2224618728167846
P 4.869044793084493 5.450283034015178 3.689633664675936 0.783940923840295 0.8446289857489712 0.0661449712581893
P 5.5618886220094055 8.173659260527252 6.216158518566976 0.8542675372799998 0.36292663783447177 0.8255650271389846
P 4.907666360274729 7.485111905824228 10.699433165445596 0.5647260972058984 0.9068859348066639 -0.9165980198881053
P 8.22936398283017 7.109600058831182 2.6373365281703527 0.8835639722512718 -1.7950524388269535 -0.4738944218343064
P 2.1205622128584274 7.293601237464228 5.127089166818839 1.23531428175395 -0.06045177752815394 1.940455778796839
P 8.66631541119622 0.7826233278719462 4.513225742285858 -1.0723739613415662 0.37739192133018234 2.0394309092111715
