# total energy = -340859.68337492767 ev
CRYSTAL
PRIMVEC
9.30955801014454 0.00000000000000 0.00000000000000

0.00000000000000 9.30955801014454 0.00000000000000

0.00000000000000 0.00000000000000 13.62547917239367

PRIMCOORD
 96 1
Ni 7.79897978893608 2.9874464639337273 12.192242121740305 -1.1678367077272662 2.0170003481217975 0.20166550489672364
Ni 1.5084649170212547 8.756141992199224 6.7677758782254545 5.456967199334311 0.9499210595202672 1.6387226817525518
Ni 1.145745919175234 0.6292721237155046 0.2280301749663775 -1.9901544315735469 -2.0901073525201164 -0.11203376337050382
Ni 3.0162595458682646 5.058720708370957 9.005079572467244 -0.03680431331254307 1.3142528052323819 -0.6628558489008004
Ni 5.885474623511646 9.137256676605066 8.45444621592758 -0.9451591193552497 0.8081049226810082 1.6942330561150305
Ni 3.4870252735793055 4.409192848412102 11.126321007427007 0.7741496487814861 -0.5091308764390974 0.7638235842651298
Ni 0.07808019369730404 7.31300224349288 7.383824705792392 -2.2540342052154863 -1.7696697370877907 2.223784919412641
Ni 0.8977048493402658 9.027739036579899 11.051925536776452 0.5473343840920122 0.23189473609491026 0.7119415506838578
Ni 1.656403102811797 3.8623028651344344 4.510728473428975 -0.48174682799918966 1.67218147563163 -0.45844697693098463
Ni 2.1988803556090217 7.767131791101492 12.674448365247583 0.7855234378360665 -1.0520997844735622 0.5277834585432781
Ni 2.50490414538353 1.916959011433388 10.425889415413272 1.8955679171452129 0.03787877732364444 -0.43041295361190385
Ni 5.804462850007821 7.910973771382762 2.9912289373392213 1.4962455142905264 1.1868844683873367 -3.0959740741680677
Ni 4.313751260046069 1.96626243047226 1.8759420299486136 0.11986688626167744 -0.9293851443504445 -0.1202165562916123
Ni 5.123170778236159 8.529333231239248 0.7799417338160933 2.429088535282584 0.5955176286654583 -0.1765676813878314
Ni 4.387203672473693 8.449326889996788 10.217787280249501 2.0987388029428695 -2.5268508763357382 0.8168520727460189
Ni 0.982837964159898 6.724368202252541 5.336023580834886 0.7299755253674332 -0.6613026454810675 -1.030443382546051
Ni 5.983997675567609 3.1481387441508666 0.25093727332118265 0.21802697697388257 -1.14868970248517 0.06393048010537376
Ni 2.4608140788110044 7.73471591023039 9.631715229364053 -3.303981719232736 -1.976858485795589 0.07798772952938827
Ni 9.127593355426376 0.046639954502047616 5.814959376625329 -4.23057824509445 0.031474673569513535 -1.7731607809601848
Ni 7.785359905617751 9.035317016772051 10.11845802047285 1.1159112225025685 -1.1498829514623228 0.4949640980204121
Ni 2.4792376940447522 2.2643172386196393 0.851692359045775 -0.7030859000654407 0.6695911107421048 -1.1759289978170973
Ni 0.0863266001521063 5.901617397041368 3.0764011523023505 -0.30100958861470095 -0.9577955771723375 0.07914241195912176
Ni 3.300480350863876 5.71617100216706 1.6565995344850826 0.048575852026174406 0.21322055672417473 -0.8360026775325409
Ni 5.377452044782183 5.4699518128279205 0.1958582045142375 0.4905086333522197 -0.36333107236174195 0.23689270353013397
P 2.037424691637882 1.5853153181099795 12.312037513770553 -1.2241814050655822 1.017768358181544 0.9326283338780906
P 0.5523807605716871 1.9187557561226822 6.413690564446022 0.24924556866853206 1.5663034474498767 -1.3679304972614956
P 7.590445690282242 3.191651618128904 3.483162737975222 1.5939469201987582 1.3803823498716032 0.734224016231142
P 4.166744030053088 7.0179637321296005 13.216128719882095 -0.7528539726275034 1.6759214022900366 -0.05729831950083681
P 4.524528962172031 3.974147894653507 6.148401676549627 -2.3833817772740886 -1.326615954783425 0.5795202247959375
P 2.0699895254365934 1.8927169224648792 3.313185104633202 3.1094088595167353 2.2591496720651802 0.8425859871770135
P 0.1373122563171723 3.8968599443399277 13.470489117670912 -0.538138576525357 -0.6077931035987016 0.7159550427186251
P 7.0790716706815555 0.4685928768795317 6.93198996422477 0.9361049795727814 2.698670501515623 -1.6751014774919022
Ni 4.24243073639486 2.8118030336077466 4.06611515598304 -0.2930409685869276 -1.708486480710251 0.4533327956328709
Ni 6.141226800217818 4.8581555913442465 11.317009614397383 -1.109879671596508 1.1476995706577588 0.9374684355792113
Ni 2.4580770687661726 2.070101240132301 5.4670732975018606 0.1567172223208075 -2.3213217747185504 0.9804104863583762
Ni 4.22577593717648 7.236617320302936 8.2072122847691 -0.2926522177889411 2.08974585541564 -0.6960084243933691
Ni 2.4871321992080757 3.9544767986510263 6.884627588023814 -0.6818856118387417 0.28076497943305195 -0.06610486204887324
Ni 3.965908935845085 5.049588031996875 4.074454658017598 2.6965897077271945 0.1572972631939936 0.8070248022429521
Ni 8.351753412854338 2.1739214306763905 7.821979051914844 0.11996998749844501 -1.1052162046825675 0.5289383980833278
Ni 6.140621678949403 4.064152701161779 4.959033961568041 2.66148695048679 1.6633199114759416 -1.1566698924771692
Ni 7.67300285041002 6.679766109991356 5.132785689713376 0.35923890457023944 -1.2581040259549559 -0.9191097305663655
Ni 0.43163579362792415 5.878110763152932 0.550292626717756 -0.652253905015238 1.1472205741388113 2.319915381289327
Ni 5.200914896890543 5.403286068164522 7.610634397708166 1.6193805297805146 -1.0789230753139933 -0.5292011648264112
Ni 1.8369061224010503 9.096667003831373 4.3118781769813745 -0.19434248887274916 0.014489966086058915 0.21375148952698028
Ni 0.9532801175873115 3.681176105160815 11.338224235112222 -0.14749981748759758 -0.32853376217689867 0.2246470533935615
Ni 5.918300124933675 8.61863982089935 12.039460172935048 0.2625435713290188 -0.2202540665321884 0.014359868266097852
Ni 7.097597691053036 6.866487914308323 1.2433054319807204 0.8698108843312375 -0.31564096537463054 0.318956917121741
Ni 7.0744727490416 7.740711265566688 7.089705047801306 -0.5425084234582785 -1.4300707182356662 -0.6869146896222169
Ni 1.0835860005720337 7.955966865078922 2.1575124037885667 0.785528322932073 -0.6687984396374804 0.9395309745351949
Ni 8.101838328998879 0.008156103742438754 1.3825093904785384 -2.6917874012425447 -2.8621528104744063 0.919436774888481
Ni 5.103332110190117 2.4131770706497675 11.802853102205736 -0.4017209849938501 0.13809960721962025 -0.5433939113870254
Ni 8.723484062820758 3.983476071745076 5.465274690900971 -0.5510223744665607 -0.38276501271663754 0.10076538954553613
Ni 6.410077524995685 1.8206330150596706 2.6362443202593435 -0.3313046400538165 -1.721016494856462 -1.3176867706145952
Ni 6.37497118186963 1.6314069396472632 5.115985661390576 -0.3725093964269004 1.114432838184829 1.671928479080559
Ni 0.23486339052048097 1.7698773049766023 10.017098346101717 -3.3115039957517096 -0.33857700534551366 2.223103062854268
Ni 5.4814770456017365 4.030722078471336 2.346920946537296 -0.04913712384628312 1.634989954182997 1.0712012811897036
P 6.441050424380565 6.061499745714628 3.326960457569723 0.581768654510482 -3.173231610399651 0.12026643569294128
P 6.361584037500692 1.1150429969716464 13.152429931345525 1.1328571063282877 -0.04905921942049615 0.6211229879383884
P 7.338603527925828 7.057957593192854 11.425509719735816 0.4444262371718604 0.12419302444085709 -0.715029188470246
P 0.019259613539958104 8.047740487602564 0.34607071531822337 0.14379022984649428 -1.5779775413536954 -1.8726984687462072
P 5.266835876915892 0.15595557711914448 4.0712661344109495 -0.9586913495137296 2.3039688852623996 0.9424550901605253
P 0.6113056077783598 8.885572776734238 8.964080279142623 -0.16139225919897365 0.6913025342772675 -0.5109005667450104
P 8.921395955824416 7.873986897545633 3.8677964352958467 0.9895389310222055 1.5293530954777725 -0.22684997458215125
P 3.710910833334938 8.689066626984898 6.357185271357213 -0.0047706819157659775 0.07237578265924954 0.14691566284935342
Ni 7.665406251101915 0.3786951302879784 3.873559982638552 1.6768937935056347 -2.003185296615576 -1.1545104229320051
Ni 2.156959416044815 4.898074975943695 13.137182737293058 0.7660954110184419 0.027493320324262327 -0.2765504271310721
Ni 3.6911931895425796 7.521294293639353 3.598611497386656 -1.7798366503184635 0.5789430121362287 -0.1432189307240566
Ni 6.972793756831903 1.8246826727790644 9.862939513671865 -0.5756951946228924 1.2861583609890108 0.01843043879104568
Ni 5.511984467087836 3.803243029337115 9.31899693644928 -0.13646927070504883 0.12185794854977722 1.5031792652958822
Ni 8.72987041959203 1.111179530411765 12.273327440752139 0.06702197454650392 -2.5536821375959695 -0.22607041610364936
Ni 8.644930012622494 4.562679530756113 8.220224253951619 0.8890599623688367 -0.3277315779905775 0.2679223191424289
Ni 3.3413865486087406 0.20999383734441557 8.439376834432448 -0.04755692384335681 1.4660152546510752 -1.0564673174136388
Ni 4.496069643440568 1.616921267437202 6.596435325595804 0.1522270477599378 -0.4101135799329195 0.5740242346783727
Ni 2.9984782901348344 8.840719326407712 0.9459991122945808 -0.1954465205702053 0.176227010218961 1.1034490854798156
Ni 3.5003751797163414 6.3611651073917885 6.150037365885943 -1.7389352841184116 -0.20536712211802693 -0.4368481677142863
Ni 9.139239612453872 5.623140589316713 10.29077980051313 -1.8282281542479741 -0.5282076905648904 -1.3649590733379975
Ni 5.387106056402898 7.40539029684291 5.2454006196770315 0.1049963969077482 0.44743931296657136 1.0941337216161608
Ni 6.4118835792429545 3.1468819538241584 7.344419208793197 -0.6009387996810296 0.6814837484146328 -1.3990135918195454
Ni 8.436544866896265 1.9703586359815317 0.8553258795236586 -0.04792510581605295 4.112600862546001 -0.7243129277650171
Ni 7.399618370898028 6.858202407710023 9.160055784087353 -0.7615052205445981 -1.012915143854301 0.5909410650383694
Ni 1.423273151986376 1.9146130028235324 8.363632408831226 1.5291489498867665 -0.05660874963297992 -3.388950508065647
Ni 3.57012238806967 2.7989930818332964 8.664973490943998 0.9936041022305147 -0.8274378186816653 -0.7494112654945416
Ni 0.30583946052659106 6.855968113795875 12.018312581037636 -1.9923280421860978 1.1813437410747654 0.9490543406445978
Ni 0.5839243358604729 0.9588472332567309 2.4859005446879014 -1.5236128505598856 -0.44402000287237725 -0.14546093268069787
Ni 3.5736879487743316 0.1637597795701049 12.088457307516522 1.036749527269737 0.7507549240066296 0.7429806793778494
Ni 7.719401687360499 5.5140977367483 12.920169493235026 0.2953289932901559 -0.3030186486249298 0.1070566218708866
Ni 7.649542764311462 4.312662041762922 1.4165590987743606 1.2349036765790926 0.40157828876839874 0.6706630036500449
Ni 1.5236860443113898 3.9118762613545996 2.103256299906666 -0.7662437636708481 0.6249855562175881 -0.08983768688943883
P 1.6903550607488753 5.914036347380841 7.498373230947584 -0.06964218577817038 -0.08440211769616432 -0.5781071464984947
P 2.260723749241051 5.875168942832637 3.5633627180235736 -3.39422281220818 0.5454700771897638 -0.657680732457764
P 1.8164064757387401 5.87709602133359 10.781882257621909 1.771717106535123 -0.577185920235806 1.0301441061380774
P 4.905988100222971 6.102917969148151 9.87965761788448 0.34687935456362196 -0.846397904723936 0.6807671819635823
P 4.750583648935983 1.1107978385347645 10.1256934089315 0.16435519848203953 1.933357734299477 -0.7969321938936405
P 7.745710498199595 3.9694093296439172 10.330470169986379 0.6829945286322043 -1.0599359926885294 -2.01112332051573
P 3.9224426096569256 3.741092420291891 0.025901983155561404 0.2784000787453012 -0.07939078052450198 -0.2821860281502947
P 7.310349019469828 5.379472218862892 6.885404005158981 -0.3897725543827223 0.15816166807681795 -0.5303327073276932
