# total energy = -381178.0386264272 ev
CRYSTAL
PRIMVEC
9.04599941788472 0.00000000000000 0.00000000000000

0.00000000000000 9.04599941788472 0.00000000000000

0.00000000000000 0.00000000000000 13.23973453170763

PRIMCOORD
 96 1
Ni 6.079074256978568 1.8182820132045867 2.7157609177023283 -0.5556249062355786 0.5811945271745668 1.8905784343504215
Ni 4.515084325887741 7.652870051148308 9.834355262436382 1.4568834675531361 1.7977762655160199 -0.5799498561341883
Ni 5.65960223038054 8.968809639539074 6.311129463981088 -0.08013254378653295 -0.004222265611463696 1.5310042579279504
Ni 0.6194763540111607 6.449209404210921 9.542750243027513 -0.16417753525359466 -1.1759431388844845 1.1515477407592554
Ni 3.55742962584245 2.2383510757465332 2.629517266403393 0.2632110297096886 1.1804875637220573 -0.08436946468601599
Ni 8.064083080522122 3.159550399216161 3.5977919694511225 -0.3465898483476611 -0.7197037111277799 -0.39657337935463965
Ni 6.794911307738347 4.05003855557056 1.6597725884937418 0.6682891041012297 -0.38792521676133834 1.3989742539411778
Ni 5.853277072188217 7.056413051174886 11.720475032468814 1.4260202023153765 0.5755085325333831 1.0600043840326197
Ni 7.325974779854333 6.188494662700458 10.020387139561981 1.622707023050586 2.3518950195197172 -0.7057328507699845
Ni 3.1334074616718275 1.3450224756589442 9.53704402676351 1.581714125577992 1.3706298984705299 0.31217203298942364
Ni 4.272950066631968 5.739921656835952 10.867068235831276 -2.2061075567375363 -2.767627745411627 0.8101687471885725
Ni 5.064348348294107 8.12802020251636 3.7273958084771355 -0.7246893372678294 0.37321979223036367 -0.18168726200258387
Ni 5.011248333281913 1.6059633671481657 11.351668742511636 0.7367187576285377 2.116970752569864 -0.15656861255808519
Ni 2.169538160210289 2.8869220768247668 6.40367546288803 -0.6337651021824311 0.4463532789912442 -1.2976763889309393
Ni 7.244144671540822 2.165847392556971 9.901824847098808 0.7688899430444436 0.26239521867661264 0.9726421552668667
Ni 1.7215621902897025 8.681870546491924 9.255037717053012 -1.3146865503356906 -0.47391113400485485 -1.1963975500840942
Ni 0.550406532099048 4.225141961122694 4.843134771273207 2.043155152140294 0.5550476935758699 0.1559705739627701
Ni 2.831271090052192 4.167790326509865 4.073350095380853 -0.4648243412122382 -0.41104483349793725 -0.7673922754529946
Ni 0.08260263664094428 5.4882438684766255 2.6196797423274543 -0.004717717190643489 -0.994068700571759 -0.9400536798078842
Ni 1.1306503877954075 3.2304438945569722 2.08962761291647 0.19668682073520966 -0.31516865372390235 0.15736951119282575
Ni 3.6788540724367724 4.202536009246123 7.721479431703671 0.5380249337656282 -0.9649267889004801 0.33101796205133316
Ni 8.994825933095303 8.308035585607103 11.1646173812818 0.9279586963165631 -0.5121740341407953 0.5241857138896908
Ni 3.32507409166814 7.029130317737616 2.28230468101787 0.7446678372722854 -0.7416131096063615 1.2608705329564995
Ni 1.30475873344101 3.7072223257720767 9.165867685028958 0.7545586140234359 -0.49912491426632105 1.371462164563838
P 5.566202289153812 7.723012728559644 0.5567305901050147 -0.012970444117738953 -1.5643846331606088 0.11851731421231848
Ni 5.795256033638266 5.433886459582542 0.26606725920769014 2.356969091608515 1.1015917205561025 -0.7111897601194977
P 5.2531654885580785 2.1472759563014288 0.8853156540402636 -0.9390792317097569 1.7616075289049467 -2.0608445990002573
Ni 7.8972658101916515 1.9097189726157027 1.4530742217093948 1.9256950755478963 0.4391801582815726 -0.9391211406912859
P 4.39435642122799 3.264719185337415 10.23202371728247 0.018104680020510754 1.057372088616095 -0.9866284422436299
P 1.2667383990123475 1.0032374897635943 1.5533120336938266 0.9250466648760907 0.744841129625356 1.0743601385336592
P 7.510377472532963 5.174610031936973 4.071654875140089 -0.8371373053576162 0.8714034256293378 1.0248237223664287
Ni 4.441757456775502 3.8914079144711007 12.586008895567225 1.2282046672923623 -1.7660719924342034 -0.7963884055750284
Ni 8.744360308622117 3.606730321211522 11.190064681491478 0.4528933941026071 0.5417856863596412 -0.591628063803065
Ni 6.743113916603795 0.07358739388776676 10.89383896571664 -1.683281185089217 -1.8263041977523835 -0.8561051047093706
Ni 2.606631793153078 5.906286627208907 6.400339298401403 -0.6940700697200757 -1.8489119078495708 -2.296254033116645
Ni 8.876468080212929 8.896948222289183 0.45328778062163577 -0.5788219131773322 -0.03325079163332983 -1.5677661480383323
Ni 0.8596232072536142 1.5907389505782303 10.281090121273548 -2.4046669119051103 -1.0065465213237954 0.26175424265850405
Ni 6.9115232827847155 3.106902684161482 12.730705984175495 -0.299436073479994 -2.0564400421746583 0.6447084885678123
Ni 4.685429535886823 6.622829265902409 7.168971514002011 1.4116847595293107 -0.2195832657174089 -2.166795903622107
Ni 8.12517071278402 7.403046692614791 3.6244966635426885 -1.3696361670986927 -0.6819208359520514 1.648246304972271
Ni 6.216663904054455 6.983882229987873 5.36013261931041 1.7328962770131833 -0.9306023045869973 -0.328556387884718
Ni 0.7052649915528366 8.096766275452113 2.3808753153589035 1.6851439493295686 -0.7456368860537739 -0.45478264070552
Ni 7.966929049648023 8.415827711481938 6.8599827980260315 0.3221268302092904 -0.8907046970611111 -1.6044560472601979
Ni 2.3852671479463687 7.371847041545445 10.91229461318306 0.5111319660295262 -1.408202200297349 1.1979929195956722
Ni 1.024622231754876 6.269103561128678 12.570492293224735 -0.2173464059670902 -0.08275866855547037 -0.22676538528814494
Ni 3.1848520588395184 1.7552404451262265 0.16704794330880232 -0.31838304689614194 -0.07821501504884594 -0.3591514870627557
Ni 3.801210256943574 6.3974934270687225 0.05430132369935172 -0.7491197023960519 -0.25935874584313395 -1.0193519006185798
Ni 0.7532368296467316 4.8479047266251545 7.411086776659566 -0.2864342619036873 0.31754615281714343 -1.2569382877816289
Ni 5.608582795172913 0.7256628150368222 8.87285963115188 -0.47225380090708985 -0.7502497022354369 -0.11985557340776778
Ni 4.4111005656551745 4.469230156194928 1.9106389507292871 -1.2091797894504273 0.2514343487897347 0.0433876229570156
Ni 7.68367167825504 1.6079173029646279 7.567302135985899 -0.8336678587517772 0.9594336269963928 0.0540211914114618
Ni 8.842826009373006 4.288454909175563 0.2590629420656218 0.23009522099232632 0.4121576069461418 0.9347471799933064
Ni 8.490312468485415 0.7752538869786185 3.479375317574271 -0.7278368817578755 -0.199782686051714 0.02458154599410605
Ni 6.858459451769122 8.712608851604603 2.096551420666101 0.31149017643105065 -0.8893255573253973 -0.0739392704916275
Ni 1.5386611334700193 1.989531823118698 4.155382834075329 0.378880847170883 -0.28017876791227875 -0.3177423279883495
Ni 7.3908165017636005 5.812153960051006 7.599660579546396 1.1481693112053257 0.6267603887298238 0.9620728643914528
P 8.208167754987917 3.6647513597614725 8.569325652663524 -0.3135072068610794 0.10743020316022144 -0.2590121611369926
Ni 5.669688519433112 3.8830041812604827 3.9135326191928765 0.13171967183520542 0.2351397253947692 -0.40019246416446563
P 4.109280804005799 3.494840357721604 5.632725662305118 0.4675270848553819 0.011316710564399864 0.38873845669125306
Ni 0.8434172997758724 8.475467983879792 4.892041965679241 0.710144349574119 0.7652896272876949 1.2512810894958515
P 8.112759601949824 1.1640120326616716 11.912556873826123 1.6429562602179253 1.7714602533293105 0.039726886275976744
P 6.391658757616787 0.6270442369002921 4.45123856848492 1.9079158971876045 -0.8143300776551138 0.02413134583056489
P 2.18995498029249 5.277254984295297 1.9031850474294496 -0.037694686337296376 -0.5284138930384255 0.20797422072357086
Ni 6.525566683038507 0.5562023037546379 13.158773519166127 -1.4640727862127236 -0.018447922292542423 0.6693324577640795
Ni 8.140603187334412 6.668954815569729 0.8653122361192307 -0.8790509148722667 0.03259696009941483 -0.5295896585140815
Ni 4.346023647767999 1.243236893219898 4.873718389800418 -3.0724873039000378 -0.08319909852699865 -1.6233593119226042
Ni 8.016293067011148 8.853020850415382 9.020681207866659 0.9738755134533357 -0.6720675973070553 0.6057205373403891
Ni 4.477850993385153 5.794794687681602 4.2716944819499085 -1.1013307535852321 1.5555467231540048 0.3858457085244903
Ni 2.1888242303987036 2.958132182135838 11.467608599821139 1.9953465172974474 0.6850686375524137 -1.9181607148440643
Ni 6.393449865448543 4.527178826751676 11.117934598066823 -2.022244370129556 -1.2999574716556321 -1.1051125892251676
Ni 5.835565005851952 3.0390848285317693 8.29667923827383 -0.5926241091677471 1.209181332112324 -0.24580414708715084
Ni 4.039092896598711 1.5497877124248742 7.288235775999244 -0.3029196611532203 1.1976190811960212 -0.32766138687427443
Ni 5.781270918951921 4.87724994786869 6.310348794254419 -0.93453043599681 -1.8620142495594838 -0.82995055780119
Ni 4.139313521184757 8.794882213876477 11.944239581250093 0.3929828337899039 -2.090382203448058 1.3814411301534208
Ni 1.6771644264600865 6.445337716574598 4.012592642087941 0.8112231565950158 -0.2816777210553084 0.637901750058624
Ni 3.0127247870078286 6.198255295783619 8.602848316314663 -1.645240942487044 -0.4682138265097614 3.0355230679708622
Ni 1.0051552415834555 1.5540031480289087 7.87308766366276 -1.3723052292904236 0.3768306495100736 1.3723733635241977
Ni 6.257922706178921 6.367279789906759 2.513524037698904 -0.5188612163529838 -0.8213414759759403 0.21232529860341498
Ni 3.640462852042948 8.326245181896631 7.81679169715077 -1.732541978997558 2.79021977177953 0.3599809249425865
Ni 7.924096243671407 3.8515602882140803 6.286132654529096 -0.583398476804421 -0.5574362484127044 0.6901211123746567
Ni 2.5550876899947346 8.270847483100265 0.5531800354385265 -2.2544137000420914 1.3675201491969544 -1.150722416644483
Ni 1.1053125441754494 7.188149936800538 7.563608654532836 -0.9580182347061048 1.950173263194919 -2.35108923578897
Ni 8.768187470383976 1.7321098252989389 5.566527040523307 0.31913535168113427 -0.3601081945490701 0.4645122092884581
Ni 5.472512875954274 5.47241336996362 8.899603223039792 -0.49449152925936773 -1.453524578383232 0.5834496417573306
Ni 0.7331465701338558 2.115361671299211 13.018167031373618 -0.33802216128330814 -0.06192142009514498 -0.28048678607100086
Ni 2.786656222242969 0.1530438320242407 3.028006193372411 -1.890500272814318 -0.8053620698285485 1.930867620887771
Ni 3.21845794568284 7.856712596000908 5.521339560967871 0.4048345909221673 1.4163747088058123 -1.4418476562659361
Ni 4.43477394543148 0.14919204558604787 1.6069855650521483 1.8439003135675922 0.3616261738554933 -0.9281816109606466
P 2.0586070726303007 5.1217090289060865 10.718187372615999 -0.08316284597242452 0.11102794781380877 0.8037024227379383
Ni 2.408786745737119 4.265432841338079 -0.030949076892881996 -2.0480225075349248 1.3205013572452549 1.8800433391470524
P 7.890065194868022 5.636435426556652 12.057373369623175 0.9034936212956634 1.02747015885034 0.8423396754941622
Ni 8.70215167658687 6.306508767615121 5.737981290018215 0.41327449415940437 0.23956253705281325 -0.8872409068822268
P 2.2217064373100026 0.3679044038418929 11.425506710575865 -0.38528983602102035 1.205898033375362 0.7514097839818091
P 6.210639268620364 7.658008178665671 8.355940483307284 0.9232124398808295 0.31266079970038413 -0.06414465299870888
P 2.130414213885291 0.4912954506514879 6.600417803007568 0.875378608227002 -1.1942607062467496 -1.7622186801263844
Ni 6.034757907141304 2.434947775279753 5.674880922945378 2.068428324884786 0.11143495344424036 1.7095120937612882
