# total energy = -381172.0754961474 ev
CRYSTAL
PRIMVEC
9.21841157620577 0.00000000000000 0.00000000000000
0.00000000000000 9.21841157620577 0.00000000000000
0.00000000000000 0.00000000000000 13.49207715309765
PRIMCOORD
 96 1
Ni 1.1096386212413702 1.8733655717996813 4.200002277535514 -0.4960501319957392 -0.15519281525648113 0.058702398937215024
Ni 7.114050909361253 6.014663161635487 0.8203777761903246 0.43823707764201303 0.28013557337916917 -0.014993130974722565
Ni 5.965178729052962 3.152715147557497 8.787133586961797 -1.2131840255138138 -1.3850381034760597 -0.3799861644199198
Ni 4.891196923241772 6.309209843803302 12.353170038820034 -0.5032461355235461 0.3346218773525076 0.14666215207765065
Ni 4.828668438478869 0.8069806588519893 1.654236557263042 0.8946297431471303 -0.44851403408798884 0.44698037105228183
Ni 8.490719254637272 1.0617766290713873 12.903943388661943 -0.19640194250493917 0.2935798718095331 -0.09672772914105277
Ni 6.1164620791110496 6.39898795276776 9.7225119676436 0.8744049314598231 0.916763341821376 1.2045734010266675
Ni 9.19500588826337 1.1366116930998775 6.132513177101492 0.5849323969504442 0.25550106265994066 -0.8119631200848338
Ni 5.05577322258898 4.4645135315661495 10.914388959136826 0.23851429829395698 -0.5199158828697433 -0.5224173091353583
Ni 4.875064703230703 4.673006342989205 3.968856141852344 0.44716471914894607 0.06801699146992157 0.8226457966096608
Ni 4.043527118157293 8.500592173284046 12.938375999053568 0.3700491078118659 -0.13717683829503474 1.1697084708286822
Ni 3.1267745377796983 1.6637204589472634 0.40726480798801307 0.5240383896785491 -0.2861226442005395 0.13297822683265487
Ni 2.2402214732628254 1.3595221000071116 9.891784125775745 -0.9167813395435049 -1.0374354975931683 0.6963064152497621
Ni 2.3678319427560988 6.234771171466512 0.2122502359239196 -0.008069664382011909 -0.13171710073204412 -0.315571802699592
Ni 8.924675972935027 3.0088341818816318 11.771500261212926 -0.7441613299495119 0.03442989954309554 1.068293363514289
Ni 1.7256313101440288 1.5727163012619645 12.080130832370974 -0.007971962461883045 0.39131341650728085 0.7204575585746689
Ni 4.9815557921266285 5.071140314450953 0.954884539278044 -1.194661284119278 -0.503691707701397 1.0200103601381854
Ni 1.6626511232208154 8.493632272650698 4.891390509881905 -0.17280230080812822 -0.8026531555378177 0.3932116619712583
Ni 2.7792957371527067 6.921911559823703 7.386048435318167 -0.254989927351477 2.2027029019313615 -0.0574088769367721
Ni 2.8478714998169026 8.372576093687636 10.842381181895417 -1.6346210008793527 0.5064538438275665 2.3919795462454285
Ni 1.9372583814549496 3.3123319415527313 2.4205059456950977 -0.5107180184205591 -0.3028949785628719 -1.0844090381292293
Ni 4.229508568856331 3.3443106108203877 6.195413163845221 -0.5112042140283583 1.048934242261387 -1.1849594834504817
Ni 1.570632940277678 5.37888776179354 8.585170176358078 -0.17356180468197205 -0.7747240332277173 0.48102563356244904
Ni 7.9906573079398715 2.1643262919193216 9.173411759477125 -0.10965343606378533 -0.16579655891425638 0.26175604243071693
P 6.566846006585792 4.514873713234989 12.87361389319999 -0.6124843384267838 -0.20701185681030154 -1.4150755303784144
Ni 6.300185019008539 5.163149278982655 7.857609819382296 1.8037332544304032 -1.3615294788311585 -0.6059290538067693
P 5.550377869716921 1.9300219284785556 6.767922606009472 0.3560203976329417 -0.387246702637075 0.5851949065832116
Ni 8.363606579361482 3.4617347356781005 7.228488268914059 -0.22720298704619582 1.0496335823212568 -0.06295757466914319
P 4.523898538029753 1.5695912597855346 9.71572537314523 1.0508553705435 -0.40623944168949394 1.1674690399752023
P 1.3479069015991416 7.65168710106729 1.9680487974886474 0.739314800490488 -1.1542394286588056 -0.21981775032571818
P 7.1760447262609315 4.302085122083271 4.600245421533566 -2.0281419665609133 -0.575774641710576 -1.6126876911413712
Ni 1.1987161309367758 7.665938765145641 9.25273158066869 -0.5642391302671509 0.648237070546361 -0.236083063144645
Ni 0.13637717876785987 8.327129325313596 11.928615178344728 -0.3237759357769392 -0.7488831609052135 -1.0838009722315851
Ni 8.130546701464429 8.203796198726115 0.5973751851687416 0.7091686159244108 0.25917722595994713 0.30043828949226326
Ni -0.24284614347634131 8.56449420135075 3.0472933943880203 1.3157183340343148 -0.1620689735510241 -0.4018145731489209
Ni 2.731876228731599 5.426537730500521 2.7361932108065607 0.7875317265153469 1.6013866643062549 0.47663701757645005
Ni 3.8199990776839203 4.091803938841847 12.829980386355194 -1.3365473549645241 -1.4797858260726062 -0.2805901444180845
Ni 6.2252762076885695 3.445620952489901 2.3180737233539572 -0.07614681966590757 0.32135935591564657 -0.4264871361949364
Ni 7.813921923910035 1.3420993023951568 1.6683895843390386 -0.21700650612916822 0.2987359620891758 -0.1418228217074783
Ni 2.68144229977128 5.8282300087761385 5.40104052631274 0.015736951119282576 -2.1039599421324926 -0.7563666137664522
Ni 3.802290509317484 6.378587608262334 10.014912603629371 -1.6728005972728677 -0.17612570875440636 0.8576523945918325
Ni 5.108567064876634 8.375553640581108 10.693293657441124 -0.48296141713258117 -0.28693948367488004 0.3538771260376938
Ni 8.749572247729168 6.252553487124428 10.48583976098678 1.7106338660705571 0.578031813175869 -1.560251841939158
Ni 0.8866295773317827 2.1675342990986657 8.146596877613726 0.0917413316700549 -0.892607827621095 0.1686463696582257
Ni 2.911284952077556 3.3471498815423355 10.624389719329844 1.115048360281641 0.6049191244850163 -0.5898971971548873
Ni 8.213936451304502 3.5539188500270655 0.5322120784177448 -1.239685671348768 0.13399484102262726 0.8296548809376422
Ni 0.5750325213739828 6.364105483898111 3.795455979079652 1.3417407262400054 0.6010598986399261 0.9528870841271266
Ni 7.66546862616246 6.041378117973818 3.0762880638742 -0.07765682855253077 -0.43661548287818996 1.5248858037350383
Ni 1.0336604741949524 1.6488327244799055 0.9797585788528254 -2.8094536803084775 0.20444281053154467 0.6419208985203461
Ni 6.192043834465767 2.36235620636377 0.0034292490537815245 -0.4602004692869816 0.026724560479037845 0.040649398090246126
Ni 5.938749543469114 1.8578048932975757 4.105099653654397 0.7495171949447865 -0.14662461397149587 1.2716601673728356
Ni 6.154276002816995 7.500864671580947 4.585093118658027 -0.2549053380574707 0.28389838285571106 1.4487847497054016
Ni 4.226199159151204 9.137602840258268 3.957145071965451 0.33454088760292705 -0.20888773367677574 0.543333233352419
Ni 2.2428855941675105 0.41463124056563894 2.723618375768219 0.19564243863109532 -0.14697248422921785 -0.784130671253598
Ni 7.5407711746826145 8.777457942319728 10.392191762901952 1.206160028787497 -0.930489690268533 0.47268163247312783
Ni 4.4200715700385125 1.4440364960422434 12.052890426580857 -0.7233688186841929 0.5378241306087318 -1.834324754064015
P 8.725014399666602 5.989229564486608 8.181609326084606 -0.9484239061494506 -0.12784116271640564 0.2646575323482281
Ni 1.5450979406030145 4.66010056698035 11.788729472184746 0.30884065462334553 -0.3407956102633873 1.9970940961161734
P 4.765798872492874 7.015035952139028 8.132915833203196 0.7732567046535715 2.014441072035053 0.5273743960303177
Ni 6.942496272557827 0.49896219021321625 6.127926095571487 0.8073958124291255 0.12705697625221343 -1.0506422260914292
P 1.214046349153009 8.990154349357098 7.399365352477019 1.9569537764518619 0.031917417533886966 -0.6802815005764156
P 3.8913127085442802 7.0265958400783886 4.343963443390863 1.3034891389579744 1.0208603668433065 -1.6817760612986004
P 4.143648284751704 3.0245423549666954 1.611655793004111 1.0043867946683154 1.4045962281136455 -0.699357286260944
Ni 0.11236229513881082 0.9732706608849452 10.618898311638075 -0.43448095303369044 0.19642791064686818 -1.2319651627760588
Ni 5.483387673819528 6.547155479760852 2.632452895882809 -0.969567115885969 0.47951305357266455 -0.576900270674587
Ni 0.3474889408795698 5.219040507512434 1.798925977621748 0.08869277465171822 0.2606774646545575 -0.7330600778300278
Ni 7.323926482499543 4.526258451357086 10.580662184688412 0.12103056755247542 -1.4094229600783275 0.3203422275050418
Ni 3.5673132018419706 7.6336835435349375 1.783814235756522 -0.015108573506664303 0.6171979418523693 0.22827050907876173
Ni 2.705124398747529 1.078554137882899 5.937795437885602 0.29929851946086516 0.5888702985522697 1.0134453053261578
Ni 1.9457208831521846 3.7516353384827275 6.812770177640244 -0.8593338960593135 0.7395991645001262 -1.0171548929672611
Ni 8.327571809062473 7.97525334243216 5.246043078287533 1.2582827176246654 0.45694416713321306 0.4962085119504745
Ni 6.979268515771629 7.369317940404973 7.587715013073681 0.30862493906811367 0.44384413941614526 -0.9294779611745669
Ni 8.488792606647378 3.215870484297974 3.113040026582846 -0.2509365832177098 -0.700746967519619 -0.8361029505558311
Ni 8.397594862321945 9.138238910647276 7.959759036492385 0.26690596206277256 0.332431297459092 1.2429661418722528
Ni 7.1577922716198366 6.839056477846852 11.96628529483229 -1.0653646199032685 0.7593506360954406 0.4984587414372319
Ni 0.7091364398819971 6.170122452073582 6.368624349183498 -0.30894092764663567 0.6721403595265198 0.4250439759905067
Ni 7.763174568960929 5.840389093458768 5.911809657891772 -1.8704680367537916 -0.1882721143089532 0.06578167438149961
Ni 6.45473168671458 2.2807640467535 11.09399495648749 0.15078722998961774 -0.18239020160687944 -0.4464196134528054
Ni 4.88603461283823 9.040302507562934 6.687307598011302 -1.4308232801309744 -0.9998590820012909 -0.2903983887577579
Ni 3.763978791394054 2.426811339116567 3.5787191423103684 -0.7509521276191002 -0.49738633430865953 1.4179309975493386
Ni 3.3289988294270243 9.016943052986907 8.730089135161514 1.027204306783463 -0.5485559152039391 -1.9991378660190795
Ni 0.4552816694701024 3.9472684659541026 9.984325914488384 -0.35171508538936846 -0.7466164763582238 -2.421150254272114
Ni 0.022627512708097125 4.217561507636705 4.9868877213005725 1.632065067226718 -0.09283276496202077 1.3458514059742694
Ni 6.128593508559374 9.151163123479002 8.846417190899617 -1.7369866450324731 1.7660115715099134 -1.8623644338100505
Ni 6.357145583264764 0.12331837712918539 12.259157913483529 0.7977192085713101 -0.38175148385045865 2.226507203439811
Ni 1.5673788410411595 8.784510027067425 0.09959571714262255 1.0757598470946634 -0.6574843001762418 0.7231194216775482
Ni 3.2479413376799786 2.5186451538310064 8.281005003699093 1.239926840825297 0.5946647937468598 -1.0137767205236476
Ni 5.036064258941172 6.2228333286583215 6.176565199825433 -0.2895974901230174 -0.5109764142882683 -0.7152523602246456
P 1.0500784649605033 3.723408562669074 0.3686737721981056 1.3849144334140018 0.6135485180252401 -1.1400145433086755
Ni 6.709759039060993 8.734149845398585 2.7705032163261025 -1.3519644608505426 -0.1868243261188331 -0.44142370290011074
P 7.8911076828544235 0.9569817278794829 3.874398767243532 0.8518399016751137 1.5178900891434954 1.5791144831716157
Ni -0.06565076071590291 6.171652708371775 12.973684358531509 0.46645030685143535 -0.7733168684675457 0.4900476345554013
P 6.016691212151164 8.101720728907505 0.8052715653719595 -1.5566222156063707 -0.19853595812880648 -0.6629838898382323
P 2.125470687721233 3.8273184963632283 4.559512026926189 1.005145784321527 -0.22274957926053252 -0.035777928930557736
P 1.571868207409954 6.712026768273978 11.516054392987368 0.4940264166974911 1.2495638496944286 -0.27698777177880685
Ni 3.989488790325929 5.002131286449317 8.141995968466569 -0.5721319027516663 -2.1401911565503853 -0.2909987413459182
