# total energy = -340861.27276968193 ev
CRYSTAL
PRIMVEC
9.39722500513263 0.00000000000000 0.00000000000000

0.00000000000000 9.39722500513263 0.00000000000000

0.00000000000000 0.00000000000000 13.75378868106842

PRIMCOORD
 96 1
Ni 1.5772678624731236 0.8194164217462209 9.391967428708027 0.09195164790864808 -0.569726121523651 -0.38980854982698027
Ni 7.414654991871732 4.760681260385815 5.871643774055906 2.641818782633902 0.10296908206507428 -1.2932396933158243
Ni 3.940350488629951 7.877167620593653 0.16720106866995127 0.6220637545851029 0.7273563425770312 1.0321613936784224
Ni 3.082778513500829 2.7008846795654766 9.855566376660315 0.404294145037665 -0.3574848979936101 -0.703280275464434
Ni 6.936007327522285 1.1246881007624392 9.453130208489803 0.393405008928987 -0.212283389621886 -0.25528920375945063
Ni 6.2596702371412425 0.7349908110407753 11.93736749995323 0.7549620201094417 -0.14816496187542225 0.5908688170395372
Ni 8.608938942289065 9.309652434777155 12.830496695704037 -0.5018443700800131 0.594869196448182 -1.7543446766949466
Ni 2.1395132419899934 8.045387348472705 4.111130960369515 0.9901428831547916 0.02458334576631895 -0.6537798547414612
Ni 3.863030119880226 4.244200367477011 0.46326346701349946 -0.6022035253260661 0.6688727445188417 -1.0389871583510042
Ni 8.05581826841828 7.236756122061201 9.772521218333255 0.9428325281046019 0.7716500222880839 -0.7267565042095031
Ni 2.3723952763064355 2.062183476015092 3.577429652325334 0.8532727774668981 1.003214371626769 0.663163095728574
Ni 8.08073031236037 4.157614334703559 2.877718843763545 -0.16129352883758027 0.6781551982620321 0.3654110948192223
Ni 1.0866857221499104 0.7418987112677957 2.3005967170702424 -1.2177407916465608 -0.4615143030023987 -0.6611869458388097
Ni 1.9315902377415226 2.773788352482391 1.181370283580207 -0.3393699335604542 0.6464270139208157 0.5103284962916244
Ni 1.3929412906420764 8.693636132802101 6.577336856164861 0.4067176668774931 -2.3669138615260525 -1.3237257777198235
Ni 8.007685681065814 4.301485852151091 0.39256062423285026 -0.9247620437561365 1.6609416410517526 0.6819218643933159
Ni 1.1035255496656502 4.194019185036135 9.877572798577928 2.2312277488439314 3.576715086610563 0.43595522358637173
Ni 6.879774332067939 8.175849025593807 3.332020177126508 -0.7722652872745798 0.04851311710903903 1.272188786182796
Ni 3.555571706565507 4.976206619801827 8.92898681817233 1.2760431269318797 -0.25204704267306915 -0.45963148415738914
Ni 3.465800014457325 1.157117924845485 5.7289891972686915 -0.41640712625111514 -1.7630645730664474 -0.9795512236818742
Ni 7.3573507127473 1.5436915769185822 6.720637962044198 -0.9654052711987954 -0.2159073595277185 -0.42499563925107453
Ni 4.805064354892981 1.6985766422726134 7.536677021062094 -0.15808633475419226 -1.926605503177308 0.4227793483260461
Ni 3.3498006668823845 0.38125952123595924 10.91269594618606 0.41210515644165147 -1.7378752182850132 0.3572928365874621
Ni 4.092764083762643 4.494965321303751 11.254230577434694 1.0098884412128348 0.6004070955472757 0.4745760212823633
P 4.279261414609391 6.6534233692489515 10.353329876463178 0.6473006747750206 -0.453477034520219 0.09191385269217718
P 3.0259440956352073 0.13522513056291557 7.850635495031186 0.7368550260960858 1.4805257895624244 -0.27807046332002433
P 3.9751766051329263 5.2204123104555835 6.740278162662443 0.015477526810308829 0.11233972464669686 0.45986314055222083
P 2.3702621061914395 8.670387397716198 12.746530609309707 -0.5236835774422917 1.0455583838106186 -0.6055251335001314
P 6.697815860981293 6.014816137950329 3.44821216781756 -0.7549581634546997 -1.2932664327887018 0.3448217007036449
P 8.332049702472505 3.2034294875379854 7.520516612926593 1.0799844266989722 1.795387196458553 1.2744259030434308
P 7.221429247798828 8.776322317127434 7.994912032883812 -5.814441041584328 -1.8072646646224293 0.4274991223992186
P 5.237844163157424 2.7752261279343484 9.175001474672504 0.4505143523474693 1.515597693564893 3.137177287879255
Ni 2.220395159081496 6.63424363266434 9.926961794936451 -1.9151877482586692 -0.3368409964910134 1.8309188137062598
Ni 9.365030282740465 2.5093504360242886 9.643262386034705 -2.2471518762733558 -0.9340720083031526 -2.223422908087532
Ni 5.797928180883768 6.519757238342766 0.7839437761511233 0.23741309480997824 -0.3369083593938391 0.02330062239915342
Ni 5.130104976512358 8.519186044631235 6.640163884525342 0.3404762792507556 1.471985356191581 0.5089758389184719
Ni 1.2932649231981854 7.649688990753522 1.6752799813383108 0.8675511417627834 -0.20056095897863524 0.26697126808306926
Ni 8.038517976868906 8.780410110079078 5.896098173131915 -0.4200035853531218 -1.4313799239653928 -2.082680463928426
Ni 6.37550043466301 5.912236027926994 10.43120374177578 -2.474883225019196 0.2122126842849507 1.2427242010647759
Ni 1.4174116650008857 1.5143722343688564 7.006565453035221 -0.48929661532198954 1.3045368634961985 -0.13144430668663168
Ni 3.4715981023910363 7.498074159760807 8.159324944843986 0.13265529627559736 -0.5057730157104579 0.577627892869231
Ni 5.3067070292485745 5.019743964043135 4.932686190565837 -0.809873841655973 -1.8226702005442224 -0.4836502156694897
Ni 1.438912516204018 5.03760808910308 2.4447088034822846 -0.1282841637910952 0.938129723312294 0.3835142321778363
Ni 1.7992773072607096 5.817887887158005 7.169465411742027 -0.6394109876142988 1.8252019658271408 -0.7523171262874269
Ni 9.005398475247517 9.359110030879464 7.8305132167614016 4.336965094591821 1.826288771133416 2.4956986191026505
Ni 3.35963956164186 1.2408378039401984 0.012890173774185457 0.23016386944673264 -0.9811491642966135 -1.0186456185801747
Ni 0.9196387679728486 4.79876821402493 0.2552342741205377 0.9045261763252357 -0.12925038435910643 -1.633905719979883
Ni 9.359373153184396 3.808065749824667 11.929775481733383 -0.5039727292769257 0.3682305665458884 0.16779816272531745
Ni 5.955237730333258 6.293716383954593 7.952358578118453 0.018857241915819136 -0.08844054943159606 0.06967612433989935
Ni 5.441350471573084 7.952599147082963 11.61616094620574 0.025721830246136345 -0.4144510309660089 2.2150480537602757
Ni 7.72411501414898 6.101477348525191 12.556865473856064 -0.6865328808027661 0.47989486239211543 0.3744770616762325
Ni 5.419173020157266 8.223079479329359 9.370016450418955 1.001850658510023 1.274535946258734 -1.3761282025809398
Ni 2.449518303327461 5.273422057674495 4.804693164498521 -0.44235521357544455 2.433811137569234 -0.20230339559103866
Ni 5.183246284883736 1.5114121084383554 3.4043243070771805 -0.6419376106908945 -0.2255749645244696 2.918312645495426
Ni 6.527190443457136 2.9876128141415115 11.080286059978306 -0.42229803781425335 0.6291872530037615 0.32657072491325695
Ni 3.342865514702354 9.37750979777445 2.1286190388432313 -0.3001408128565024 -0.09156315422097779 0.8956890376495801
P 3.3314102972125728 6.181579295927069 1.726058827300393 -0.31919525838479224 -0.2765015761710077 -1.0963806086688086
P 5.250962689503391 2.5636757947678666 5.671952739061782 2.6377348423725153 -0.7665242710257444 -0.7603605654171938
P 1.0737269486319387 0.6362043608210701 4.560701730578781 1.0969678486308463 0.36523317448046133 1.973241457868292
P 8.909903873007034 0.8628992620815062 10.705192997902966 -0.40287823852674487 -1.864066504102822 1.5564293828692743
P 2.1914704999891703 4.230377049242829 12.225454473289743 -0.7983193040491542 -1.632250443764647 -0.19079436651017462
P 0.7879958596470983 7.218403341292094 8.443492335559508 -1.1071195923528674 1.6398529387022533 0.439624702018159
P 4.074975136504108 2.190530777471551 1.7995319720629843 -0.9230921122528812 1.1306230747914463 -0.7617016528261203
P 8.998078036835262 6.226902112951853 1.1351594287762723 -0.07521016678425112 0.7314014591806823 0.4061854485231069
Ni 3.544924650440879 3.4589588345290556 5.215051193492565 -1.693214127932213 -0.7647787490895473 1.4763444044912253
Ni 4.391276338709625 2.1988285273021306 11.829648047481037 0.02075394471789974 0.4646183958490192 0.30702211335736806
Ni 5.760921908139916 3.7936785980799135 1.7534150895108116 0.7791190769716194 1.35733806645763 1.0310162243303858
Ni 0.5642385309767404 7.402946049302194 13.13405714001567 -0.20613973861799337 -1.4771352758236367 0.7412498127296718
Ni 6.324952760440263 6.814426028192686 5.71410775147967 1.1635434796685509 1.2597243351671983 -0.8076503516420929
Ni 6.172877465413913 3.913032755042755 7.415217885659786 -1.3880743191992222 -1.173039077863812 1.4985592500253675
Ni 3.5810663784685217 4.132044484999135 3.070368537933147 0.8655541659374125 0.37008484614580783 -2.0733437599085325
Ni 1.9968539665901905 3.7472281140339856 7.643998031186819 -0.1195436985943038 -2.0838312897034177 0.12205566638288011
Ni 8.288174058124854 8.898166738761967 1.5454441594139423 0.05842729089895744 0.06991703670611185 -1.387853718547984
Ni 4.347729597243141 6.701227053720252 3.5611170091419795 0.39707500158140646 -0.06120819607820426 -0.4747405718846856
Ni 5.607418234886786 9.302087668510318 1.706088784078463 1.0134813007704158 -0.7374070419448139 -1.5726275898956916
Ni 5.767828868644419 1.9936964989309895 0.3450210017890019 -1.4263122796344985 -0.5678530728706542 -1.8362463965667604
Ni 0.0027759403170477394 8.547208570106646 3.4943017984167217 -1.602862477520833 0.7393099153944815 1.6300475225760571
Ni 3.3303014246417817 7.148845080537905 5.89645526768861 1.5045638043482346 0.6320841149355824 -0.6532234680173589
Ni 7.134345162091037 1.8681119816763312 2.192381091108744 1.8562899454811965 -0.5365702035969727 0.5488289663596677
Ni 2.8106536668486006 6.20471526431086 12.729722732359566 -0.24108642989650736 0.36475134974803636 -0.3662950400860724
Ni 0.9839740509741087 0.9210248586863372 0.049265892708715224 -0.04472433949056814 -0.6196551451436103 -0.3395959335283313
Ni 7.899908905520043 2.2725967449352544 13.436049187445397 1.2231413938368418 -2.131409296592697 -0.8921054340633797
Ni 7.847848278043927 4.486357463042357 9.835238299159172 1.9258238878162766 -0.7194008351753804 -1.3736280618669052
Ni 0.7213582564776706 8.378020928034447 11.083958495577162 0.4497455925022448 0.4498857176245349 -1.5027236658157024
Ni 9.071808665567682 2.2405522070844324 3.9065571271738397 0.07872332214383217 -0.2115141155560293 0.43476660259490935
Ni 8.757424497298107 5.707414107986667 7.722628373126106 -0.3909750593312557 -0.6553225166382327 -0.2815478803456635
Ni 1.623370649187532 1.816201709803035 11.681822177679361 -0.37093176752713536 1.0804392548482038 0.11144446652593709
Ni 8.816843152087182 6.438161132137873 3.3905150846807635 0.5395385421966773 -1.4480527566353836 0.28138307263302503
P 6.876729631110852 8.486887781700656 13.611271727525747 -2.3033253381411303 -0.5163927002078332 0.027129509226940376
P 5.8692155310703775 4.668907959315104 13.061615810577424 0.4179472170447253 -0.3536827506387006 0.03533029987017787
P 0.04348190061276776 6.088189672126052 11.252717624181328 0.3656476363100606 -0.005222938961836166 -1.0128863474988943
P 0.11538101015834648 6.844581723783092 5.699914182573546 -0.24794073381417941 0.033997439991367256 -0.20185268120686525
P 9.123042337228291 2.616544583609135 1.6071989643818194 0.5917067395598002 -0.35030149287129353 -0.7709154581149047
P 0.7496814931587197 4.267045021880339 4.335111942999066 -2.0329946666675243 -1.4690545556980315 -0.41143229874434306
P 7.235440510536534 0.9157755687029153 4.343212351100945 0.3021205622906926 0.09096485851534657 -0.042328842675198076
P 4.451427977062444 8.768757550860597 4.106249101890482 -0.3772137438811052 0.8870802129346465 0.8025940201651082
