# total energy = -381180.31175400474 ev
CRYSTAL
PRIMVEC
9.09938485253362 0.00000000000000 0.00000000000000

0.00000000000000 9.09938485253362 0.00000000000000

0.00000000000000 0.00000000000000 13.31786951160846

PRIMCOORD
 96 1
Ni 2.272198245006847 3.0698594040181177 9.429650469901642 -0.1615591237941411 -1.1317952407226766 -0.17841399056795082
Ni 2.786058695739607 2.322590637274839 11.772370765929685 -0.4374184383954596 -1.1185972539751639 0.6091169646164477
Ni 0.8352088598878755 0.184511862581252 2.244820016430478 -0.49246061487226805 -0.02973532228090363 -0.08130136728365353
Ni 5.36621651530729 1.7627691946053468 11.839452339609508 -0.8964745096653529 -0.1917816701241084 0.2512901099023866
Ni 8.509380562176787 1.650182508160446 8.716558991955505 -0.588618844663096 0.4684871347758061 -0.8279738936907933
Ni 7.274457572532424 8.364254476174224 7.717239089902564 1.6648993401479195 -0.6242718179800152 0.8126586034899617
Ni 3.6466057021622333 3.191154201586252 5.204596884663166 0.0654407461023131 -0.23411771188815808 -2.0158184119985543
Ni 6.314881962813923 1.3685474534319142 7.5070169159538125 1.0097089782121773 1.9496505579222294 -0.046477831846565114
Ni 0.6646299751037974 1.0980682443011718 13.177525953802437 -0.6978066539443725 1.2638226736062879 -0.7472114296297454
Ni 0.2715383775056059 0.2853567030560161 6.774706627659315 -1.2954469853797883 -0.03391619313147062 0.44503147485602707
Ni 5.141534509189333 4.4806825985979355 3.525306354901767 0.727827882896811 -0.25652796126255817 -0.3972444372797352
Ni 6.216117241673298 3.9968501172556365 12.305578328334565 -0.6612599651685902 -0.045402596504515357 0.6177088200505167
Ni 5.316670365813029 7.582954010788423 8.767486428041726 -1.9421987296298744 -1.7193383358230907 -0.4091756414996824
Ni 4.6281927233824085 2.0608923343446404 3.0627236665647843 -2.050542702853617 0.47023805602864177 0.40270134662924845
Ni 2.7028721211433666 8.635743717002645 6.732262547895132 -1.278363290424624 0.7792723147200321 -0.7018013769260623
Ni 7.011812933597192 7.34623351876029 10.520011535392594 -0.47417930006457687 -0.7258980128639498 0.0442240028153819
Ni 1.4617069536196532 6.4000977001901855 5.42743080575591 0.5607897382659698 0.23707448052363686 0.6623598831009883
Ni 0.777088360224939 7.300700197902754 8.106853812620727 -0.15565741359772547 0.5256535566844689 -0.6317413868841829
Ni 1.1099429412873996 3.579115566111007 0.18256641414013666 1.272256663306254 -0.06653989270376282 -0.12748403648730305
Ni 6.146707135458015 8.747393166827177 12.415130369994097 1.0247360477486287 -0.5052202285307815 0.9621435697283881
Ni 8.25737310391351 5.344405290268219 11.915484068044623 0.9618442933204144 1.3142528052323819 -0.22517747197573476
Ni 5.506283343436794 3.8386300167218987 6.525156913193724 -2.026354278532872 -0.6396256747282661 -1.2185758859533464
Ni 3.6864792057589 4.30969606138092 12.802041665528652 -0.07200682935560503 -0.1322642314847658 -0.9812769481237295
Ni 6.978072415263912 6.578927906987376 0.37303200410689724 -0.7571168616689155 0.48312185396984536 -0.7730021654406043
P 7.845635047262309 0.8174641498550458 11.41984604503954 -1.6010279954152555 0.5403674658558758 0.4344706686210453
Ni 0.8418696094617596 4.6750181568622 2.3576760446614267 -1.2935199435604046 -0.7871458039308379 0.2332129406857016
P 4.1164524292763085 5.3142863270311205 5.506153222236102 0.44755578393977763 -1.2408817485393984 1.2850149914131868
Ni 7.495108551244329 1.7191922414505232 13.552929257552714 -0.7526932786799231 0.11400194284046818 -1.8318505814919095
P 6.735783099821547 3.343750882397776 2.2650097311224644 0.5984499718209049 0.3142425423652072 1.383408795402753
P 8.739240118168434 5.71433167438937 4.292069643348719 1.3477285683923241 0.036852907162291365 -0.3459293319455268
P 1.2302732040811737 6.61134901454441 12.582150485436172 0.28178313628492113 -1.1215632785820233 -0.7307933932830382
Ni 2.6012046962949973 4.002337046207893 7.156729733752489 0.251426892590567 0.13512535508264473 -0.9480014739000511
Ni 1.9284234924093893 0.6088188992685272 8.624851753560105 -0.6843189038705827 0.36811692378615957 0.704790027240741
Ni 2.056251648166115 8.930645674570963 10.983206612317451 0.1818171027122288 -0.24329552173268423 0.42720010310156104
Ni 7.97208009655014 4.267120040539112 0.6625616849697211 -0.4297308399432147 -0.12282802577253041 0.7945914615756058
Ni 1.7903676282905792 5.239452987556226 8.885176049406073 -0.275836431783183 1.1906593620487365 0.12276271975223374
Ni 5.282456679477232 9.067882594070033 4.088292563557321 -0.3902759763817021 -0.08818832421147393 0.18324560762863926
Ni 2.73061614498322 1.7467997745204198 1.0507969409728553 -0.45318135765667117 -0.7534975197487733 0.39144222877566137
Ni 8.217399507085542 2.712208089808401 6.129269984626821 0.5328547024185984 0.18182918689708685 1.6097854298929113
Ni 6.613532866863716 2.638703260494418 10.152411863929972 0.6438872782180975 0.14924251121031717 -0.7844104072775459
Ni 3.7558802125895197 7.134427141941575 4.639013711624571 -4.646861701283507 2.750788048146469 0.19922115712128918
Ni 6.969246012140049 4.902803053150505 5.099278786687689 1.2469955747466202 -0.8357766775646638 0.059579402225529654
Ni 8.034501875343643 8.109790184051727 3.515823886143646 -0.5688658304058849 -0.17378549065700394 0.0017370372957647502
Ni 1.2147587532294357 6.851727459207382 3.1271691485075115 0.5203668543642329 1.4185310930271828 0.08428076162695163
Ni 5.513007788703325 2.417460821779368 0.8798049441250417 -2.3107992779206716 1.2515245729652251 -0.9881883305315822
Ni 0.07557584926345814 6.705928018739698 1.150857414489602 -0.24555243608766097 0.25342746796036353 -0.8111051429599128
Ni 5.031322762141678 5.3944792040729785 1.020464142196158 1.0268582362979541 0.1099236590060365 0.15690079908652332
Ni 6.169073422961576 0.3001777807963745 9.653457115214943 2.30631193157328 1.0700278297068928 1.3653182564496291
Ni 4.275655263353734 3.6666152490378767 10.577184789112032 0.9549838187551554 0.23513201208528536 -0.5058905151249288
Ni 1.8011594985018178 1.7967008000165674 5.737923649007142 -0.9429698250134146 0.6505371794344473 0.2688597433550337
Ni 4.14759052359575 1.2823944794352828 9.575428071846131 -1.2144322960986182 0.6718331126987462 -0.11264799991573503
Ni 2.2970395651389564 5.66808860152806 0.8870871816714617 0.05929169578178175 0.4058445202439204 -0.4123244715413093
Ni 8.729576571655503 4.058771429892632 9.711430204846328 1.4055135977215922 0.034097198794025146 -0.33814068913904344
Ni 0.9340700345059364 8.882591824161562 4.5978744836211725 1.162400624313359 -0.7194296315307868 0.29995029411225116
Ni 2.8347859006141274 5.1601063532881 3.709891922498796 -0.4591326901440996 -0.5285679021177864 -0.4219846203388926
Ni 1.5739660622166578 4.482083903836156 11.250855912817757 -0.12208960494460909 0.2369001597293017 0.6763058037581191
P 5.0461274609896405 2.9152790573498906 8.453371119755847 -0.11142492614191132 0.10400497952875637 0.7964737661999831
Ni 3.2743407761824925 6.674698930573618 7.232201850030781 0.7686914538803923 -2.5226093274505654 0.03897972369730706
P 5.616058320020589 6.123339915641438 11.904230859030932 -0.9433596042526656 0.42169022902692543 0.2734653604478452
Ni 3.4593403657817228 6.05705089836583 10.536299433940753 0.43663579459316415 0.46876944190291525 0.6829320508253851
P 3.24387603632817 0.4249822110293274 4.9598944124079685 1.0258593627197945 0.5520063356463848 -0.0664200792964469
P 2.00963550053359 2.936589816232454 3.0100919157310373 -0.33334121086787105 -0.2894810191498111 0.4485520864147759
P 2.9351794116095684 7.752830423076458 9.097382799149994 -0.20955724893997457 0.13717812384661535 1.0618419514619906
Ni 8.676172283063801 8.037977840285206 12.30591136581326 -0.0935236203814583 -0.0593999392248719 0.21547104332124828
Ni 3.793851944791457 7.305850449622452 13.224297700912713 1.8973710317922226 -0.412084073395729 -2.346938189735074
Ni 8.901372954107595 2.286538875236958 1.8260663342035055 0.7673207987851108 0.9868354160481133 0.9109037977168053
Ni 3.5501522247262076 3.78535311951549 1.7495951054891319 -0.13580669742038545 0.354841289723176 0.6486885562614828
Ni 3.7730780496040563 7.016499116699038 2.1114148478133243 0.6576329099389642 -0.2381756840076156 1.8376067672493968
Ni 1.8745369364305076 8.428942001749007 0.27014617165204813 0.43959564855243644 -0.6529486170894174 0.7563329323150394
Ni 4.409862087759766 5.050877339784132 8.544212096731256 0.6135194645595176 -0.4632176588467506 -0.02033099824786821
Ni 6.660358300343508 1.0440997938603163 2.6949238086395586 2.9362157510280915 1.575525994489409 0.014343670316181749
Ni 7.758772321261904 8.829788094957669 1.1394786339675502 0.4022498609141266 -1.6478033038975817 0.12778459844685736
Ni 3.0618519455139945 9.002931186339998 2.9927912556698 -0.7256653280278534 0.489415400288041 -1.175840294758033
Ni 4.010317206558025 1.476429758005643 6.892530009978219 -0.3860359701584255 1.5224915924712488 0.6128954578222735
Ni 4.3726365051002585 8.391689120935508 10.978292944599012 -0.006357566786911632 -0.3646690744468752 -0.38566778818572933
Ni 8.764836687227636 8.716791936202897 9.930841847367025 0.325073314432124 0.7086099152074635 -1.4961313573101653
Ni 8.282132529583645 7.177585523401865 5.853989030209004 -0.641822682379585 1.665053863447913 -0.6229991219151787
Ni 5.052842806871507 0.19172767461962636 1.4583729390788454 -1.526436950272242 -1.5249817058829542 -1.4002168680990272
Ni -0.05585020318932448 5.336725409611993 6.903543905175255 -0.16714176008824116 -1.886860362068886 1.0287819356832282
Ni 7.343221622436579 5.651300236823393 2.5969980507649333 -0.2289467092101799 -0.1366037394003841 0.1462767437137739
Ni 0.7851604243601745 3.8118050307330873 4.712368401091601 0.34107688894923194 0.32614546445038023 0.23295685881083752
Ni 6.583541295011911 5.020612786392413 10.209505043064368 -1.5056776062377035 -0.07967720141666923 -0.30066531790140477
Ni 8.543057384817422 3.0006949811887558 11.892297925982854 -1.6814004231267365 1.781708670530196 1.181936894574074
Ni 8.623040976012014 1.7364628735423702 4.050096986492655 0.6980215981686559 -0.9094105010007306 0.39611829409509197
Ni 5.7460703280966205 6.8057209703473305 4.517993715473282 4.304326482621192 -0.7022880867544938 -0.6262919337338375
Ni 0.592702069152047 1.700793285660368 10.758360817275545 2.5938219430396487 -0.7493045647133483 -1.7119795814651741
Ni 7.090977580172044 4.019980753070955 7.972062807719279 1.0643729454139603 -0.5402232269685278 0.9955134034380856
Ni 6.268183920719425 6.207409130550065 6.968322424596676 -0.37751302028907885 0.3118866405385209 0.6394171582618858
P 6.116260594373021 7.593946067462264 2.3327182524056216 0.015762919261211563 -0.5500438126033753 -0.08264605423700605
Ni 6.371307247113998 2.4340126024827766 4.645325954765831 -0.5671519330385716 0.6393999318707053 0.2589165160993928
P 0.976054595344599 2.6962568684928017 7.653126645438531 -0.6745947346042833 -0.3515309944030204 -0.23879454853853713
Ni 0.8459616027450596 6.8417090366925635 10.442914269013354 0.42061139414044985 -1.2912339757397053 0.7923977963583966
P 3.801286142061762 0.5452660669613163 12.892909030719585 -0.08711951662732739 -0.8852845544868043 -0.6453980584356691
P 7.826044072081199 5.967995220661454 8.753955643046693 0.905762105614866 1.295952207150981 -0.8342039337609053
P 7.203819049387531 0.4366203240142969 5.227050526259499 0.6298601107010701 -0.3979126669913534 0.7584623199532163
Ni 5.354951477093536 8.754718171481517 6.464560470963774 -0.7178820845380087 -2.2263575652358236 -0.7978958433584904
