# total energy = -340887.07368779206 ev
CRYSTAL
PRIMVEC
9.08733663419347 0.00000000000000 0.00000000000000
0.00000000000000 9.08733663419347 0.00000000000000
0.00000000000000 0.00000000000000 13.30023572620607
PRIMCOORD
 96 1
Ni 6.593007924455031 2.0974571919177385 10.969022925817443 -0.10689027149635139 -0.5342947772992347 0.8156212856627114
Ni 4.859789348402423 0.7091375624950902 6.323397559543613 -0.4879352161980887 -0.6193291292627592 -1.3250583804883178
Ni 3.1183649076193576 1.9275694387218243 4.383598383552409 -1.9586437625597755 -1.7106323234086604 1.6702490344956074
Ni 3.3057185212936107 4.079696046163853 4.297744864585106 -0.1307292828974781 2.0981556767458898 0.40606820621895223
Ni 3.882982476041792 2.762559339893612 2.2227352109366674 -0.5688393480433236 -0.5215924992412179 -0.07013043826849857
Ni 5.171266889378253 4.51758752320325 2.6957983146125684 0.6425662454138288 0.6697291789818659 -0.18492505221359118
Ni 5.318890668499282 4.549620383862014 11.221182878722328 -0.11050627098238387 0.21320795831868442 1.5220879292749268
Ni 5.904851204141203 8.127795423814083 12.132328293501123 -0.42467450846622995 -1.655144060533369 1.4464969821124896
Ni 1.8260548042767024 6.686207646133409 0.46069342142662195 0.6227186145602823 -0.22066801414115542 -0.8407044538835843
Ni 2.7604783398678365 1.6804393264905924 0.3383696954573853 1.3535932547032175 -1.8774686364413407 -1.0684579141166115
Ni 8.071808344518015 8.737864662811383 6.742527321940148 -0.3559376081111483 1.6696571665478794 -0.31872834605070266
Ni 8.678478919717758 2.4425124407330396 1.184609719039258 -0.08122886217450527 -0.3892395646973877 -0.08669297061287005
Ni 7.2279037663799155 0.7778932581065159 4.5872510437167495 -2.2206965102953045 -0.6170704151355695 0.598270508820247
Ni 0.7638951251820449 7.905900844646508 2.594011060076734 0.07972168150135948 -0.5788607368350676 -0.21922459682640952
Ni 7.5425527877443725 3.946575655868751 3.5830031417585952 0.5730847535832387 0.0889218599433888 -0.10436441975070414
Ni 7.916569377529739 3.9141338650739175 12.469449388943044 0.16748114570553094 -0.2261192670637138 1.1052933377774061
Ni 8.47477718793709 7.152142643170804 8.882482351065484 -0.2750653579451134 -0.24145229787635838 0.8394618397257348
Ni 6.684308392834776 0.8723343099312743 0.05693034480993647 -0.16902560737451536 0.7083108959098059 0.9256069082549349
Ni 2.175808205988622 6.606611666981603 9.1493646976025 -0.3572229025814751 -0.4405107041675382 -1.0963811228894407
Ni 9.559696100938094 4.736528718054769 1.282496688810627 -1.6011246688941199 1.6682196627704042 0.1117051763864915
Ni 6.5388837491121645 2.164585345587608 6.975374867618933 1.2437086764652323 0.013886785284421246 0.4653552740150438
Ni 3.277293333168614 4.481937902674361 0.2251342145788806 0.8117000962314342 1.0359172611764287 0.04141301572914804
Ni 6.242609321861757 5.832652316784074 4.6099811981467544 -0.8700389411816436 -0.42347868838591585 1.0113390576164325
Ni 5.824346491353688 3.3900399153511067 9.062514297836824 -0.4652465163513213 -0.9830579512835521 -0.9281690125551563
P 0.28328044499339655 6.010355179247091 12.293367707286132 1.8010109704032338 -2.4238648249898 0.08978240817147118
P 4.035849648240864 6.504751713754912 12.746160598483897 -0.4070637373630022 -0.8795507373268208 -1.2349532988701055
P 2.6877796490110666 8.422434130520214 1.5324002560980448 -0.1314947003085929 1.3423469923654363 -0.3979550901935146
P 6.264646112527715 7.96707679300248 5.560828276736069 1.0160907133688049 -0.08344900975427565 1.4859369332756667
P 4.911196410174516 1.5363414338761174 12.296825438770009 -1.1677158658786857 -2.558505270016226 -0.5502551572832329
P 4.2544909609926 6.268326483752339 8.097649094183053 -0.5984764541834661 0.8134296773280313 -0.48692451554538724
P 4.9088064407126 1.0631002184076168 3.939130401191382 1.712378616675806 0.13517626292523818 -0.6464010457788868
P 0.06320060689633288 5.955767549750013 3.329408298442925 0.5488523633984354 -1.2817214082635797 -1.936031424476898
Ni 0.5305913952181348 0.11297558305869176 4.75399639600038 0.6305116282421399 0.021547387153472566 -0.5370036915899654
Ni 1.7413244800831373 6.648622422960458 4.580574577695192 1.5033841822178364 0.4795786167032773 0.18561667896397713
Ni 6.285265278721966 5.672088170690541 9.15499066754118 0.788323626289023 0.8890905584964559 -1.1449549180330862
Ni 8.971045713734473 2.3516572518347916 10.023469220656136 -0.758097737524946 0.08898459486052417 0.4442498594949962
Ni 2.7175134135714853 5.257723807479667 6.569730712376328 -0.6263778085794245 0.7077619653848713 0.038140772735779475
Ni 0.6248688749884653 0.1254906626896847 9.087824347058609 0.7490011745403165 0.006695666852620726 -0.5784164502087974
Ni 1.6801576190635223 1.0228887550274661 11.293190023282321 -0.985803118128857 0.8829373944108665 0.8150098773309576
Ni 4.212007663523175 6.8214453857997155 1.665202589620649 1.2788553995696943 0.7913870957056952 -0.19690973537929313
Ni 5.932176824566993 8.138954672860597 7.803194860404971 -0.8477744733564883 -1.5596807999270366 0.1073363578948345
Ni 5.178264138373217 2.9741670543049543 5.162553042545434 1.37225766388194 0.04330020544953188 -1.1511759592421336
Ni 0.7011152619590456 7.297458238857129 6.8053444432422125 1.6107303103046842 -0.01819698262400092 -0.3373927552294254
Ni 5.158326522405749 4.765271962952265 6.839353799558645 1.3152781611731026 0.46384500801810435 0.03849789896488209
Ni 0.7314142588408759 7.786402371550692 11.106946882110906 0.34387322074744653 -1.4067500412318548 0.48271047746403967
Ni 4.89901029211965 0.14505024546469866 10.418819241273422 -1.2516677834113088 1.023392903457173 -1.450886626539753
Ni 7.9855967844982425 7.4551871360072495 4.278818669154182 0.3503259183513257 0.8910577095251558 0.29070332159268647
Ni 7.43884810523719 6.371803982850593 6.875051582970226 -0.5911272129072465 -1.4537030129426256 -0.6688511472522868
Ni 2.575305686919287 5.387254699913717 2.44882632203395 -1.2068801947829733 -0.45896839665209344 0.3760189522420556
Ni 2.371885662565688 5.384401276297588 11.270978755758307 -0.01996821559181077 0.10867410286965154 1.0653569065937847
Ni 0.9432927758756603 3.484230156692409 3.520704907362522 0.40644410150113236 0.6128990573666994 0.03332406807342648
Ni 1.6530319200375903 1.2441472206500452 2.6818592493744187 -0.9661475486814587 0.29718661532418494 -1.2444797503033018
Ni 1.8612046213059505 3.6076816211035614 8.007526344595187 -1.5400733101087543 -0.21551860872973205 0.8816785823031009
Ni 3.887925987020052 2.846826209932965 7.152268048412531 -0.5538413319725946 -0.649322847411372 0.2171191204476325
Ni 4.155993322218034 7.318504509860165 5.983390326074679 0.204679352022383 -0.9025528546489489 -0.48784317070491473
Ni 0.915712710031873 -0.012588687055485409 13.751512611809437 -0.1824871321960599 1.3128425551484164 -0.6852691835989939
P 0.46900560799245794 5.331204009263147 7.6310361818534185 0.3415689980943021 1.2491059362214034 0.845458423628802
P 8.666928915207889 1.7566366418448442 7.899168945873171 0.177596636872978 -0.018485717509013327 -0.9605214607439327
P 1.7967027078432816 3.2609543023985545 10.276878682310121 0.9848109294189169 0.8557502924731134 0.5758438043856148
P 4.050125853657863 6.059326834875483 3.9439984872778786 0.15004032452126417 0.8399508635470114 0.08121909198249239
P 7.241262150824847 4.100651443803318 10.486517170932881 1.2214205544909933 0.3532346073576884 -1.4625350094119587
P 6.483696355415519 7.627201325910724 10.049485355912866 0.5866622351573574 0.5479295944738499 -0.3449057757770189
P 2.4061721826410114 8.571802678221806 5.795804076589684 -0.7164918890587015 0.39534799158797074 0.5867247129641767
P 7.036024659199829 4.007851564924651 1.3150111782963174 0.20007039249546188 -0.15804416866234716 0.6921551120855499
Ni 5.379257843919472 3.2259317080783054 0.06530159906209353 0.0732278462468997 -0.5751735177914674 1.1123857258478134
Ni 1.3894264669909426 1.2669564349063567 6.733337298682216 0.7280106883315784 0.4249095072951714 0.42794135214295975
Ni 7.246514631239248 0.5049560193547663 8.919456905235236 -0.9183715668487604 1.1353623892486446 0.13790548893094315
Ni 2.807368995470453 1.6214988628784663 9.229033375445162 0.7010562712299216 0.10464544132623269 -0.07575241244096631
Ni 6.3990114679037395 2.0663785015764695 2.5196230333911798 -0.05232477754564537 1.0969166836779367 -0.21331877286493584
Ni 4.436819277661379 6.572243360879065 10.338499001413956 -0.6006755187173138 2.2943064224719714 1.1998798522057401
Ni 8.440799637297907 7.443137327997739 13.416213527307114 -2.109801231404618 0.7736611391808418 1.156463175783002
Ni 7.921094871035573 3.916569271217619 8.1066791803211 0.9787513534883984 0.3375333945723477 -0.43221581114859753
Ni 3.1886281923324256 8.595129870650473 12.493283654740436 0.9338172119798692 -0.3839217520289001 -0.18712180275459386
Ni 0.24157865845068194 4.992355411179742 10.184349606054896 -0.31249907731153925 -0.5121984596208277 -0.5637207958698356
Ni 8.61062377913932 2.4839506945213983 5.541635822349882 0.9582660890508529 0.6142555713945937 0.32405155803582897
Ni 3.5117011744999105 3.0256377274315476 11.641975623672211 -0.3419675190843014 -0.23037521412659034 -0.9720348607001712
Ni 1.2016730105169773 3.339341665814867 12.638375701952377 -0.5160296604414596 -0.17150723614578847 -1.5506958228196068
Ni 3.6054733983687868 8.707576570733181 8.107131729671682 -0.9984858558028482 -0.7579565839613914 0.30893578544031314
Ni 5.448203464860761 7.89782220262505 3.5654209633748852 0.2266162613047904 0.34529478368532146 -0.45201716214524085
Ni 3.0932656846010578 8.693918304188465 3.644609829857893 0.31835990696769045 -0.9132707552870852 0.8755274751000406
Ni 3.8716869169499213 4.5238214359442175 9.391694878769913 -2.000722179787064 -1.0030138255801888 -0.7972983189838075
Ni 7.446445118431723 6.166130299080434 11.45304535714 -0.9062387881409683 0.15738776602527088 -0.5946624797540147
Ni 7.760557986951111 9.181208541665036 2.1624189246000767 0.9403827810125288 -0.7581938967831781 -0.03497703029581718
Ni 4.789262530934999 0.5326351371648458 1.7911158134509388 -0.8752662510188539 -1.325518607954188 -1.1752923926743628
Ni 5.901761509779791 5.46400634278575 0.25103494066387627 -0.31852805711443855 2.238943115210318 -0.979916320330777
Ni 7.941332369102826 9.081638597200332 11.012741192297796 0.0653381590861778 -0.0030233602073560834 1.004781973224205
Ni -0.04535671322553872 5.201482282765598 5.295741587863215 -0.2230311150566933 -1.0730928417854615 1.3262428877147223
Ni 7.072819284109711 6.081100092787085 2.2895825659131024 0.7946313136746057 0.8476947691584884 -0.1878946763648764
P 8.530228114388091 1.8663662283567812 3.3144850746773016 1.0343465742551992 -0.5271172857141889 0.6352159756963447
P 1.9274513033491822 3.2300846207934986 1.3531661774588573 -0.3939503399094957 0.3689584458508484 2.5573251336651954
P 5.023752158293511 1.5191663681612055 8.54747587879386 -0.5712003920763323 -1.534572434895183 -0.30869358752251996
P 8.604935106579779 1.3218075971577896 12.561221490079724 1.5829631674937448 0.9447487712907084 -0.7215546482935896
P 6.303449038772516 7.955863019937823 1.0986844101147344 -0.10446417855336203 -1.0313072732082433 0.17547933341965907
P 1.866066346256997 3.341140958413572 5.713528241946172 -0.51146775210239 -0.7341905918900452 0.2942637852504352
P 7.08415119254701 4.08321284533405 5.783101797829735 -0.7449892251674459 0.4735830612414747 0.7638066149842653
P 2.5765870013456373 8.389410750198527 10.232057213196017 1.1107985838663514 1.1640065353478986 -0.5983872369037694
