# total energy = -340887.54298661096 ev
CRYSTAL
PRIMVEC
9.08467244417188 0.00000000000000 0.00000000000000

0.00000000000000 9.08467244417188 0.00000000000000

0.00000000000000 0.00000000000000 13.29633641481484

PRIMCOORD
 96 1
Ni 6.698174442150756 2.295051723704713 11.37044148439502 -0.2948803357885115 -1.1184797545606933 -0.4108471156648344
Ni 4.882102990230388 0.615817242532477 5.807706655830519 -0.46792406318348445 -0.39272958012851716 0.24114993614459113
Ni 2.8367525742842767 1.7414045288152256 4.648252619013197 0.608861396962216 1.3656869526429578 1.9353547101248476
Ni 3.6724152569402735 4.319516477621536 5.087404778182229 -0.9236850086418736 1.3614603161561198 -1.9185214406175928
Ni 4.007312623207213 3.0088253557095723 2.6395352363715237 -0.5122920477758983 -0.7379323183206646 0.11305217733268916
Ni 5.29616419247959 4.970169805242099 2.4136839192721182 1.394510304632553 -1.0714033698981806 -0.7823887488618267
Ni 5.494891402958356 3.3303500840873803 0.26399876530609795 1.3910881663248815 -0.904722608606758 0.3391344205108805
Ni 5.9330360719494655 8.27934351778086 12.115276520072928 -1.2279696684634205 0.6810692865850335 0.08924016251475599
Ni 1.8731322797611516 6.766354909105871 0.6445811325355799 0.40380614965765294 -0.2933592711582948 -1.6117595229001467
Ni 1.216510322321866 0.5463867246442472 0.237950283906977 -2.6695900392098992 -0.6816295299638777 -0.8365058424212044
Ni 8.185880407316608 -0.09204681002477356 6.5733764793718334 0.216196351523047 0.3014721300734163 1.5982224076456604
Ni 8.739682041638238 2.486738313012233 0.9911450352000885 0.2393527350348523 0.020751887835370714 0.4085282377236706
Ni 7.215909926730641 1.1200401852670532 4.892985519393017 -0.472811987403405 -0.0017959155581581973 -2.4413691524221504
Ni 1.027512796068139 7.957637095953473 2.536568650026957 0.742467744297173 -0.6951242220162028 0.10080986963022638
Ni 8.071359026045963 4.132862796867399 3.6956365882639206 -0.06111126548902378 -0.10877026212788364 -0.08234960604250978
Ni 7.8191957720455445 4.114666197891903 12.348679925404152 0.3729901927180609 1.0731290943400356 0.3006840869544822
Ni 8.323131639129784 7.605606037391085 8.67169780360867 -0.15693962274425877 -0.1301628688710468 0.23105809912622788
Ni 7.248950880536871 0.7575681126245162 0.0664825416687849 -0.20066920242172537 1.482322990672163 -0.6238781820860223
Ni 1.5181214486256416 6.8563113359932215 9.20997373266364 1.3682781104089017 -0.5849887041096764 -1.2483415472515533
Ni 0.17524696598946832 5.084427731010852 1.4161932403454276 -0.47771096736691926 -0.33091974591057205 -0.45035957193715986
Ni 6.784742286203428 2.165758664983167 6.957906136793454 -0.9730496751179308 0.6933334486643673 -1.2931731017439472
Ni 3.4260480239814757 4.241152092817429 0.4095806417825438 -0.3100027932522468 0.9436912765604715 -0.4849843610998809
Ni 6.4458294947007575 5.826709065254905 4.563661599691963 -0.833727765455435 0.451657464812977 0.16485193561279995
Ni 5.232308029624492 3.0620615364366848 8.976130629184432 1.2324279613450904 0.9727529698131182 0.9458288917287647
P -0.030324636735000066 6.056078876005439 12.262133884565431 0.613532320075324 -0.7290445289127315 0.4183961316566859
P 3.9119599008673203 6.059703660324572 12.691991515321167 0.6433234352948275 1.116140050683923 -0.04570907200134063
P 2.8392145205260935 8.86096241923328 1.4257530411951105 0.23474608950077636 -1.3587611720574018 0.5509925496698898
P 6.470339941049179 8.090009858645411 5.493647711295978 0.45276201073106537 -0.7742296100898021 0.9678151661918686
P 4.981443883788574 1.3724487254244055 12.464145204145368 0.6410744913596508 -0.8133276045325283 0.5696939827341351
P 4.202932875698152 6.275809849255722 8.042076401244307 -1.1468613910271799 0.4623190582918812 0.02569971875894929
P 5.156523691804429 1.3298870348601526 3.7029234040593497 -1.1123772412073811 0.5026300992061021 0.05595388965780041
P 0.4299057795198762 5.984555249578041 3.5852105773468224 0.6654675754920346 -0.9436995040905876 -0.8051039310711553
Ni 0.7888575415767892 0.12495331067831379 4.5595398837882275 0.06780358990753485 1.2238430478895568 0.29514618785538843
Ni 2.202896806077439 6.589603521353877 4.794193340052565 1.0556808169566012 0.08873159830945364 -1.217287506159226
Ni 6.148824297343849 6.032122594678239 8.787814453366632 1.344635274178981 -1.8644051183891635 2.07446630354875
Ni 0.10852095509824544 2.7585698829297502 10.174343512666285 -2.576755217365349 -1.2214624634725222 0.03496211789748172
Ni 2.443704219479071 5.2845176423614735 7.062774145087882 0.24258949680459507 0.5885836205497864 0.35575943066207116
Ni 0.9323781058677433 0.18997231161072706 9.289033094912392 -0.33676900560249745 0.6435435217254336 -0.35360150377880395
Ni 2.0172061006060784 1.3467845256711473 11.290996023565908 -0.5803730597145359 -1.164743413513923 0.5256193610124238
Ni 4.153003515753406 6.921430268322903 1.740942118986043 -0.09922349897971298 1.617892118160446 -1.7460335857260896
Ni 5.696289507145959 7.942520200948368 7.634477126529441 0.7800796411126758 1.5507963529532132 -0.6046303896000038
Ni 5.703302874299769 3.255256181375723 4.694843361821899 0.5836573868927626 -0.043751176944021426 0.0670890803390135
Ni 0.8910174090052183 7.474986616487601 6.53909819317396 0.053082738757592444 -0.03882468617668153 1.2411293457738302
Ni 5.434732701802224 4.9919639345192905 6.796462422168623 0.9216049861843933 -0.6757548163506555 -0.8658189895630249
Ni 1.1393178602675533 7.722607534248504 11.265188285987481 -0.9444296973883929 0.15016476591427044 2.111744728284234
Ni 4.873590652117538 0.9105112992107195 10.196508296580621 -0.13295842933831292 -2.5268647602928094 0.9634746298349858
Ni 8.335014390732354 7.5566759914190325 4.42108493287158 -0.6592277652299098 0.4303543324598265 1.6071281947757223
Ni 7.738124154842687 6.266897785553795 6.702297974988988 -1.0615483314809717 0.12167848554911949 -0.03100261902910145
Ni 2.3806656771470855 5.300206871732757 2.5005751776650427 0.33746191790446395 -0.19981045396585587 0.8866030161879117
Ni 2.082970044681772 5.331930548029527 11.62250026466193 0.16898729793741218 0.8457168194965113 -0.46367711498167236
Ni 1.371649274246251 3.3232186161913417 3.797433977260436 -0.2104432510893537 1.37801230697753 -0.892043984697825
Ni 1.927404113150873 1.4176631403525346 2.4082322073174525 -1.057209852006618 0.8380847568725504 0.5612414810914076
Ni 1.258835811401664 3.328415048849347 8.235990552243686 0.5409310516688297 0.2543363529278781 -1.4508863694294367
Ni 4.000063054568947 3.2414202251901614 7.021768658919287 -1.487237140144329 -1.8540523143999292 0.44356826004693933
Ni 4.415096316773404 6.996315223567542 5.896234063736917 -0.6487417780969215 0.46659377440783517 -1.3428892380221518
Ni 8.664043058577839 7.72433362201952 0.29548078931492633 -0.1377270543715499 -0.4922487559717781 -0.5221509428478491
P 0.3497008400715174 5.543885041637762 7.919604114620017 0.7249330778475193 1.2619894770522913 -0.16222195418912064
P 8.630838580666987 1.758520051765717 8.140748662908038 1.001558838301217 -1.686030208589264 -0.5542164559238262
P 2.0305060611153776 3.5128793235360387 10.309114628892686 0.3677981069941601 -0.4470675314494494 1.3614919407250035
P 4.255951024285768 6.236818434975729 3.7155947052331 -0.6749557174881279 -0.10704453768602853 1.9544626345988918
P 6.9557249069312395 3.9460455920086384 10.03600847942636 -0.023782704241894527 1.4218676135995836 0.6915473032982219
P 6.441241735098847 7.987189535527756 9.776277693250911 -0.7452537916827423 1.003104585521782 0.45631630374122706
P 2.5323342841844814 8.693722683566829 5.663707329299921 1.2707782789885147 -0.8924664169472243 0.4700920173690807
P 7.236868266139762 4.181647488079786 1.522403963232256 -0.6755319017065721 0.2274665251202276 -0.807174697557255
Ni 3.087489534705488 1.7896078009889556 0.25026909978854084 1.5433488955362322 0.7627838301467057 -0.0737675208004536
Ni 1.841372264774465 1.042075526052023 7.037551460417105 -0.8686472030404395 1.1986531788874903 0.12605913111531836
Ni 6.670947678731105 0.8209273438950108 8.766088459133032 1.2152095405842749 -0.576602279818194 0.8758282941699109
Ni 2.9809626652163894 1.8025807132890095 9.203976940360233 -0.6480378100513613 -0.2098578108995289 -1.474942639047692
Ni 6.6634437392634265 2.1418387223458826 2.481495548524585 1.0825748131339676 1.016140592770134 -0.43602747158520394
Ni 4.421782635717969 6.9373193604887256 10.639289782405024 -0.4093545902797079 -0.054326381356706435 -0.3299962056550382
Ni 7.224576704275634 6.5348320309778085 11.054641008146248 0.25627110805674574 -1.1546011828735987 0.5333326704962814
Ni 7.952804050194629 3.8471407627294454 8.09270891483893 -0.2654401761505235 1.2592970178217926 0.1067311202106678
Ni 3.2655854539843796 8.369935871741742 12.654787964585045 1.1352045235145418 -0.4039097651150527 -0.8349935195417361
Ni 8.872827001490894 5.210722847814318 9.973993779682763 0.16683785569457718 -0.28609796161019113 0.8810900567894825
Ni 9.202773221256761 2.460529032910233 5.683492837491999 -3.054754919617281 -1.1837299819187548 0.4857528638347892
Ni 3.980948903673069 2.8022853268988395 11.204583527412627 -0.42693810768942597 1.813254049436645 0.7705233648828085
Ni 1.0282304851939823 3.3404159011941448 12.321741146102086 0.5526383128034289 -0.283494462549073 1.4245569875062885
Ni 3.2761055047150958 8.353338175122557 7.959319577296589 -0.05762099294757819 0.07981218433263675 0.16124622053941262
Ni 5.927458083047341 8.314682893724287 3.394182626794032 -0.08133402029380186 -0.2420842750334024 -0.2845427013079293
Ni 3.4385031099502252 8.96710773247826 3.6793886515351764 0.8310175656131236 -2.680518256086629 -1.6034132078179806
Ni 3.3580038271135457 4.740672809076859 9.330198471316619 1.2641674585402163 0.5810819128561024 -0.02907506298908541
Ni 5.485843069169244 4.756307530413269 11.542457032383698 -0.5351496691003623 -0.05240525307459362 -0.7875481815755792
Ni 8.192157915999617 0.1320093757927759 2.193922058135406 -0.03315694636794289 0.33009493601643153 0.6320987702236016
Ni 5.126925828867751 0.5453229094969528 1.370093978317841 -1.5015108764545235 0.10766828731295651 -0.025984339878903636
Ni 6.4839487804227645 6.044986490908545 -0.016557724060278944 -0.1332690186001963 0.43245158130848754 1.9180069628750196
Ni 8.120861406384195 8.827158352938813 11.014937355543898 -0.06768377650021891 0.22285782270362264 -0.3130642057863898
Ni 0.508331940096841 5.088352309521793 5.721772921916885 -0.8930726830726555 -1.0609598059673535 -1.1977178115574147
Ni 7.639500950410343 6.694186270932462 2.4760701821201088 -0.7547591600700163 -1.237061860572676 -1.8212884897053474
P 8.859481617619199 1.7866916211231871 3.436890580585197 -0.34641218511921634 0.6413791670842631 0.09541518097721632
P 1.732864936684938 3.412775317489614 1.336933106834888 -0.10916184113934747 -0.40620241780397137 0.49548526063120474
P 4.627532298023027 1.301888074279784 7.89383544113325 0.7002314613357811 -0.8775257364769918 -0.48384690506132805
P 8.73404954470124 1.5374172929710999 11.93504388582697 0.9792617174659134 0.5531515049944216 1.4486945039844403
P 6.553301170127676 8.069778293034611 1.034063753392767 0.23980704896345154 -1.7647422178791867 0.6571960795118618
P 1.894281397292332 3.2529577592385284 6.033904098951376 3.4912919838490524 1.2210387456715424 0.32503860453944666
P 7.411103199615066 4.099840012406127 5.9508020574494545 -0.6689131108384737 0.46788781062891033 -1.368260626907405
P 2.849852671999037 8.515445070838357 10.335867172408932 0.6086587940331066 1.1309974274117296 -0.9819683177637992
