# total energy = -340875.6836207486 ev
CRYSTAL
PRIMVEC
9.19059581342477 0.00000000000000 0.00000000000000

0.00000000000000 9.19059581342477 0.00000000000000

0.00000000000000 0.00000000000000 13.45136597260510

PRIMCOORD
 96 1
Ni 3.1906899408326224 2.2585429560528523 5.2159820098092275 0.20663698996938606 -0.41175111553634247 0.4424282329052251
Ni 3.6690053067803103 6.54570773392765 8.327551949827724 -0.7100695304721255 0.27050782048141797 0.6164330386618867
Ni 6.863656394387267 1.778729522995613 0.07419751772286676 1.685304643277149 0.7274062219783601 -0.1791945774877172
Ni 9.421555435668928 5.474249698555401 9.113502289668535 -1.6578866562755123 -0.41694037304676573 0.3997240091684793
Ni 3.197380694548899 9.02740754572902 4.183078523667447 -0.7632931656829565 0.4223144928744856 1.2319667054379557
Ni 8.865533582535633 6.770178844870436 4.17712026043357 -2.029415176846382 1.175130670285518 -1.294724248281151
Ni 7.585063018295841 3.906380014175916 9.148381519652935 -0.6021305059962855 0.6120058561284686 0.8586795503047663
Ni 7.0168728163708565 5.878966773624042 2.010347241204576 -0.2957866496528648 -0.8971720499530097 1.0632257191833947
Ni 5.117434008609334 4.701531978495763 8.677772468253458 0.5414596704787901 -0.011648125761889616 2.682306201224987
Ni 5.0249306622435 1.3187126332142813 1.2991164449260317 -0.5697451476870445 -0.5962593919274892 -0.16814706142430397
Ni 6.933606018747959 5.4855449407495 5.002375102119205 0.6357175979231117 -0.8555314915940878 -0.5249812132077926
Ni 8.725735430367655 8.29701251916314 2.1230156737364587 -0.7070842225915565 0.18799237828500526 -1.6542775987680154
Ni 4.645450963143123 8.077256183847346 2.422496751067659 -0.9400202554667875 0.1529389862252979 0.7230412601414451
Ni 1.9360633318815266 6.680570536170299 13.402443609704537 0.6520065648911222 -0.27827075225628845 0.2199563327861115
Ni 1.1278423403851061 6.986801187030666 7.380790998723431 1.538903715280685 -1.9209840432254723 1.5059532284965935
Ni 5.181216743212304 8.299144737380415 7.392238804807215 -2.271689970624036 0.5923526006739154 0.7853246915616992
Ni 0.8124128222244341 9.20272735052531 3.7175941484660426 1.1248728025712305 -1.2739949861535993 0.9143508757251414
Ni 6.869519994484773 0.7934222941970398 2.4511484333622926 1.014769166343904 0.19317957891289955 0.8028868688151786
Ni 5.829126172795237 4.697497306955316 11.425025354063216 1.4188002875281693 1.0038831155590195 -0.39066806961379813
Ni 5.569289649352131 3.1835120855408467 2.42393599836432 -0.9478212395684451 0.13939415766132768 2.5501666682435435
Ni 5.762834405548665 7.065095872345177 12.357675983490859 1.4286697241230815 -0.9669286498218573 -0.3294159076715359
Ni 5.219054425973172 1.3284087117454244 6.1530312583695785 0.20764743351177142 -0.1258110196602543 1.2840426001975886
Ni 3.128074411891695 3.808720743586412 3.4552660545112834 1.3504372255727388 1.6731327838013057 -0.015314518869883305
Ni 0.6086802906233777 5.189901856209395 5.505065766152484 -0.7006816614993223 -0.6895670396433995 0.7358720933575262
P 8.959277659329624 7.267895558476175 -0.1392577451370487 0.9022528069100267 -1.5746255941623268 1.6366909960345037
P 2.8097121746226934 6.064249184228634 2.9986322230307234 -1.544837821376933 -0.5606537269087377 0.7246929368122552
P 1.0806302499448388 0.8070243759279324 9.891300571066578 -0.15905384087378416 0.6754007754453465 -0.1159068731726649
P 5.319029726695234 6.815828534030803 10.036628704705825 -0.6651541580166738 -1.038532587312089 0.3579641516228738
P 0.08610117735655066 7.9526776582647445 6.001367128010548 -1.6257455527665936 1.3720686877995854 -2.118743013978938
P 6.545110345202984 0.7651005542903377 11.522857407853085 0.5495990117564729 1.6199729119488744 -2.542540004936221
P 3.8234900309793476 4.046683649110921 10.930163239501812 0.22535307832165058 -1.2585660531930392 -0.9812980311696519
P 7.404403477360599 5.355130386856684 7.660943334103118 -0.2354426013471687 -0.11967996706185194 -2.289801335512766
Ni 6.481456278940711 7.989945524088238 1.1662388113684328 0.060950314431127285 -0.36719158375841277 -0.44024948008635145
Ni 2.0336582683006816 1.8026250719823167 7.780418321857905 0.23336900664759166 -0.23268303632416054 0.2288235533687543
Ni 3.2362477240353487 2.1239926340661843 9.980146979377869 -0.13148081635152195 0.7109539899596078 -0.8608207650174853
Ni 5.039286372827051 2.756994917319721 12.682754708144277 -1.5945192477624603 0.4703897511151576 -0.8200016741185944
Ni 1.2287091288962866 3.649502862568855 2.1037797568021626 -0.7120055711525738 -0.04198560040316641 -0.37658485204785463
Ni 4.9738401403907755 -0.2535621037149442 10.074440653798554 0.3346409035159011 0.8255123195241783 0.1416472153615625
Ni 6.734105756496278 2.4343682436161687 4.585906931306563 -0.5827621287720027 1.0738402614744476 -0.1164671165515091
Ni 0.9061045126225686 3.1188746255318147 10.145410434289063 -0.9961384386165941 0.10152000832337355 -0.3674134699612317
Ni 8.056834680059477 1.7342378489015244 9.527064394100565 0.49932700297479815 -0.5620578063451159 0.2740590281677861
Ni 6.500710577066536 3.196516778547072 7.174972201883921 0.3150336708079349 -0.041574481007676786 -0.7536170760457731
Ni 3.35703053356737 3.024046058437659 1.028277859293701 -0.4314254540368183 1.5547491669533742 0.13967363657495946
Ni 5.304784303260853 8.638921062779808 4.868076602456474 2.0271978574800893 -0.7371121364122144 0.24692900472021342
Ni 8.103044995561458 6.592019145983035 11.373170174642917 -0.2869687942509187 -1.9954642738222343 -0.4728415550897599
Ni 7.670213888050382 8.831565140591458 12.895541814692141 0.9673832208607728 -0.08473764665871213 -0.13631731850821685
Ni 9.055631865320622 3.3132832977301745 13.145710750450974 0.10568930920971477 0.11036383186724863 0.127152107069181
Ni 2.124691119344257 2.6514684967561326 12.133441070859211 0.44873514895985944 0.03883651325122344 0.17942931920634259
Ni 1.126353463871319 9.295552367742888 13.481362336471431 -0.60148335933059 0.45281548967682017 0.8291581438068817
Ni 7.9327892090311956 3.54576860817927 2.0113958881812617 -0.5984494576002726 0.5688565744345041 -1.7904506783888843
Ni 7.248935359414802 6.885401343965167 9.095638528681823 -0.5160587139071823 0.12323400296169745 -0.704790027240741
Ni 8.088836334510134 8.525205821390392 10.403649632188365 0.26109655446984714 3.2033505412722185 -0.4751969426958138
Ni 1.8907445041686672 7.108254910053468 4.739991864589862 1.0064087101943509 -0.7450198212950653 -0.636898248494774
Ni 2.793040433906586 8.81241193901904 8.789202927535914 -0.5650297444892464 0.33167873556378363 0.3821672312316386
Ni 2.221559998698047 4.466877687446336 8.411488741881824 0.6064203916208911 -0.11356279842052054 0.6888124208655622
Ni 1.9512829584669038 7.8374000155954295 2.078236333994953 -0.04608959526921095 -0.9590351060063934 0.31367869944193716
P 4.2030156830585454 7.4344567255092615 0.42714580497139226 -0.5012748707297883 -0.5656542654471226 -1.1022656066946759
P 6.665029238733177 7.409770785286844 3.4729542751189024 0.44894237987465907 0.8416645038040086 0.5446056723069395
P 1.9155866845190745 1.848908912250408 3.5854885249526296 -0.5604840341000928 1.0560916792417747 -1.3428311310907066
P 1.7844001205820732 4.457034559382967 -0.1822522711811629 -0.5698896436847087 -0.1338796556010017 1.7153749802999683
P 4.705428791099748 1.5750751114585517 8.446314666410792 0.03922397849762922 -1.3255476614199109 -1.5271594302605633
P 5.03086778710712 4.082839452846956 5.0307170613365875 -0.11419914645293881 -0.3431368568020542 0.20841593624667976
P 3.052454189944543 1.179594585132847 0.04033660574913168 0.3972354384186707 -0.7127568474963015 -1.4779544292908222
P 4.973784996816192 1.2043448595256132 3.655704676590481 -0.22269584320446165 0.560708491406073 -0.24830994422814012
Ni 5.045444071989008 9.284523652825948 12.830988908164139 -1.4079769716604202 -0.17452802524998332 -0.21170103475585478
Ni 4.387250365746029 5.642501935209085 1.7099645664289158 1.1106741424733453 -0.7358222139561973 0.04595358391197892
Ni 2.816972745276346 0.27884543266202916 11.317078130575359 -0.5549695320397668 -0.08921985079978181 1.1161899300852518
Ni 6.92782513401233 0.10181617705361376 8.493353973650693 -1.029455821821801 0.18296535738405909 -0.9365230409468064
Ni 4.029965955415993 3.2600973200432315 7.1488497715435715 0.2088810488085564 0.25548897847508256 0.18784762517702489
Ni 8.927579294539184 1.3992590144909998 11.689627201410017 0.3710652077812061 -0.22268812989497777 0.14460475532798966
Ni 0.8061301309600839 1.5707003878748322 5.485547697928229 0.5525421535451968 0.4299524690357176 1.9421097694604936
Ni 3.0854760005250146 0.6490536587555659 2.124589103731276 -1.9045791195048878 1.3692402172118547 -0.5227191566464933
Ni 2.948968081640589 5.22672857343621 6.124958583608083 0.7853280339958089 0.8888043947146047 -0.7864598336074069
Ni 2.1155832389420177 8.825196057726926 6.36047862877849 0.4944118250613678 1.5187562937985326 0.5222082784483458
Ni 3.5845345411123137 7.210509478525029 11.632337622714395 -0.5186159331113972 0.35592166727154834 -0.7091490755403851
Ni 9.077919060048606 2.9814844094540347 7.570643892601519 -0.21208258646498956 -0.037729139119657605 -0.31274230367059686
Ni 5.305381691985521 5.718223253709642 6.689781351245097 -0.055865957929684434 0.3623468540716017 -0.9102178273933742
Ni 0.017351844802652283 9.31696645587328 7.843276482527005 0.39718633034829015 0.23475123170709894 -0.15852265096066245
Ni 5.69473209093656 2.639575865837366 9.983442727018883 0.33801007709845016 -0.6831901895827782 0.9653237672285826
Ni 8.844091922617949 2.046074763178003 3.4811734249107524 0.36460402553689464 0.31093481814821294 -0.4824047732981628
Ni 7.7651435516979435 0.07108006763967838 4.6189167941125415 -0.19953226060380472 -1.0126593190897526 0.6250506051275687
Ni 0.2309320997649597 6.001808276607226 1.867197278761424 0.4987418198952895 -0.687038616794591 -0.7413094623230136
Ni 2.0420676634248482 5.304655634920155 11.121454461616985 -0.2738926777932509 -0.11947762124305875 -0.4323423094241329
Ni 7.031541007210386 7.556075879255817 6.501018462024634 2.35979062021771 -0.660703835554804 -0.2520370153707401
Ni 7.700340660965157 5.367988030330683 13.207815282267415 -0.9187196942167986 -0.9522047133481212 0.7046074789162897
Ni 4.764524321863019 6.433279175945211 4.207963899817947 -0.728223575673333 -1.8809334550614893 -0.04763457115882763
Ni 0.921053935692481 7.880954248921578 11.534304294877291 1.1078055626762984 -0.03460833410248878 -1.5840885393474395
Ni 3.8966839356447727 5.031024027235109 12.907756116462652 -0.06410634356160573 0.23684153857722434 0.013227554433867543
P 1.6673486929302832 3.5901040421453687 6.475985117282332 0.26146859309728515 -1.4494226403997166 0.03424503722579909
P 8.63802957499069 1.4813494158560898 1.2010105113823917 1.3142381499443623 -0.4295408354195957 0.06394127873865117
P 8.11097647970589 4.098362369092549 11.139735475651387 1.0164617235549782 0.5084724169194921 1.6957456361048149
P 1.69640935673642 6.893323637513835 9.504022651460346 1.263250346042586 0.4160883094591157 1.0309398625664956
P 8.539000905632331 4.430703502518773 3.828917996837635 0.47980487378147046 0.20626186601815444 0.08090207496270582
P 3.759229385396644 7.393328809464839 5.9802756297914765 0.11369392468174613 0.2891981978020696 0.6346662738404618
P 6.028387479557051 4.226212746767176 0.7427683256431107 0.01589970194939197 0.5027727954315535 -2.2139041699638193
P 7.979909393513822 1.6151461089901005 6.189134675709758 -0.9631095331860832 0.21703864491868427 1.193741086297854
