# total energy = -340869.67569835397 ev
CRYSTAL
PRIMVEC
9.21049079790686 0.00000000000000 0.00000000000000

0.00000000000000 9.21049079790686 0.00000000000000

0.00000000000000 0.00000000000000 13.48048429341122

PRIMCOORD
 96 1
Ni 1.1688112711550813 8.42575690191228 6.324719629235884 0.06546542869266145 0.04486420750254209 -2.173807044832617
Ni 7.7952435498382675 1.3839867551324259 0.5747475150185712 -1.3790150372104313 -0.2804842149678395 0.7581311618660428
Ni 6.339138652443081 4.659430672070496 2.66033326847913 -1.3337219697005869 0.4572650408077415 1.2528054965601778
Ni 2.392563119397949 4.430559188406725 4.601401817447499 -0.12788024348445717 -1.4711078386826342 1.2005676223013837
Ni 4.269440074408964 0.33349621079089464 11.17960796677081 0.3773207017726147 -0.24854314328486873 1.7325982861567901
Ni 4.485343187152433 2.767881405357747 4.192147478465078 0.08030352214675847 0.24873931845607483 0.5950805411280397
Ni 4.0848157881181555 5.0660830474272185 8.425558876362006 1.126325475857357 -0.6905211760265527 -0.3930712797386521
Ni 4.458052503177393 4.620424243911774 10.970822721248371 -0.6854468468274388 0.1389691543087671 -0.2649899759869824
Ni 1.9286122813315676 6.021726721579832 6.908842502748615 -0.6343158324795786 -1.7857468451553118 -2.5104822051697284
Ni 2.7079671632863223 1.7129394308558594 0.19591174265645514 0.35587590163527744 -0.43214870535608796 0.8572495027264592
Ni 6.866964243586377 8.759959557340665 10.17888446688501 -1.5161700211285953 0.5097006328996383 0.5102973859433727
Ni 3.327400295035674 2.576275567108423 11.429482132401603 1.7251369447827385 -0.08121857776186013 -0.5939369144418998
Ni 2.006560664214038 4.702277874855472 11.624909403246688 2.0886022287295 -1.4903278632545107 1.5626581373878055
Ni 0.5892531168384463 1.5533953107695841 7.347160545167836 0.33853329659177184 -0.49483065776634133 0.5000916490549645
Ni 2.6749567645800982 6.706020128912114 10.162667555891137 1.82523256195476 -0.19603196076003013 1.0418706505463862
Ni 1.8985123976898435 8.764979274777856 11.384605858513117 1.3690232161050424 1.3387176231429654 0.08552414711574947
Ni 7.515769630211327 9.049141334176412 2.9949052645850043 -0.34223080004801704 0.8566278099820602 0.39067372604075296
Ni 2.8437205858675263 0.29094005951236873 8.026374366873311 0.44114910908248545 1.1371269373482351 -0.10776933166719506
Ni 6.100154049979245 4.45483804191945 12.684420702190026 0.396676223481091 -1.2560535711838303 0.5965743520647467
Ni 5.967799298470194 1.9906265152849734 10.58731630904699 0.8829980724454728 1.0111482817618649 -0.4204854100855468
Ni 1.213279520305095 7.9875585958722946 8.464018201372527 -0.8411711091073578 0.949648522585171 1.5778032205593602
Ni 5.750763295369341 6.929162687353991 12.372792959492935 -0.9808236626363946 0.7619762466437457 -0.2798188134696987
Ni 3.805958971368815 0.22019888561081946 3.8471685489054748 -0.6398557884612013 -0.37535149386138583 1.7178620083878802
Ni 4.28768605650635 2.0811472179871964 8.81116804359258 0.24799292720835353 0.6710065030323928 -0.12135606921269425
P 1.9161412769096293 1.4176695196605118 9.579730993581911 0.009366528816564513 1.6076655553364312 0.3959971951361954
P 6.5016485505381185 6.815735494254899 2.712354120011706 -0.15515810536380376 0.8410415255080289 0.6120253965124942
P 0.7490265781434113 0.5981025563130388 13.184870872843748 -0.8373316807566096 -0.2085205801453441 0.4549114529739004
P 7.857478835568723 2.3420988407954373 6.705987892194629 1.0643937713495668 -0.4244132843850433 0.12263519303543395
P 6.454481627609946 3.0192633283178387 1.322825412618807 -0.08528940539712408 -0.8080347315647052 -1.6728450773575576
P 7.934773273610752 3.2065402359332547 10.987781076744437 -0.7428284700707013 -1.1461641078498388 1.28738837674137
P 3.292916217815779 3.0910867348778646 6.284965309231475 0.9197000558521967 0.5571806807584727 0.35799886151555116
P 0.43103991265982994 5.803760458917224 0.8194674900478003 0.3500155861997584 2.399236227807842 -0.7579982358326043
Ni 4.000935849218161 8.729362307200578 0.08972399525577009 -0.5199829886622529 0.2571365413808345 0.3035639796054385
Ni 8.587244435538459 7.121072471796759 9.742845099867553 -0.42461768708636544 -2.2526339824338493 1.818201109029275
Ni 6.097796164357371 8.33572435521771 1.016390544584262 1.1581518763393346 -0.281808847316534 0.5452415061187255
Ni 4.3671725913374635 3.6611332154378267 1.8572199257367903 -0.45052489387043054 0.06899092534741666 0.559218794234424
Ni 4.452636734639654 6.02418592259952 0.6372600365194117 -1.001848601627494 -1.4525437025272014 -0.8886627269304179
Ni 6.872011592495699 2.7702853434331725 4.87957153158984 0.07734469662875067 -0.8379541448319568 -0.3760647178783265
Ni 1.2404412574101882 2.0787893323653233 11.713867085675352 -1.8075852811866417 0.5882352360714321 -0.6491223013647918
Ni 4.738382998440405 1.1227496071121612 6.305455887914994 0.07320804875255779 -0.012804865074152141 -0.8506654217510383
Ni 8.500969769053748 8.126093586648052 0.3386780328645893 0.3362686689273112 0.12946815679686735 -0.20587388655111644
Ni 6.6591387311959656 5.880520688498046 7.7084374380395655 -1.8257791784868491 -0.9069913500362766 1.176189964787968
Ni 6.632373045191421 5.210724593543998 10.230285452392774 2.111387859165448 -0.9455291011001586 0.6479719898104325
Ni 8.200716982384053 1.0373775687170748 11.786230226991009 -1.2632035519650504 0.40047965638758126 0.08074472344923513
Ni 2.1561850858051668 1.7391985398713292 5.075334985345857 -0.42558493609564124 0.07902722653749615 0.5655773894626002
Ni 0.4866371977352706 0.8615271958770333 1.9978346453149651 0.590800168585131 -1.7100911061932096 0.3472097413198472
Ni 5.492473504376417 3.333626586755932 6.785307717143883 -0.3032922140012905 0.051870720727362284 0.5788393966788289
Ni 8.772854244335285 6.710514848378811 7.264295602344132 0.02102571032204766 -0.31565947731739186 -0.5354615439138263
Ni 5.790967087320419 8.083393751714443 7.5380175705224 -1.0514287265484665 -0.9428875497122536 0.08311168101951492
Ni 7.97516127537604 2.185953391781315 9.072500980716233 0.5085858025689048 0.8717656940647631 0.11659310060641209
Ni 7.978983629020873 2.485524602138439 2.8234869798748274 -0.22613855033742344 -0.020055118878662237 -0.8215325089408239
Ni 0.3292160957577523 3.5533704741256558 5.914400557527335 -0.22023324059658203 0.18521532976050037 -1.0439583863133504
Ni 8.1321356685541 8.756349044982173 5.744856607676734 -0.46850770360109634 0.7097273166413584 0.5938752079660288
Ni 0.5944146758325779 2.803618109314262 0.9544205209862665 0.42608784387398874 -0.14683313043787616 -0.656389010229534
Ni 5.095786879968393 1.1079391380497705 1.9494933848212104 -0.15832004803155314 0.8378638991109958 -0.5368962194778238
Ni 5.12821701775986 7.773967316297146 5.0226666363163375 -0.7527567849280068 1.494735248293587 -0.3412365544555478
P 4.571157329101621 6.35327675568361 6.475566282944289 0.13188088000341805 -1.1719869824502138 0.3614981329180613
P 4.653618852432208 9.092587218857567 9.25460896094495 1.055658448359098 -1.1541095879491607 -2.3686429284020174
P 0.7867785374673708 3.3328436950455447 3.6668667459050766 -0.8721045654614206 -1.0028657300380985 -0.8555042379005783
P 5.744371214816294 0.8842660553429724 3.998689410533884 2.474092353686784 0.6477647588956329 0.9052465994310281
P 3.423226240387111 7.0764384338139585 12.271797165705726 -0.07317436730114495 -0.6475616417458911 -1.0147599103725233
P 7.616163978955145 4.941142740940073 6.137947456511401 1.1019650447351215 -1.192088124075463 0.14614047524622573
P 6.04024901839853 3.811733949044263 8.768542813633728 -0.8267292226504149 -1.0384783370353856 0.7262559104240008
P 7.698579449832179 6.428259360557317 11.805601731053208 1.949644387274642 -0.06852324168237876 -0.17421435066430643
Ni 4.349442396719863 7.326659834944533 2.4541085393741926 0.09916384938637116 1.5836681639805692 1.140445974419139
Ni 8.339298025613362 4.46569721046706 1.645508507315643 0.5726666922092136 -0.9853074094393611 0.5172591619731867
Ni 2.6804185855713905 6.761402809554002 4.496428933771521 -0.857862967940742 2.447558311951998 2.573737770695264
Ni 7.146032901622058 6.107319811751968 0.6366226705622491 0.27884796491599717 0.6778464087723616 -0.017851683469440223
Ni 5.224835065312396 2.0255895380218107 12.84036352040852 0.5168809526981614 -0.3122982741546428 1.5732495397504067
Ni 3.364196205423889 7.2323720415417405 8.044128508766759 2.3723579153597596 1.5741867068526953 0.12904726720936485
Ni 0.35870808701258733 4.077668447326853 8.136375257428119 -0.2635095347867139 0.27689469784436826 0.10027430884173053
Ni 8.672450685100756 6.976394083717138 2.8382348176003864 0.850806832424909 0.03158060301975851 -0.360102023901483
Ni 0.969081780099148 6.651512444887719 11.631501351448152 -3.029286343032531 -0.2334667085677205 0.3189520320257346
Ni 2.640472687360204 2.141844351769009 2.756853684830135 -1.4671933341195764 0.47645369792105036 -0.8151790559189702
Ni 1.4810376957483524 8.671824371732447 3.6966857095801324 -0.9691462262984665 0.19626953069213296 0.35383264595300357
Ni 9.018553294527033 4.316579365865006 12.774160355280006 -0.6899681317365601 0.29713570748159146 -0.3847031102796149
Ni 2.453287884651892 3.7316211008448383 9.505021940282303 -1.0735859793717961 -0.32955011925655503 -0.2200676615529952
Ni 2.1059510694704167 4.541932442077389 1.2515675301884022 1.2387338489584603 -0.5124709965559239 -0.13183331459493425
Ni 0.22521676094986823 0.20397736937158914 10.051264828650197 -1.3603915085719733 0.7057860726054231 -1.2947131925375572
Ni 0.01975097627947168 4.748754010980361 10.454641032461215 -0.13131369464603837 0.48500904369022924 -0.9889663463481871
Ni 8.996669168599023 1.3679789222776775 4.484983978014727 0.5479092827588757 -0.2592327617882309 0.9605908805292876
Ni 7.122831675522454 6.783609302656878 5.039193940847154 0.624641028393976 0.44891075530577523 -0.694568606623049
Ni 1.8915400562220388 6.794109262066781 2.08863903113107 0.5398954113154638 0.5265051060514867 0.9826640582792431
Ni 1.6756829959321218 7.732400371720922 -0.05105743420426381 0.20678739950432126 0.5424300048118593 1.9791565378011462
Ni 5.740005442219544 4.850898352959163 5.01562982141356 -1.460316147383769 1.1431502607241797 -0.08751726628637832
Ni 8.246041807170137 4.90252315339119 4.075838322822688 1.2697464952898905 -1.340520223569343 -0.1283975494405079
Ni 6.724533215240103 0.8697650587684527 7.658680525123616 -0.33180934760437697 0.6999398982372913 0.390903582663372
Ni 5.182098388415945 6.8000776600471475 10.1365696304631 -1.820812578510193 2.2497556324447903 -1.577793193257031
P 1.1977506329672898 5.97168612555 8.884164866669117 -0.9533146585828485 -2.5099510152566062 0.507134414834359
P 0.1601575387675906 6.713821414543859 5.049182718022629 1.4523588402099052 0.9839005017895055 -0.289436796175437
P 6.143949933307396 -0.11125167519328602 12.496394981679853 0.837900408775886 1.446142169876232 -0.5927868599978566
P 3.533632392533179 5.5118615873218975 3.2336982888420636 1.548992724085571 -2.46434658715393 -3.316131210111076
P 3.755153904610018 3.7697525323860686 13.315941681947761 -0.39000652477039927 0.6868049035172301 -1.9901390049545788
P 3.074480220126938 9.145105436888507 5.929633788113335 -0.1683218964392714 -1.4875143050651156 -1.4150639604141888
P 2.8855822661464843 9.229280111491235 2.0239869126381937 -1.046346941150185 -0.1846741125450497 -1.9498289924816226
P 8.053128079239931 8.550061684540404 8.370922245467664 0.3483356273941743 0.7771154162780293 -1.8228476066623507
