# total energy = -381163.4660009624 ev
CRYSTAL
PRIMVEC
9.31734602035459 0.00000000000000 0.00000000000000

0.00000000000000 9.31734602035459 0.00000000000000

0.00000000000000 0.00000000000000 13.63687771256205

PRIMCOORD
 96 1
Ni 4.8741365616927865 4.9917028319636385 9.21076941578373 0.7979058706608194 -1.1037272788418668 2.785730882770241
Ni 4.048629034372511 0.8740611484177901 12.566655647700717 -0.2129534191057171 -1.9663285327985427 -0.6857571789790061
Ni 2.2648324836446307 2.128510396124197 0.41480637495675127 2.2623296124550585 0.3054115743371385 1.7795407163445998
Ni 5.274176806904313 6.981701564286402 0.8519166124728913 -0.4663762590803904 0.5305839041065508 1.2132300482604008
Ni 6.231543413070136 8.130912322051277 4.714063627798329 -1.0996001440473708 1.2701987523359608 -2.031428607731985
Ni 3.1015115086709417 6.583850895355875 6.208842631576404 -0.7453862034955485 -2.0778424191098344 1.8095845710048577
Ni 0.9243235707490719 4.95103261721231 8.231328153767084 -1.1623000941797532 -0.5510277737831994 -0.3276030228325132
Ni 1.2638700161222296 3.110763633126399 10.455080459441815 0.18182121647728686 0.3457915208160819 -0.7621932477505583
Ni 8.801528291519068 5.202479830383929 12.812351263262716 0.4409794162738405 -0.0811499293074538 -1.3557923192370651
Ni 7.171710198747766 1.2141806105623587 9.522481222085155 0.932606993721852 -0.5195088772393117 0.4190507345215493
Ni 6.041162084773707 0.3551930643037208 0.714629247919642 -2.045700544269967 -0.6672876594199089 -0.45118978114793906
Ni 1.1579876975806254 6.89873059925534 12.713142959572515 0.4109047083756472 -0.6403448122824777 0.18510605787614573
Ni 3.1114810687588963 8.208386053015149 4.7705612179902275 0.1334374258572605 1.0361666581830735 -1.2136187990583875
Ni 9.5715230721066 3.369301346510105 14.094939827251022 -0.5720231450879438 -1.2857017330675664 -1.2899929042437526
Ni 1.9025554412709362 4.316074130414241 1.5307663204918278 0.6781338581057934 0.007753932913806002 0.6482728088803029
Ni 7.305404794731001 3.639923657495753 10.319011803729225 -0.9004646046613524 2.382136077792446 -1.5148248199546104
Ni 7.458032237535473 7.916315211821584 1.2538920704229861 1.3281665870999966 -0.06250428918180849 -0.10206662485546293
Ni 2.8086300583861132 8.074383984617986 10.030318500415925 -0.3283159897391378 0.295859154762013 1.0064681026773763
Ni 3.0378181322585514 2.0039374817541464 6.769414224099516 -0.6557508624249029 0.03988732311324098 0.35610447270631573
Ni 1.7429399890590194 4.633497469738016 12.130561932619711 -1.3327272098874854 0.7438062606029384 0.9467069234583437
Ni 7.718125947680571 8.2034292250088 12.396998891837596 -0.9223326083790374 0.774367421219247 1.7458790624260963
Ni 4.716319357235053 2.48422802700077 0.1378920603006402 0.4073303607608275 1.6128607263841257 1.4140977398461776
Ni 3.8319541560123374 4.696678392127194 13.406496048182955 -0.10484495893154848 -0.826491652718312 -0.03479859573642394
Ni 6.7838384072510705 3.6052910828724563 13.140890196217265 0.23287792594378603 2.290249993014411 -3.350436668261165
P 4.735932370305281 4.161331650095782 3.283787677789321 -0.7137284673809514 2.1283345143221153 0.20669458268019886
Ni 8.451876252808157 2.475879685095342 11.623596757862991 0.35595457739201275 -0.07964531973746929 0.33314606413792947
P 5.3405722136209155 4.713608009584964 11.568190228873243 0.41656627753679876 0.13062181078533633 0.030794102562721158
Ni 6.798298928051543 6.611476825879974 10.903801973389367 -0.009361386610241941 -1.0101661203542536 -0.754000684637437
P 6.754507402431555 3.305934077203395 8.013820304685543 -0.0014855834065909898 0.44590153616580624 0.5668837669788495
P 1.3847998482545323 7.872178944404161 6.424305323238032 0.8347839746340914 1.3633462203249231 -1.4353705331820246
P 3.7453960128187873 0.7288456542581478 1.213747353979097 0.4451728855298978 -0.2321711296847485 0.09942893012229972
Ni 9.015454552845647 2.671059446518215 8.595528296329707 -0.42106570806904897 0.7332099731443309 0.7255833098370085
Ni 5.393075457635518 2.420357621016724 10.34593054770129 -1.2935459117023336 1.0526284032835227 1.8305524315057762
Ni 2.3460424703050164 5.763747428644024 9.835421054573112 0.3551009711424659 -0.033716161305522574 1.6929701302422069
Ni 7.50915651436034 1.4149507795111875 7.151219491695962 -0.22479026383964512 0.0565455004952123 -0.09474900814812715
Ni 2.5342155876286916 2.738768599003418 3.3263483820190105 0.14152071708602723 0.4646723890154062 0.8533519674442659
Ni 4.750057466654196 7.222023866481369 9.050182164396885 0.4365807729855126 1.4039362259321435 -0.9215898166757418
Ni 8.400649485178649 4.247190992348587 6.698843714695612 0.4255851932059574 -0.1638576900203307 0.9667694985361738
Ni 4.818102043590955 1.5499591212630222 8.424262434833699 1.3476509210768535 -2.130276211429518 -1.2525350165076106
Ni 8.14859664452505 4.68481741082629 1.2620857443868623 -2.593138543819379 1.211690728797739 1.6300405805975218
Ni 1.8153264491742716 3.923357319061716 6.016331358012587 0.8061459991824246 0.7222077084965561 0.07509472425230938
Ni 0.30609531020701314 6.542444610280295 1.2219941368144696 -0.559178685025108 -0.3521128350484194 0.2215984963752248
Ni 2.0231964356810646 8.86262212843189 12.261475300858786 -0.5942544456823184 2.0076330479742843 -1.50640574265298
Ni 6.984124074214316 4.24431193247272 3.3617626819613537 0.31882347686767026 0.4374544338397176 -2.6480511366968584
Ni 9.355453821228407 9.533228780553802 8.101804933532799 -1.246243527071944 -0.46493052777279925 -0.0629038386130723
Ni 0.6192000597169873 5.774294664176327 5.5650867068016545 -0.6686624282802485 1.4901561135633368 -0.6917522202201765
Ni 8.830216399473098 8.33226948379033 5.347332879788971 1.340312478433911 -0.3369163298136391 -0.24369687093616094
Ni 7.420585824457445 8.1313409199616 9.176909249133603 -0.08521638606734355 0.08706603768157263 -0.10338328678435742
Ni 9.880579434833194 0.845867791529807 10.441293582748221 0.01962754442294039 -0.2243104959897492 -0.3919749613506797
Ni 5.286205500430995 8.07084339318488 11.977447192625895 0.36056713646335964 1.7086050085659865 -0.21246105285033087
Ni 0.8301876301540884 8.968849188770928 0.9966960548455092 0.3747742812016771 0.044413493118368674 -0.9546380053799622
Ni 3.1923090442383417 1.1406201648666556 10.496795148665912 -0.5381712295355054 -0.2865345349269775 -1.1017403303188251
Ni 2.0551456146919023 7.476797372130931 2.4403600991445935 0.6513573613428976 -0.8825640702318478 0.9753328147251525
Ni 8.22555792146571 0.8683058238698186 0.1749723016857179 0.8462094428622137 0.28721896258851176 0.1334338263128347
Ni 6.7368603493412875 6.085736267447329 13.186506058159889 0.16008819567556945 -0.6358626081414082 -0.46344160193209866
Ni 6.683546496235422 3.6983713681796218 5.307445322091277 -0.2236715768541696 -0.756811928833987 2.024295853341946
P 1.6127487151253832 1.6420983546366519 8.609765200829141 0.4312400774988896 1.7139102228289838 0.47814676935275724
Ni 6.482776327286593 6.583021651572858 2.9782942681259357 0.8672217834478226 -0.2649894617663501 -0.27698777177880685
P 0.29503096197855877 2.2911167163625 4.215335918531103 0.181801418982945 1.0395893107113774 0.20169841501718813
Ni 6.789326323972383 2.495203860443396 1.236016742358742 1.3978987614888119 -0.9981973780281518 3.095008367820689
P -0.35614902399065923 5.557852719463068 10.675315495661435 0.24944688604606072 0.15019716181410261 -0.9797201451595708
P 7.249500719471442 0.8165069712034867 5.175958937080794 -0.7707455081959437 -1.0288757809486153 -1.294920680562673
P 5.25597071306145 6.989919463349557 6.49700391444015 1.1174469424208044 2.1610705711025555 0.6425343637346289
Ni 7.140562311482315 8.175607630221295 6.677188339409234 -0.8516833214925914 0.6948876805253645 4.052788775484375
Ni 5.549877071392705 4.69031464489348 1.258487385409322 0.45341738492687716 -0.46090520866349005 1.556296971056468
Ni -0.019800291722348082 7.189497012026182 7.683453308470004 -1.6420507176845205 -1.2071252209142436 1.2217116033688509
Ni 2.3400700515981203 0.350679741961099 2.9951223265136506 0.9594071446338317 0.653331711460449 -2.270856676089463
Ni 5.341392140058056 2.070146541553217 6.167686983104904 0.7895127615011177 -0.9980135441521198 -0.45535188294542867
Ni 0.8499040657635472 1.8059811512600485 12.565346560605054 1.3103583552739821 -2.0951423438408625 -0.836964784335494
Ni 9.560435430513456 4.422077574452241 3.2348035953123078 -0.08977700885483247 -0.5406852542066107 0.8938514702202088
Ni 4.667524416879334 6.3033894671245445 4.566363197493399 0.5088814794324527 -1.0021373365125064 -1.6734737120804921
Ni 7.294680529627042 6.076661172563528 5.569409955288394 -0.040498988555310894 -0.33334635307419364 -0.6399704596621946
Ni 6.532083721665523 1.5349954637852137 12.130043888188975 -0.6990505536538025 -1.9979998957598943 0.5857865174206234
Ni 4.191538485427697 3.8825939308516215 5.36414789389246 -1.140687915226616 0.2859922892702623 -0.9508353438044206
Ni 2.3975114889273175 9.160274059805532 7.952317436288739 1.112799159236148 -1.30481968484394 -0.39007980121049596
Ni 3.475174347705833 3.1130370655202877 9.067446274571623 -2.7357470946529467 1.2878455188834466 -0.47843730400998247
Ni 3.3944581803769065 8.005808318966261 13.847022024697454 -0.6227160434571211 0.9778758928619804 0.2892678746977405
Ni -0.030113661873149032 8.039574380423034 10.94919887770389 0.8601612770566153 -1.4632443767741574 -1.5658463053078
Ni 3.4499522924178954 3.439209392622183 11.46527268978957 1.3844740034424736 -0.9006877764157522 -0.22953343495158535
Ni 7.073784893584772 0.43461132535203767 2.884077266621826 -0.24491994470998463 0.5213215049680183 0.7287820192799642
Ni 0.534211889303643 2.1179538432460165 6.409714359595287 -1.2449304646874753 0.20539668980438175 0.9726025602781831
Ni 5.049367885593874 2.186007737528653 2.8995002692513507 -0.22781028161289155 -2.0161408283349793 0.11264157215783181
Ni 4.513490054847496 8.58125691765053 2.750830834975255 0.6939831664332241 -0.20294437160914727 -0.2426424615297176
Ni 1.4679198908196194 0.6478238779844692 4.984878807843622 0.016192807709778566 -0.9669898420770958 1.4532129606800843
Ni 5.389609404969425 4.962502269986396 7.058406614215455 0.6411295129673023 -0.6023547061919496 -0.8771940641691861
Ni 3.7314386286956505 6.455178348800124 11.932745362313764 -0.857201423097343 -0.2673145103551009 -1.1165401143358191
Ni 7.442528173996822 5.591227452393024 8.807554750832049 0.5293644298771528 -0.03762706632415456 -0.6576097700105126
Ni 0.521202079256156 1.7675750515567314 2.190914251867267 -0.771234017796588 0.519293418794396 -0.5574881846965624
P 3.661129936710879 1.2172087479722513 4.761561593608025 0.4240487019567729 -0.2725837291738402 -0.1837181763896836
Ni 4.3807178761060435 9.260864125889233 6.636645772296415 0.7080141906049935 -1.5744772415099206 -0.3085004976751074
P 8.85835478402041 6.524723018423015 3.357794424352513 -0.6934758877795025 0.6381750583246687 0.3869098881229466
Ni -0.06864834094956294 8.97740251228564 3.2397399251577266 0.32045381338224166 -0.9457846687543906 -1.3261855521142256
P 5.408393174256638 9.180101371830924 9.828179613357825 -0.23470263785735063 -0.1959342588399013 0.773813605598306
P 3.0917282955005185 5.216781956304499 7.9222894939976545 -0.06135552028934595 -0.9302850304568946 -0.11298712842270864
P 2.8305258211961064 6.0561630116350225 0.9752782718789844 -0.18832944990944986 1.725099406676584 -0.12343917699396806
Ni 2.491448970055129 5.24995170762517 4.005246540236506 0.43763698216416885 -0.004304798022940973 -0.6131178582457247
