# total energy = -381166.4269938199 ev
CRYSTAL
PRIMVEC
9.31465129228368 0.00000000000000 0.00000000000000
0.00000000000000 9.31465129228368 0.00000000000000
0.00000000000000 0.00000000000000 13.63293370563290
PRIMCOORD
 96 1
Ni 1.828643029791341 7.443635927664738 13.57887911348089 0.13748485645375677 -0.5563329880461967 0.06196461462825457
Ni 2.0838458462799294 7.2910712539197 9.13594692654244 -0.6141946362496712 -0.46192362262567543 -0.2815424810290248
Ni 3.8278093810461677 4.512929928574642 2.246067019034156 -0.9673495394093599 -0.2678683259760419 -0.09260419389098244
Ni 1.2184961106268586 6.585588878635767 5.768639934100223 2.209340718962853 -0.2819937096338304 1.032628563122828
Ni 2.357417155144439 0.28323246519935036 8.511230961269854 -1.9726405910594993 0.6638768339661469 0.37729267674815664
Ni 4.514178091849679 7.036110618365074 11.410724495297845 0.34896580477900546 0.24878868363677153 0.8341216584597441
Ni 0.8876583255315351 4.233099174032334 7.432634393006929 0.5821836305607135 -0.535795015993845 0.1569995294479167
Ni 6.877370330803992 2.283300474700622 1.609203816993093 0.9177300766100195 0.15415331824837322 0.01687903514352577
Ni 5.441041784729213 0.7093908029720345 2.954284175941603 -1.2151825440010813 0.15550057630488706 1.122038675556545
Ni 5.564824185937946 5.01782128797852 6.516460193966446 0.23736450096022993 -0.0458643666322823 -0.44096244699297604
Ni 5.5656718192068135 9.011105449480187 7.848875421533851 0.10728827826571843 1.3184874121390195 0.5363087224054699
Ni 7.755555655957073 0.17901176319886986 6.110457830155352 -0.976925356023253 -0.14385245054299742 2.6622824498048923
Ni 4.451592949722997 6.8124472111994425 8.361091822724962 0.5790296583127641 -1.1942010566534078 -0.7442950273138988
Ni 7.413372625570739 8.858810900623029 11.325232762678839 -2.6309828683606624 -0.21168792212973223 0.036556973188427364
Ni 4.654792067968802 7.427586783464074 2.9280131333974606 1.5096520175044192 0.6083420341236362 1.2133195226504139
Ni 2.2601256222506767 -0.4709972062307016 4.54603792517757 0.9528454322559139 0.2527939481414227 -0.661881400802673
Ni 1.2521872044015585 0.22726910868628053 14.034423313194525 -1.780796700238888 1.6470512562229054 -1.0248561182662608
Ni 7.463746259834929 4.758017033744645 7.868166064389091 0.4092293775557532 -0.5918350376075484 -1.5987960207609433
Ni 6.280301182073482 2.680765960589539 10.420374002045184 0.3790438551113085 -0.10662287676757766 -0.40561106407687564
Ni 6.090859803807006 7.564139571613673 6.244483553405566 -0.29374467952217154 -0.28821937882856813 0.6600209505551665
Ni 5.214444262402113 4.538806029903399 8.789902041724535 0.06799770819621193 -1.0139466704426086 1.0210907376865574
Ni 9.048187076330361 1.0481031942816603 11.285274771505295 0.7651294475607467 1.447121503070366 -0.5078327264529642
Ni 1.7781855636653945 8.893647696508397 11.265970156673093 -0.1545839780278886 -1.3074049290726129 -1.3483569460049425
Ni 8.908169237894839 0.17388684205017207 8.19708782571072 0.9189505792806819 0.6843057912444602 1.0417266687693543
P 3.513234977131553 4.54925706866901 7.1212716808627095 -0.08828319791812538 0.6827093932916178 0.5690370658764264
Ni 3.3910919545527207 9.045048038840156 12.77484959030711 1.3142242659872914 0.6579496698484345 0.5530406904481701
P 8.682270314415707 7.5071432202707395 5.614423772678586 -1.7763592332928246 0.9917603641535564 0.04985626140049478
Ni 7.100074328885081 8.70483039987944 2.043385795400979 -0.7457209611271479 1.504119003501332 -1.9083416718711135
P 7.291415896018031 4.0608340127745794 4.820564917266101 -1.4182557278786092 0.18950110162004782 0.6525002166980892
P 5.836765430823862 7.835568510677745 9.911919788516668 2.9446466554042643 0.04954952879335337 -0.6277908868768671
P 7.256430065711763 6.727562793845602 2.5119360427335296 -0.8460418069360978 -2.3318023625349 1.3964962247143304
Ni 3.265604972154945 2.5221933367519696 4.259187649410873 0.046836757847880627 0.07114345291404522 0.7058295242488489
Ni 0.4247080465643012 4.920930285090925 9.748883583773143 -0.044844410008200185 0.9300978541467531 -1.0855768331850852
Ni 5.4811693025565305 6.144065092068296 -0.02602513574965748 -0.3242485045379835 0.524457993714471 0.009941684593744168
Ni 1.0167314486822163 2.3803311973578096 4.9638326375423745 -0.34919848961510186 0.6591714580706777 2.3853584413844855
Ni 0.024709906985215233 6.302544569392802 3.7268217945140862 -0.47990951768013473 1.0044605853290443 -0.5131705937261097
Ni 1.5383146632268907 4.083170546606962 3.2039578154148023 0.44111311363822736 -0.19333538776447348 -0.6664250543092974
Ni 3.9665045389962037 8.628990508943968 9.590196389724506 -1.118436045806951 0.8992854967515868 1.7715157891575943
Ni 8.643735601961758 7.089129613600239 1.0443559100611568 1.145218198996802 0.7126753435260887 -1.7525181650091688
Ni 7.281030059811564 4.440657549089463 13.759720274196306 1.310962050296252 -0.4117855683187038 -1.8873131333355884
Ni 6.1166520732740075 4.805652160524798 1.944983024606381 0.5995951411689416 1.0184684695723623 1.9496024782931132
Ni 1.0432595756024112 8.6536370763003 6.707117134228387 -0.019749928933417597 -0.3997854585340341 -0.274840643528817
Ni 6.190927102790031 2.277786201127323 7.646276166832169 -0.4663968279056806 0.16552556464105686 0.6617747000214796
Ni 8.693196400397936 3.3040465380958315 3.4593841835347408 -0.2700463074639672 -1.9576448889816156 0.3344938364150755
Ni 4.886726885494382 3.855995515898875 0.10478051254398604 0.6683286990899134 -1.1463196595910967 0.39825925169749476
Ni 9.27347123282328 7.956305020909334 10.287616002837751 -0.18959777509891218 -1.4152071708602725 -1.1122844243832586
Ni 7.158821834673588 0.8458634851203993 9.340331799899529 -0.9666003199481611 -0.6239483732023254 0.35719127801259126
Ni 3.0866984645158357 0.472488481904832 6.402788846750647 0.9897142802578052 -0.37126652515873476 -0.4657445390336624
Ni 7.191143674706269 1.9624479958055965 4.699722220009621 0.3650467695012681 -1.107394186170493 -0.7135952842371968
Ni 7.6489401571057565 7.162063333328162 8.205444930862686 -0.23930774072952976 1.5237285502021436 -0.6802737872669317
Ni 2.695427221745574 2.15720803996794 0.2569716687716448 -0.7029298341035507 1.344325456248046 -0.45755043325864425
Ni 4.156681774715873 2.7908371950754742 11.76188219221775 -0.8516000177501656 -0.44017054721929993 -0.3946697345740235
Ni 0.527371338866377 5.52429613810446 13.151541540852833 -1.8846558982183994 0.3940495844915214 -1.6395210092841312
Ni 3.707724896406016 6.800421996363076 6.016009128840257 0.12585627107589292 0.48281100759764595 0.7856165117705051
Ni 2.08213195043958 6.342560311404445 11.417458988192262 -0.23912107864002047 -0.0676017583093739 -0.7130124151505333
Ni 7.58527451542755 5.648795767463773 9.829986252696646 -0.9042860352899716 -0.2937531641626038 1.628675581929195
P 4.544981643719442 8.996481446929376 4.93505409086659 0.4348092829073866 -1.149908919604252 -0.334284805728063
Ni 6.4236164070714175 6.111873657153902 4.525438573813803 1.2128806353407822 -0.8514046139099078 -1.296248141124845
P 3.7033563249433854 6.916408034428478 1.191346696464537 -0.8492744549407826 0.03848015835306921 -1.144302372050752
Ni 1.6138751146231762 3.828638385012424 11.315784911858911 1.9494181301964488 -0.2756235444414285 1.803495170277668
P 1.8245445832165919 1.5220233380922625 11.853317603835274 0.3849908167233627 2.308502768577011 0.44464838048499555
P 9.075376543493299 8.201783341434199 12.549769424677798 0.7696422478294358 -0.27720554421656773 0.5120148828551118
P 1.1054348730716181 1.5265875172323244 7.094701638011636 -0.6298189730504895 1.0189253546041228 0.26665502239423106
Ni 1.5258330304765182 1.5575587328255995 2.9419189763325586 -0.40639936430612594 -0.4236900330657736 -1.6728083105823512
Ni 9.209693815329398 2.407380944751154 13.453674365017692 0.82100877522687 1.1086015762150327 -0.020769628447183584
Ni 8.287599223918663 2.5983312965292424 6.742522123843437 1.1819446078835578 -0.05170205635998193 -1.5796348744514601
Ni 5.076997267727114 1.659544849977711 5.568222170734464 0.32533479562362677 -0.341796797834392 0.20852289413818925
Ni 1.4775551927562336 6.014321314023565 1.8316116091626422 2.19815307777715 1.2318358362870463 0.10438833101010409
Ni 2.9085557582838386 5.171540978485533 13.661835398014334 0.5797796491049112 -0.3965065306724462 -1.3305116902934053
Ni 8.933430572237382 4.822390588922126 1.9643425958812875 -2.018202338849698 -0.052899419102192764 -1.920973758812827
Ni 6.882474759719816 8.486113072557426 4.272506669313678 -0.19861283411332892 -0.17332911984587568 -0.2890344185306958
Ni 9.375010246712693 9.534383930562598 4.563474952422867 -0.37263743736433247 -0.12050991916231503 -1.7678928476930262
Ni 8.652137417439993 3.78487815317567 11.440103836982882 -1.7641416081807104 -0.01190986406370852 0.20441735661024796
Ni 3.3306305529238642 9.388609637619815 1.5683329899915368 -0.8233875598716917 -2.241538900961953 1.091680374979662
Ni 5.218654484792537 0.40832543784687186 11.375292493194006 -0.1359830750972497 0.5728993770453101 -0.22682117822674483
Ni 2.755264541736912 4.824262833834682 9.188543036608301 0.06815377415810198 0.009612583389099575 0.18061922574938571
Ni 7.54468126503492 6.62781219300699 11.848682633345284 0.07629362965641699 -1.1502045964677996 1.7352637488040954
Ni 7.856302924485454 0.5750558332984534 13.66428980863353 -0.3562253145548962 -0.7303673614892132 -0.4224044814851306
Ni 4.903483943194323 1.231266497567725 0.5787081080756333 2.042256808695741 2.1150647937964027 -1.500755486345738
Ni 3.710826675290997 2.343836393539929 7.395620763111292 -0.33377238486801875 2.1533868293050524 -0.8385457556693688
Ni 5.467178696294545 3.081538147692174 3.548693991724179 0.21882761849830698 0.8581972113517091 -0.19348374041687968
Ni 1.3903141686219131 2.3398310934782423 9.579535771304506 -0.021637632874433703 -0.49254571838690664 -0.6444287525438643
Ni 1.2281460893801317 8.54156319178352 2.4625441727170174 -1.0903128052081739 -1.4294564816904352 0.21190363768496406
Ni 4.31694966509118 5.188847600612543 4.420888133157081 1.2625080685599226 -0.7146409518928918 -0.7710244728889432
Ni 2.6164669226225077 6.720232163267585 3.9875239811338834 -0.6231654722897139 -0.9984465179244806 -2.234385577746623
Ni 3.9466922756678136 1.7423986733467889 9.439197508864048 0.9827998125261591 -0.16940458798048888 2.018458934945195
Ni 5.710319039341543 8.56964686547186 13.48383054862167 0.3380031351199147 -1.3142803160362075 -0.12048755056481184
Ni 8.378445018108502 2.937673358267171 8.90985798417666 0.2654175504427042 -0.18979240760822153 2.0068015532119245
P 1.164350042583638 3.9767506554330767 0.6451569675641468 0.6134852688874726 -1.4375035203646276 1.3752527419545217
Ni 8.807813184721319 5.253789349519705 5.744004544325458 -1.8501858894659877 -1.3663742085179695 0.6782187045101159
P 3.8145453175860706 5.001781458429161 11.254313802028456 -0.42469456307088793 -1.1251959902386042 -0.2468351594548265
Ni 2.4009631500011492 4.523138786406291 5.245326057342848 -1.1061137767961724 0.21614107280507938 1.8841933567596838
P 3.6597637568301438 2.1087345945702247 2.244389450333901 0.7260054849760916 0.75766579219385 0.05429269990529359
P 6.366852922011141 1.9682696528720016 12.503526838267929 0.09825702130138562 0.30234090583161477 0.6763381996579513
P 8.706795791305058 0.8050988451437346 2.2718741919432475 0.8585949610107599 0.6635464472099217 -0.02744266959198499
Ni 5.93895647030471 4.610826913803311 11.59621459848021 0.05421376703824212 0.9123888669027642 0.14285820495052814
