# total energy = -340856.66913388175 ev
CRYSTAL
PRIMVEC
9.33967436556612 0.00000000000000 0.00000000000000

0.00000000000000 9.33967436556612 0.00000000000000

0.00000000000000 0.00000000000000 13.66955750276128

PRIMCOORD
 96 1
Ni 5.728115773053225 8.61626068013829 1.6730990178823177 -0.0500776333826815 -0.37913152972910835 0.5850511819164956
Ni 5.0595351733336456 1.652225779322378 12.44324834820696 -5.4086970514740145 -2.0567308339421997 1.2626559069916965
Ni 1.0201539672580875 3.173397245935877 2.490442887147101 -1.4972708702312472 -2.1272181413294846 3.7006923954961874
Ni 2.745556096357694 3.000211661517351 9.211655590406131 -1.0915412782986362 2.517940461219986 -1.6264754889540827
Ni 7.1952759019817565 3.4691006805621476 1.4747672938160308 0.41758957659499046 -1.9864900953480824 1.365193815056623
Ni 1.644034884778073 5.302506805682669 2.6884878832059647 -2.4548936692711467 0.6145306794328513 -1.245255452127062
Ni 1.6072645862365351 8.883823675469246 1.9138608832425357 -1.3675319762714964 -0.261422313240382 -0.8221392892868873
Ni 5.5575546371717 9.086718764500581 4.104776673019423 -0.13392182169284678 -0.255527802132818 -1.1550490690442945
Ni 1.5069004439638998 4.918113821919888 10.5410611241331 1.8488661422132997 -0.19072906048987795 0.6399018112077883
Ni 0.1327494636322447 6.448157979316841 7.425330764484973 -0.02208809014829099 -0.12394079922073493 -0.057455156793675244
Ni 4.114453509778094 4.977897078451354 10.125314853043943 -0.534703325591563 0.37894743874276027 -1.197990605602827
Ni 6.720820436929656 2.819134052138805 12.819160907515663 3.2177818862062004 1.4779423451059646 1.779443271534787
Ni 3.610848920583717 4.820859791258716 12.360943400564734 -2.091040405857347 -0.5353607566699038 1.3531404834365148
Ni 4.815835046372928 6.922333254133675 13.542157252826444 -0.9038342924645337 -0.20386328387899086 1.5849634857532253
Ni 4.6007703614564965 6.213423939884667 6.555961172335814 0.4816424412108415 -0.4849339674779197 1.5757499375747572
Ni 5.328611195935044 6.560523603333412 3.4815271174962383 1.4628751663601969 0.6191944034571077 0.7584049843527196
Ni 2.384932584220062 6.477662011090454 8.308138280317534 0.7946426265285154 -1.400576308320975 0.8310944415976461
Ni 1.4963466117688433 9.335611750488248 10.755057350285712 -4.529227303896774 -0.3294932978766906 -0.3984546555377525
Ni 4.806934336565947 0.4629583257316452 6.223107314415494 -0.9778278132328643 -0.5013784861871882 -0.04973387689001758
Ni 3.6631417581590457 4.22906999535131 5.231818545194612 -0.23694746802746933 0.20946520344680056 1.9689454015960992
Ni 2.006162084511638 2.561162902528489 4.83164151151179 0.9863952431869011 0.7494765715148382 -0.12784501937114756
Ni 3.1236167808034416 6.155480599231454 3.932088893252221 0.19891031074908969 -0.6991521122286732 3.4333411183658806
Ni 5.180997640321885 8.474923385795112 10.30188420153704 1.0710817248927038 -0.9214949429690905 0.2625469137631285
Ni 7.56667739850266 6.523575850976205 2.387976384142512 0.31427005316903295 0.8979153558769374 -0.4482219567688668
P 1.3021000613327494 5.351175849548545 5.339452690104974 0.33969594944130527 -0.4211878354692101 -0.2063513404081672
P 5.158722516618159 3.1419599015389204 10.928783701858302 -0.016356329870836347 0.9187001538327726 -1.0512168676479765
P 7.901766240532959 8.225273886172225 4.63741083852236 -0.32843734580835043 -3.2093921194806083 -0.4666511100083318
P 0.2004294149609858 7.007660520446981 1.492319344120606 0.06713998818160695 -0.10004342377784706 -0.6444338947501869
P 3.5100458136091635 4.225483560339892 7.503289027610758 0.3543124138028995 1.2581024832930592 0.17568502167256195
P 0.5815600504178088 0.30303788101810963 -0.1202380356601228 0.049651601588856425 -0.4571064037426902 0.11922976689831077
P 2.3971768975012293 6.77146015211691 11.696028623089898 -0.6309908818714036 -1.0514958323409762 0.12568914937040934
P 0.6354751894553335 1.5584274282294992 6.151287085376957 -0.6723879567609518 0.8843021359688771 -0.2170687268256713
Ni 0.4967287208209244 2.5327889713704517 10.525600226951067 -0.07411359128596269 -1.2809696176992196 0.40533492759735357
Ni 5.297304606981212 1.9184905598965973 2.7808114996938884 1.2427311430433114 -0.9578817091282407 0.2938830048722487
Ni 2.363638126339771 7.143758257390666 6.1918997260114566 -1.632054525703757 0.04470608465812301 -0.39250872236696277
Ni 3.0595092549743543 1.3815246533564314 10.460724979877348 2.993089581397 -0.304978600564778 3.544815923909121
Ni 0.4415919523576355 7.6637166166501265 3.526923539414196 1.1952199848362255 -2.9723610906003968 1.6026691305631044
Ni 8.291333403973672 8.974241064389902 2.8132500571981987 -1.7932146142872665 3.0159338329850254 -1.5741630527036117
Ni 0.29536160253924504 7.1903819125390935 12.950402013714719 -1.7076498437415688 0.7410495237934076 -1.503202919444966
Ni 6.889933923262301 7.690259971604419 12.277723164820635 0.1075505307881696 0.059760664998400305 0.04067845155596865
Ni 7.05324747172492 4.6383812307038355 3.6037059375193103 -0.03706425184214907 -0.22155787294527649 -0.8898696027543256
Ni 2.4957758412916826 0.3260555088452928 6.1219390261676425 -1.4857199321688541 -1.2831221452658481 0.2527787786327711
Ni 9.181133534111048 4.931133328185294 0.8860007505471551 -1.095257550807959 1.0278910484378427 0.3254304406612266
Ni 4.607775117338171 3.0211325324172864 0.9658185428676621 -0.47777653049753194 0.26247389443334795 -2.0979821272825028
Ni 8.842402219022276 3.45116850550506 4.688685651576219 2.405596108587599 -0.3471945718111956 -0.7654464645805333
Ni 7.716037473248982 8.294807762890981 8.536351359007595 0.24148777909998412 0.23276299763247654 0.7560845637496592
Ni 3.5783188342692194 3.655137657104919 2.9977207703258273 -0.8011130647442074 -0.11976815590028406 -0.7503985691084754
Ni 6.531402498214663 6.326303245999227 9.68027469285762 -0.5087781210853689 -0.5484219607292362 -1.0013163832731078
Ni 8.510432828277947 3.1492448476558623 7.062951393539667 1.093886124381729 -3.004974505760044 -0.39586581176465374
Ni 5.885666742343853 4.124559037596723 6.543575829969562 0.0038463703292836984 -0.29995955008363173 -2.6909875310490685
Ni 0.09657316838947294 8.842859863073212 5.960036702523318 0.02910874444049825 -0.6519132338463676 -0.26154495486117535
Ni 0.3098623811817626 1.3076011296184908 8.377839337210002 -0.3539658290967581 2.0902513342971485 0.28387318604473044
Ni 0.041875364628102325 2.612904699307793 0.5734242599531063 -2.049967289966121 -1.9139207086207877 -1.1058186141532569
Ni 7.771253628945596 8.766685477778626 0.649476295511625 1.613661110798234 -0.09223318370480889 -1.8289704317306374
Ni 8.576716498267608 5.677326623073828 4.741887239481264 0.8248728861679665 2.7699098565775846 1.3268298705664439
Ni 3.0417732130819544 7.936435112309995 10.000962690762648 0.5063815958287343 -0.36075174167034 -0.5329063815921402
P 8.60902243239389 1.627466302199285 12.26460092213563 0.2469390320225425 0.997833824041146 -0.6919195990359761
P 2.235964775803113 3.1298463437008777 11.845833266342845 -0.4470330786670882 0.3518384983411102 0.09276077407350476
P 6.159104392940907 1.9086932413367614 7.166060466150467 0.8146414382479453 0.19267230025917786 0.41405713796169974
P 5.416964516789235 7.655525722105821 8.16484058829494 0.5918329807250194 0.38035460350293204 0.09513518784295229
P 6.455891229810209 1.254000737611916 0.7917877179060812 -0.7442487474569957 0.3486012223507351 0.15533525437161635
P 4.984257396791914 8.791743824486003 12.65513941172527 -0.3729256580287126 1.0494055254708508 -0.622889850030824
P 7.685907683283271 4.889795928808904 7.301060791339357 0.09459911283382418 3.9018876456247122 0.9510137783638137
P 2.6931325033392404 0.5398826868892951 8.568201517017844 -0.3828246623099794 0.12806690557396655 -0.9847664493342265
Ni 5.538333587032385 5.219542477020115 1.5652463245884467 0.8371118514363196 -0.018824846015986933 1.7663219036614806
Ni 2.2112239780290377 6.587795452899399 0.27789921310995547 1.0847558799456865 -0.9247769561544719 0.8753899210809118
Ni 2.4315282203449624 8.488736764393774 4.218028632146888 0.2375372790926683 0.5145996128631524 -1.3543267904351322
Ni 7.187243781904103 3.9660274024826605 10.932625109983814 0.5413159458120742 1.573142324748581 -0.963242973440154
Ni 0.7316084591754373 7.086272560788389 10.00526828071125 -0.8948925098902136 0.14993928016702565 0.021826608956788215
Ni 7.38189193834408 2.416939648762061 9.130895424927676 0.30739312354354154 -1.2484215085598693 0.013818908160963296
Ni 5.530292127280222 5.6951280426877915 11.761028087834585 2.6659917803356796 -0.1526744197100016 0.10809534754804609
Ni 7.2925859706899825 7.023846176370904 6.780729779066992 -1.0327123810858858 -2.4116173750810144 -1.2525550711122686
Ni 1.947742420458471 3.8072435961568583 0.7146746953233515 3.3008568004505086 2.6395423278948993 -3.154707840563851
Ni 0.09658157409653094 4.047749554435532 12.3346708961712 -0.33342117217618705 -0.16247032275450085 -0.19598542379281086
Ni 2.2314630526898234 1.605256556217122 0.7973635035878942 -2.4105382830842226 1.4565566803413368 -0.9199383971152478
Ni 3.4887980541014167 7.5029434596539275 2.2349318078024285 0.682511932568831 0.627602682125461 -1.1734211437935789
Ni 2.6044616335517476 8.72389108917885 12.709298316267477 0.35458957872368607 0.21890192337966816 0.40417561718192974
Ni 1.3050233794540347 4.390515608912148 7.550790612163021 0.9776619770789615 -0.43243795446173267 -1.2990799541466855
Ni 0.8460456229980826 0.9302437226632636 3.788257905815167 -0.7838403937066888 -0.15307551180316217 -0.043539318043531464
Ni 6.62055903107662 0.764457962358139 11.245685395717423 2.769841208123178 -0.4813704184963774 -1.1291794003663844
Ni 4.847795412542382 0.9459595929593889 8.755967267312213 0.5702223444337793 -0.2486822399658943 -0.39536547508946746
Ni 3.396774241165229 2.0640774061413247 6.984228211071604 0.38133265114548515 2.987716747120861 1.4123918128986643
Ni 3.601621322168924 0.13945815183198731 1.0949619581720207 4.104888067282775 -0.9425607625004542 0.08026109894459725
Ni 6.832168036424758 -0.2373117895966304 6.040523215538663 1.1093970755331346 1.4517895979699966 2.655518134497865
Ni 5.318505668116414 3.5304156437130736 8.606750089585876 -0.5928300545309662 -0.71026647697428 1.917800503291168
Ni 7.255049818838715 2.004200752864769 5.1636211758980775 -1.8568015950102925 -0.5763932491311816 -0.3206790420191703
Ni 9.113486271643087 4.326286667314446 9.224272556700203 -2.199665400656618 0.9054692569647954 -0.5405063054265852
Ni 1.0311000657825178 8.628533012442983 8.018795164031824 1.2184041362621727 -2.3308351135256244 0.8805881774523995
P 8.179238630517858 6.617420900441629 10.919857774930147 0.749485827486219 -0.5111563915095584 0.6210638525656788
P 3.626903821064515 0.9252161758751228 3.6374417758129067 -1.02025975714483 0.20303975953643097 0.12231946156722805
P 3.552475954903094 5.400554708677098 1.59309163016928 -2.230800688608842 -0.10557566644998591 -0.6705251925206
P 4.175049317991834 7.709583758163332 5.191383358375781 1.2063531186349092 0.6697314929747111 -0.6130121859057959
P 5.463177226259269 3.5999121617337955 4.178195854333882 -1.2280773976858785 -0.6714520752102436 1.0844818003486936
P 6.808174412611395 4.932496920663593 13.690608577243049 1.516997145015581 0.922091953123141 -2.9038825861130246
P 8.43546326099501 0.30214781003741153 9.939504830591737 0.809032062480968 1.1877031076338902 0.7070045183935566
P 8.301579026909934 1.950413567368016 3.0197969589625138 0.4593432634930089 0.5095252836640386 0.0013778541841331109
