# total energy = -340891.9106274668 ev
CRYSTAL
PRIMVEC
9.02947654616809 0.00000000000000 0.00000000000000
0.00000000000000 9.02947654616809 0.00000000000000
0.00000000000000 0.00000000000000 13.21555163879636
PRIMCOORD
 96 1
Ni 6.245652881114252 1.5563838017843392 11.356414318690073 -0.29487467936155665 0.36191079497544765 1.345316873627038
Ni 4.505239315719903 0.19161903873459746 6.032027201887514 0.7093254532172494 1.4723283413532968 -1.398384699986295
Ni 2.811769999430526 1.7305714358455093 4.789342769045322 0.0821356902594908 -1.357491818426675 0.6507356685984987
Ni 3.502407579982945 4.252793207530479 4.968439729561267 -0.6299071618889216 1.4710319911393763 -0.8379235487043376
Ni 5.262830465634385 4.610044451200075 2.900231782173633 -0.695322454069938 -0.07514691764648349 -0.44104703628698233
Ni 7.282209712140126 6.186338248998353 2.6365024399619785 0.5291273741656822 -0.6281801518954859 -1.0364091132111828
Ni 4.756737328861044 4.511532860945171 11.460037495676719 0.5458549713330083 -0.40295845694537696 -0.5251653041941408
Ni 5.379193331226957 7.823571984709586 12.377804337786417 1.1294462808745258 -0.08860792824739577 0.47745874214679707
Ni 1.900262390534824 6.650344995104589 0.48215328533036844 0.6600749437215535 0.6715677748525015 -1.4414586483576335
Ni 2.549662351225267 1.570469785358826 0.41429947714626836 0.4199025409988833 -0.24359196992718046 0.34626717490091974
Ni 0.3125923551048183 0.24886321185458082 4.755338662927912 1.3239101258164878 -0.22094260795878076 0.0376031550647546
Ni 8.759775212243891 2.5503034440674397 1.311471888911935 -0.6406536017721483 0.028022967575487223 0.08539276374420778
Ni 6.852560124688328 0.48758903027385625 4.78217968521863 -0.25582733565110777 1.6498090214737007 -0.30560235019170595
Ni 0.8269447541701996 7.579622614048105 2.5416279229018195 0.42097109147271367 -0.34140624726419266 -0.1175202404063718
Ni 7.533906373767575 4.190191845913865 3.747441390790128 0.8700667090957854 -1.5145844218090303 0.6578283137792219
Ni 7.940178646171716 3.9471002755341633 12.478017984389906 -1.3799694307039008 -0.32425776050936417 -0.12521323817525534
Ni 7.915320496953407 9.02302960398374 6.85003006533091 0.6028951520764521 -1.3183873962260457 -0.19088229823829062
Ni 6.890095659123675 0.7976991822475039 0.5627485880157238 -0.505073418540272 -0.9303531646906686 0.02927123816029152
Ni 2.098820582075186 6.605044110749973 9.072146345170777 -0.3224371623608576 -0.7564509459501424 -0.8967899840232427
Ni 0.43439818922219803 5.054421115068533 1.2073529936571867 -1.3669462789713553 -0.8516316423190494 0.9612249145688607
Ni 6.501873310543508 1.9217706039158673 7.301076803600953 -0.5753552947849704 0.6972358690425668 -1.2390768341201757
Ni 3.4345962103391012 4.111969489692211 0.350603742959637 -0.2558720728461142 -0.5684138304701307 0.46635749002731297
Ni 5.70506714353672 5.668127554560293 5.13663359702196 0.5563941803014353 -0.9446253583389668 -0.8662090259125921
Ni 5.29564358378162 2.6350541119072686 9.39426208929868 -0.49187723156497215 -0.2939321129426293 -0.05891451494802111
P 0.2752942959053743 5.714376533963192 12.27427416440927 -0.025636726731497785 0.06917064545839055 -0.4271468812661224
P 3.8169493990965657 6.029053795226567 12.746333397792254 -0.01379139735713754 1.2059916215304327 -1.4501839440457733
P 2.451773794859234 8.586761410147263 1.3129066727516698 -0.5125039066763883 0.0720641649561017 0.5703771248440886
P 6.335252377915299 7.652815551775535 5.785438515201147 -0.18824948860113386 0.29878635571113704 1.265850245559278
P 4.798074272966174 1.0780743646640087 12.971421094678897 -0.007604551820135291 0.7177057068611447 -0.26378695681781666
P 3.9949203838742164 5.958425228867825 7.919683540070838 0.4323947599286231 0.9975391756188626 0.7409677627128788
P 4.928794006432741 1.195412413734814 3.9090807611503595 -0.14563988146072337 -1.2034056059708114 -0.047416541610750595
P 0.28795813690743693 5.680515996524521 3.5948016998072627 -0.10720240342013151 -0.9689842467993053 -0.31492491314421245
Ni 1.2694360633140722 1.1125037591316487 2.5541563217541277 0.5158010893704215 0.09854498485544963 0.07034718226499498
Ni 1.8900319934900203 6.589405057191633 4.734802021234442 -0.12678495353774938 -0.36856660972906846 -0.6030435047288583
Ni 5.916528457210378 5.596794689022828 9.262503063069662 1.0510590019138737 -0.242043394493138 -0.39268278605098184
Ni 8.22588031686424 2.0846623626874967 10.213348489940113 1.0726200159141013 1.4025264900688104 0.21519053596635196
Ni 2.195399864326924 5.290316192557936 6.878589397028182 -0.13285327121901633 0.05260734178307069 0.36410060353791485
Ni 0.5883832722259598 8.859009160630821 8.857089493894964 0.14371772473734604 0.17892538298673055 0.1060891157512947
Ni 1.3700244331985487 1.0716995541488885 11.193559580772709 -0.8097828246040635 0.8303439365848668 0.5990732072272005
Ni 4.140249810560989 6.777299436807977 1.6393231566081157 -0.7684777952076894 1.7228779735452326 0.7140200304794413
Ni 5.4285755390275146 7.919031611856686 7.9611541204303915 0.43474423399740614 -1.1375285436620282 0.08998603954184502
Ni 5.222360351287687 2.862867807794642 5.194452044856903 1.0079493152085932 -0.6546296043362662 -0.34602600542439116
Ni 0.6093009578340727 7.274633981230514 6.66558043105666 -0.10516788948860598 0.1268147783344203 1.40697681253068
Ni 5.359707720615583 4.262590189696067 7.520177957468441 0.6400270239317429 0.42350748474132227 -1.6440839460644654
Ni 8.163549839547136 6.9429090680513506 9.200468752586687 -0.04744610929710538 0.4958189898215396 0.4758739141581805
Ni 4.647579985635422 0.2942119524354431 10.15075976959081 -0.19852053150983873 -1.3699490703534214 -0.09429160889573439
Ni 8.242810585583575 7.260195848066665 4.695908453510888 -0.47851829375956295 -0.8502447892738519 0.4716645040625232
Ni 7.23053401727039 6.1190054416169755 7.054117908371924 0.3118195347460114 -0.35845240411320206 0.09983105065672485
Ni 2.5077384911378684 5.087947561871142 2.600225614571685 -0.5674923470971259 0.2574905822861437 0.649488683565275
Ni 2.2019552643750506 5.228987987149016 11.258024626369947 0.9127467644628152 1.3016819105459065 0.8835727140020203
Ni 1.028249712507587 3.1951344895728253 4.123265364981752 0.23894212985999494 1.1507476134554633 -1.3722028993846045
Ni 3.693218480557339 2.444550213538985 2.6807875081934345 -0.2871351446254539 1.3071933272824392 -0.8761257708056719
Ni 1.2740410964057314 3.402017858584775 8.336687345473875 -1.0839485535530426 0.5075509335464871 -0.46290269870949313
Ni 3.750943924782784 2.7638957142305713 7.1195084753258175 -0.6175684378179107 -0.6423662135878808 -0.3935700737519416
Ni 3.935542545421764 6.970954622527219 5.915425958111374 -0.2620193233944326 -0.21281869330006573 0.6688966557782416
Ni 1.0199696824192506 7.456830761080512 10.966872763571294 -0.6431894808201246 -0.8638328123709317 1.514004380935844
P 0.3129968756587523 5.5242609030908705 8.136749449901345 -0.1146308346737187 -0.33432697181990806 -0.736031501753526
P 8.569704728754822 1.7527658894519764 8.141929660655629 0.6626894985262651 -0.15062087961508253 -0.802777596930824
P 1.9651752981739172 3.297646137983818 10.460016636021004 -0.49790004072028443 -1.166098899100553 -0.5417430060471639
P 3.910142627604436 6.274827120171411 3.7702778401864325 0.3945342374374237 -0.8695283200938122 0.5074809995405003
P 6.723844935038128 3.7680006061752236 10.430783705365618 0.5601497906891256 1.4969651660653702 1.0049226125671273
P 6.328353857754461 7.638973364070606 10.319654324439567 -0.5829649888114282 1.2753201327229264 -1.077974338247479
P 2.208853784535889 8.582472408738363 5.7570381022929205 0.04973799065507563 0.4124594544572767 -0.867888470497544
P 7.164781368302818 4.251745788239043 1.4310329951340472 -0.30164310843364184 -0.30620116011796944 0.5644659015659762
Ni 5.664046231114352 3.30897813117996 0.1486152532398212 0.1192567634815043 -1.6308836453241076 -0.2966040033478376
Ni 1.3333918464282326 1.2655895062610394 6.979741206255638 0.9842185472505566 0.06224949285852505 -0.298934194142911
Ni 7.175201384357278 0.3509595043396593 9.04600510732046 -1.7267991629765098 -1.070898405237304 1.2738708018709095
Ni 2.8078602360409413 1.7046478083824634 8.995165541988543 -0.12619231425907299 -0.7165345693711789 1.6805133925360929
Ni 6.236298343304529 2.273893104848087 2.357548497170233 1.0378687284758448 0.1335191869377894 1.0551241731221828
Ni 4.199862415406349 6.653324722399192 10.249043817034128 -0.7841124164211528 1.4535726580123483 1.0706577499814078
Ni 8.182051237203625 7.12980117575951 0.2814370488705816 -1.3278781093253003 -0.8888056802661854 0.2100395878930318
Ni 7.690387204117482 3.8675415567682636 8.360264211955505 0.27179414339300934 0.1230275433778462 -0.4373721585385564
Ni 3.24504943649575 8.72846098722061 12.140533168055507 -1.2003809602118747 -0.34669012137095134 0.4171797427510815
Ni 0.04499297920083998 4.532427069913993 10.273690676498818 -0.09189122698435788 0.6126496603600545 0.350476584996577
Ni 8.508900232991621 2.236204069309684 5.908818187098676 -0.6839589494280027 1.4545355361462498 -0.5658347568890449
Ni 3.559221047066708 2.2270120620796665 11.48325769783066 0.7915938123998625 0.2936523769186814 0.0001118429875159364
Ni 1.1861030233083423 3.3823426289637455 12.590006971493066 0.4342827209799553 -0.48064665295647546 -0.17842427498059593
Ni 2.942787705626554 8.594598995879732 7.790990924112265 0.19584504156020466 -0.8010346460977882 0.5981080151004537
Ni 5.674366922925659 7.784438232907134 3.660602205001082 -1.4110265571200216 -0.2994589562981294 -0.10506016026614809
Ni 3.1761545296538696 8.411219354588546 3.5225397011224806 -0.4521768276515567 0.37457039272098713 0.7064028802538157
Ni 3.5661737440874486 4.2613531513949745 9.266335172960055 -0.39209297498578277 0.3190736452052633 -0.0683445500126694
Ni 6.893599096063996 5.968429888996371 11.38932134339447 1.211712840284926 -0.9291432035429675 1.4062574178661522
Ni 0.37314763731247114 8.94546639955756 0.18279453120424746 1.607153134476387 1.687170235730978 0.5705661009264432
Ni 4.632798732358861 0.3188714531674453 1.8532964706858908 0.37127526690948315 -0.01055206448423344 -1.096533332196589
Ni 5.753419990999141 5.7042996380214435 0.5037924261228413 1.6373204020883867 -0.5079779937815767 -0.7368763662523246
Ni 8.212688251478134 8.725002697663541 11.314481429126023 -1.7869200395278062 0.02976154753314875 -0.33544154504032553
Ni -0.08708839934459481 4.736682861220702 5.810204563757623 0.7099499741751256 0.6164407519713706 0.16543043382408928
Ni 7.769512508004168 8.530525829569118 2.686193455863976 0.4921615955746104 2.198541828575136 -0.5075601895178677
P 8.46717502139053 1.863376978418299 3.6032866990155608 -1.6913516208021775 -0.6653058531031897 -0.8808157200821733
P 1.8597380993282235 3.2866662943770386 1.691207432388474 -0.610219196541691 -1.1760840353377229 -0.4231161628401745
P 4.730010077976122 0.9620997665674007 8.069270364998232 0.01444162934662674 0.2871125189176346 -0.06203069197949961
P 8.23425967119573 1.6554100722083116 12.349126719945026 1.7648658879412444 -0.17714669381975298 0.9036057213934955
P 6.272154395082919 7.704229391822412 1.4148169580177516 -0.35802868631222207 0.2796483493301055 -0.7232978562369414
P 1.918176872209043 3.2849506938134794 6.086343115729801 -1.0386889103842951 -0.31039668625655575 0.19619574003140405
P 6.8845244720304315 3.972048719518976 5.940165821185564 0.7558621633262079 -0.01721096456164778 0.8258241943376423
P 2.4674670252774766 8.6587534274802 10.037621330110065 1.0438665979304926 -0.09073628744430826 -0.5593542913710239
