# total energy = -340866.1089358731 ev
CRYSTAL
PRIMVEC
9.31132376358545 0.00000000000000 0.00000000000000

0.00000000000000 9.31132376358545 0.00000000000000

0.00000000000000 0.00000000000000 13.62806353103473

PRIMCOORD
 96 1
Ni 9.031928256820175 6.2169195221989995 9.999495851002154 -1.0306938079939605 -0.7300076641569493 -0.7631252726465245
Ni 3.6278128152591442 7.717197264589049 2.919853309926764 -0.9734502529904591 0.23518677658262077 2.008245741857619
Ni -0.23738847677029715 4.0755478221037205 13.403377845836898 0.261912108392607 1.5730839607068199 0.9258722461011796
Ni 2.4270058702099555 4.430299949082436 -0.07736499638909292 0.05224070247227132 -0.019341637751405398 -0.21511803085720374
Ni 7.343226565204652 1.0452705916264629 7.330712145963743 -0.9482243885441347 -0.2549387623985674 0.08735760078006245
Ni 7.101877051272835 6.974656433647434 8.448363382327766 0.5165688207743814 1.06435237658867 0.10269705935061024
Ni 8.700594109298963 2.9978924461618703 6.376557513773229 -1.2670553216109728 -0.30978064993911164 1.0266294081165996
Ni 7.142856187492509 3.9048898787648962 4.654733580994194 -0.09789603841754108 -0.9808948821939623 0.12291775727285928
Ni 5.563469437758141 1.657788096466848 11.868898679850284 -0.343012415409048 -1.9059124936043306 -0.8197993282998011
Ni 3.8357067426339775 7.4385372760305035 5.274973897827444 -1.604315922137908 0.17590922186822608 0.0899652136062386
Ni 6.277647976283232 9.163152743696761 5.024503942194384 0.4129759890823791 -1.8807884448431933 -0.38456452781922157
Ni 0.2997566549827471 1.0855327559104588 2.800934668637072 -0.37480230622613514 -1.6907705514877267 -1.8822683718228295
Ni 7.845656288285166 6.067314482062329 2.1806813159504466 0.8748561600646287 0.1566945966129882 0.9338838035517465
Ni 4.286030297506064 8.176301397842218 0.8708126970285494 1.5712592487932553 -0.754354725542746 -1.5374564413111975
Ni 3.3075125864882886 4.1281568017995065 7.844204652898516 -0.15935620260555133 1.5034631150848883 2.154192355925484
Ni 6.7736808198856915 5.186090793848318 6.90337731852014 0.26399393062230014 -1.6500728166580487 -0.1732231903956307
Ni 8.758864373889446 7.990736025035615 3.8390662682754364 -1.2759379688125831 1.237070088102792 -0.4990356969866244
Ni 0.46435851329606076 0.8278390752423564 7.158644468195548 -1.5395845433977937 0.48086853915929445 0.2678408151722162
Ni 4.337791946732413 7.555049871239949 9.372537414018371 1.1850551284880817 0.056224112600051564 6.736290282569042e-05
Ni 2.1966437184092937 9.006163823755 6.562008357296602 2.3343300140527603 -0.6816809520271034 1.197370198410009
Ni 8.970929774344583 3.68546853247619 10.856102261248074 0.20365579585387505 0.750397797777527 0.7880582884427783
Ni 4.11758844924115 7.465614605757113 12.023086753580984 -0.12315661275654273 0.28662195243446115 -0.6934514622994703
Ni 9.045625214188759 8.544117312168401 9.822630979191612 0.1894982734065704 -0.24910930020098387 -1.5762366474031888
Ni 0.26086604870037755 0.5420447503576323 0.09858736568513447 0.5403168151235984 0.2757132759417574 0.5845726996181804
P 4.720627026412454 5.93683490109294 7.5407076391292565 -1.1268746634926077 0.08398868430782955 0.42314007409957455
P 1.4843646899475544 3.4229264454846193 6.577285446320828 -0.0016002546075843409 -1.349094081281283 0.3458714821243979
P 5.20273012955033 3.441753942289022 10.591731430254335 -0.6721241615766037 0.9915685598577245 1.778105783670286
P 4.335678276220742 5.909683080775611 0.03542027588721574 0.42666685630591034 -0.2296339650851916 0.68200593946669
P 6.471407314069003 -0.2279309651460477 9.12332076257417 0.5142594559149143 -0.3166948605604417 -0.17300336107534078
P 3.3469181089790085 2.249336500019639 2.3689525594649434 -0.3583179354178668 -0.6818156778327548 -0.06589351736901555
P 7.836559124893523 5.65935745066207 11.908351690092587 2.22569370639958 1.0142672870068208 0.5131212285454131
P 3.594273426787601 1.1065763477887731 8.569394762996746 1.7296888258194791 1.171935560386988 -1.7860281238411564
Ni 2.058286757471297 8.28173351768211 13.146420690884536 -1.1452009726056211 -0.5099685418490443 -0.9840069454603828
Ni 6.981407143431406 2.3879541780251543 10.086947804507078 2.869862520413838 -0.3987127942951456 0.0053993166387003785
Ni 5.418492125569932 2.5826260255472415 8.632465015026728 -1.9148576186127604 -0.44843484411062123 -2.2447599790024118
Ni 7.728119447453325 0.3946092486756728 11.238805120129586 -0.8944600503384854 1.8843447947358838 0.597056691017804
Ni 9.677258866872585 6.540553204904562 0.3415440141117289 -1.442726973547096 -0.373000477130706 1.4865848512723108
Ni 5.909562033565692 5.780851604125895 4.565551583519805 -0.13879586195569646 0.7978163962708066 -0.36722192277571597
Ni 5.102307501936339 1.2618240501724607 1.1803592778966325 0.3635398459384384 0.12462239866879182 0.7461616482089923
Ni 8.701962873903438 8.03368916190936 12.454524150308474 -0.14584505549299398 -1.1966577457240166 -0.6322062423357434
Ni 5.787360219490029 7.310199299544307 6.277372361097569 1.1171312109525988 -1.306327636848034 1.263938887469178
Ni 1.0207631872796825 0.6480597590699045 11.374976713362342 -0.6201827355123061 -0.2010625812054021 0.31771893094958187
Ni 0.748606227290967 2.0831759260955156 4.669628905740981 0.03104967021695298 -0.08576428815101358 1.928939293516807
Ni 6.649449137212918 4.633519591889608 0.7482430856612085 -1.033854207999813 -0.05914848533569814 0.37974885159813315
Ni 0.48046710353919514 4.536197635114325 4.649745504813127 -1.9169260711060143 -0.4958246462484945 -0.6266855696278304
Ni 5.769184515354423 5.634393791447132 11.806672964892584 -3.0572393766020314 -0.8372190664381451 -0.6186179621283475
Ni 4.735199248221995 3.0619171088854493 13.294585269223166 -0.9989103449347764 2.1887559528329663 1.2683084772917834
Ni 4.488840242064278 3.7679854843459335 4.483564445976555 0.779106221455813 -0.24010324004763162 0.701003049394483
Ni -0.05465840207296138 5.322799650466641 6.648069199019835 -0.3296354798815097 0.30938264316974456 3.257600560865035
Ni 2.541423417555409 5.07985790015819 5.917032508682493 0.8831669939231693 1.2804433128821047 -0.9341668820098041
Ni 6.429031479273336 7.18439400314258 -0.2513694295160002 0.22392483051555628 0.8336784002747384 0.4648549373398575
Ni 2.6559992574061426 0.45971774949422367 1.3419694078601665 -0.966032363259833 0.025857070272419982 1.2653792194601303
Ni 2.3150372010344116 6.613088417617866 8.472662213020532 -0.928068225311234 -0.41406048039580945 -1.5400563408278896
Ni 6.8627156984434095 3.7121827205730407 12.217354489648416 1.0606065363929928 -1.8928343202641338 -0.21802800541514708
Ni 9.411420571241669 1.7520466276987843 9.4535831767214 -0.9097779116424783 -0.2558803003762303 -0.6627753733718521
Ni 3.8982974614862025 2.414249356549207 6.689362126852915 0.4450903531184205 -2.3087933032342365 -1.802221188661251
P 6.057528280706529 3.2180959436531333 2.367126608859927 0.16275982897046162 -0.4955924756330303 0.3316957048446481
P 6.188184776828877 2.864870873784172 6.491169667786939 -0.1898785395641246 0.1664393347045779 -0.7214906278248736
P 1.980676873265213 3.8951874793236554 11.286149477326257 -0.3451906540072894 1.6698834236260727 2.8718625815630023
P 6.324707406970401 8.378161587368757 2.857491649641002 -0.637642068639334 -0.42519927062144836 -0.056887714325979444
P 3.6039851375526815 5.565499306355253 4.038567899473311 -0.16324756724015757 2.3269771732321147 -1.1848291285202046
P 8.882630490370223 2.1958522558828966 12.528646943736494 0.10080961251991025 -1.1797496571147683 -1.4177070544639907
P 0.3840455517792358 7.848887317657633 7.672967545216846 1.0033205581873301 0.3611543764253974 1.1678050831583822
P 1.0048408235133475 4.586013217658122 2.117160395846609 -1.0187492340375746 -0.052133230360129575 -1.5310983603036534
Ni 8.069025635882015 7.876020515327283 6.2838046236062155 0.37956141817767536 0.6583589894717113 -0.16379058422782114
Ni 2.3000552809759123 2.4153853380576824 9.97880888282691 0.7721555011695928 -1.8339198053161125 -1.2197321110449768
Ni 3.6268351262559486 4.946249714378575 10.271144412709207 -0.4397229181589201 0.639543399427105 0.33448098089926914
Ni 8.199635575385164 3.2048179958573475 2.5905313394873692 1.9572687365891195 1.8544585486994127 -0.3666935610760717
Ni 4.873993841380469 -0.14476594513704238 6.96901004687088 -1.333611926485284 1.8484282833449326 1.0878111218322426
Ni 1.3127849255485733 4.281058050575524 9.254013572859494 -1.2269116595125515 1.5532561273476153 -1.7884117935819843
Ni 7.880778601809503 8.436841550208198 1.2645885822205456 -0.72571006522286 0.32521909598136894 0.07381225799545997
Ni 1.619751338580603 9.05505758523864 4.310802143449899 -0.2931026750627984 -0.48209135582280194 -1.2996846776102198
Ni 5.430503733323483 6.363144551781764 2.3156536106726167 0.28359447846204705 0.07356363231976364 -1.1279810091829088
Ni 1.0175880258502554 6.342184761818009 3.332688543886779 1.0801564335004623 0.965388559028247 -1.0777719924286857
Ni 5.368583429787734 1.7190472960099588 4.379854921047057 -1.6129928810866156 0.9457322182499003 0.17907836362482707
Ni 1.2928214472356945 2.5298401306984966 1.2686976694311207 -0.11664580822121846 1.1740101835278296 0.5959120358903995
Ni 6.622977043535905 7.5332520621305985 10.767110214780018 0.3021997522680602 0.5789401839227514 -0.26209465671705834
Ni 1.0188822998640101 5.9377939674484566 11.876557243708653 0.7605968497977159 -0.5141712670764822 -0.44788462803410606
Ni 4.026216428399602 4.266662743918943 2.089918255688032 0.5507416100013482 0.8323830785020827 -1.1720710575235878
Ni 2.468515751888506 1.919315249159863 12.927390420197108 -0.748796000508046 1.4981730703305423 -0.9209079601173689
Ni 2.1095176612387685 9.2170094407871 9.194418306886584 -3.2127579506290473 -2.319030921801845 -1.0576567097360494
Ni 1.1723142940989053 7.015831107667745 5.6966809611421745 -0.06468484177289505 0.8803696336836904 -0.15110758944351396
Ni 5.790600560186336 5.114663628671969 9.23793291658788 0.9050969612270412 -0.20771273953206806 0.14365319004799776
Ni 2.461113249435736 6.564287769372625 1.1581145252429632 0.6226517658780889 -0.6115911371885531 0.6714263641786308
Ni 2.2140558939900226 3.6137247822892817 3.674398299562859 1.3419716113038889 -0.3522197929399289 -0.9824118330591209
Ni 3.4819602386299784 0.6579139330897363 10.6964493715557 2.316051784568863 -0.9234286696566936 2.860323213464835
Ni 7.2692574086199935 1.1727612376432237 3.1895939813790095 -0.8433159233645025 -0.5690126403963942 -1.7944610850998581
Ni 7.565459931293027 2.0710991390750846 0.6104978786994976 -1.0306575554393862 -0.6451273212727857 -0.19232700110461717
P 0.6482692638563038 8.300123382266035 1.7523101381634552 1.4680173726827686 -0.12862252096712043 0.9366965904101932
P 8.182968305711633 6.16528823150641 4.937283840653076 -0.5961763452953798 -0.8897785857024161 -0.8478837452408431
P 8.186674212599938 4.28709178842382 8.822781025256482 0.30294665773641377 0.3363409169261433 -0.6868007897521721
P 8.184523296792907 0.7708155969140446 5.0054380754996775 2.172195477371124 0.007475739551754867 1.9836575109952932
P 3.4575087022262383 0.42234675126253585 4.967429251584953 2.2409431763594827 0.3820512744790646 0.3610103946483653
P 3.7418765322986802 0.33054640952434977 12.967198191877715 1.618042784805697 -0.5654323792443036 -0.74642878582745
P 2.3503084957401876 7.147791189127688 10.513560073220699 0.36550751118777053 0.5860287153384165 0.9096894656937301
P 6.492553330509557 9.549041937596309 13.274034246375985 1.1556710188990096 -1.2629243301617348 0.19453994959553592
