# total energy = -340865.6541645318 ev
CRYSTAL
PRIMVEC
9.27833393354636 0.00000000000000 0.00000000000000
0.00000000000000 9.27833393354636 0.00000000000000
0.00000000000000 0.00000000000000 13.57977958011037
PRIMCOORD
 96 1
Ni 3.600791479995495 5.315362631654683 12.966652517038915 -0.502083996894645 -0.4229873505717941 0.0563917485261674
Ni 4.915225204985631 3.63667079708795 12.056182603607649 0.030760678221624444 -1.148993349768518 0.6270534944902104
Ni 0.8166770919613371 2.1276240190814586 9.902958733533227 0.9641482588632427 1.0406550329717303 0.2644407883517317
Ni 6.882334048039296 3.7688406631293323 3.9065766016619903 0.49187903133718514 0.3922503264992535 -1.751972062697712
Ni 3.2902549235518994 2.2042166652149517 2.2885595036337634 -0.19792069314231076 -2.3996823142063253 0.8116389039761958
Ni 6.92063501027298 6.408888505428303 9.631119324179753 -1.0331972911421046 -0.6776070390680459 0.42295341201006514
Ni 1.7179948568588554 6.6741467925646365 8.161596392811596 0.06511910109683623 1.161913657374612 0.2895514673764304
Ni 5.853125584683287 0.8970636488160882 10.67358467097556 1.395391678796242 2.9548349087911756 2.166641380322114
Ni 7.543053481571965 4.302020119223964 12.905584379144132 -1.79297730146548 0.44995385185830894 -0.42215585580943427
Ni 5.73566187783289 8.097610218913303 5.864318966669409 0.3087223838779264 1.5089727320492075 0.33250354545792415
Ni 8.575527918451776 7.431611413406079 11.122572525493533 0.6788979899653276 -0.4042005568825942 0.035985159845357384
Ni 2.452272921348076 1.85566677488778 8.088292916036592 1.2383888069142155 -1.0018195481617715 0.7367318702546601
Ni 6.2713093707381224 8.662790648540874 8.513544009003587 -0.059349288492594555 -0.49753391563011734 0.18890049192157143
Ni 2.006903617041134 4.265259360413437 11.32252154832108 0.5529440169693058 -0.912054880602113 -0.1227858596806853
Ni 8.454334321383856 4.189279084315657 9.110578814488882 -0.050206188540745794 -0.14435895786577074 -0.9390828312541828
Ni 5.900964674139893 8.280309891234879 1.1437448558690204 1.310787986612233 -0.5176977921725019 0.5626404183214633
Ni 4.443282752462296 4.001912410055237 3.260844460836703 0.604704694481365 1.0988792067209463 0.4022010099540622
Ni 0.17339257561212673 8.623636079590742 13.147236729237118 0.6309957669674101 0.3635143920171417 0.5467276037459488
Ni 3.6264739081599418 8.904045885944035 1.5969821873014862 1.7587042392152228 -0.6864809445189081 1.498942087286083
Ni 8.779335800337702 7.476546384359987 8.715869213136378 -0.2203016319406722 -1.0276794466476689 -0.038616683930933496
Ni 2.5667118913554052 0.5538729241347925 -0.08921210803611747 -1.0158361741558377 0.5311330917418015 -0.38265779771481195
Ni 3.2767642260984653 7.691135690208009 6.7231048490865 0.4902877755906653 0.010980924491535926 -1.0496284401149343
Ni 5.179936070423372 1.2663533988527933 4.085788548280165 0.09623716265787942 0.41466340408713104 0.10737261044940863
Ni 7.863721978606447 8.666279302077664 4.414284247771124 -1.5112445588025198 1.0050236569213657 -0.670585099224258
P 1.7414226498918137 7.5993636898559345 4.774039581918456 1.1297455572824995 0.25091010085514853 1.3364391115214338
P 8.095466923788308 7.188138654206928 0.5360520282621577 -0.21206433163254446 -0.04794850285482065 0.14881056587922115
P 7.7990055998322365 1.4736220992738838 3.478229328681094 -0.5223345196135649 0.38468434122653755 0.522256615187778
P 1.5816219055723526 8.561127944278647 1.7372743068165521 -0.9997603516398975 2.4259479327710736 0.5743859888931656
P 4.6072030770220085 2.9093514830045595 7.21602283099978 -0.6592514193789936 -0.4499641362709541 -0.6894371989337545
P 7.2969271188847245 -0.027048198910764282 6.806049442590434 1.60716753265409 1.376536493762952 -1.4594036628718285
P 3.0423656774285157 5.611285812246037 9.805863753037386 -0.8462788626475684 -1.1356434108241733 -0.5599374175680034
P 6.146590006797915 5.136439241220002 11.395634819251656 0.7242383657733399 1.100718316812214 -1.4575426984036899
Ni 1.384503702409898 6.774723931763553 0.9118533130119438 0.20671489439517304 -2.415026914983196 -0.478654305116795
Ni 2.512906833217534 5.819519459390069 3.390164950545245 -0.7616903399722107 1.3484911575899614 -0.6154963857802302
Ni 1.5900744677319665 6.9139267748817606 12.007540010437516 0.20972976996209686 0.7499293427815408 0.31880419359396067
Ni 1.9940902379605339 9.263683385251161 11.294886958709451 -1.0789814393557549 -0.3577247819185581 0.4989513648029342
Ni 9.212439147262634 3.2373313071320995 3.601602406376121 -1.1661714042097011 -2.1692531069133483 -0.4672650894432469
Ni 8.363889122775825 9.169387678085238 1.965903587483376 0.09257925419031797 0.1710547219894022 -0.6218567807806193
Ni 3.823007576288307 3.192238604502327 10.070574618475128 -0.25184341130269533 -0.04817887369807186 -1.347068566210822
Ni 6.24933827612345 6.579656240387351 13.045876498659199 -0.247783896521341 -0.37513963496089586 -0.11529186529648532
Ni 7.150719133691315 8.851688247890577 12.228469201821943 1.234286611820384 -0.1350191685220836 0.4872402470135931
Ni 0.3618633716036041 7.3168291450453955 3.2266640066766574 -0.8781356021468488 -0.6490479964834306 -0.36310918615892307
Ni 1.745087591772217 0.4319973695271003 6.158090501635281 0.24649448828595613 -0.409636640296501 -0.7423085930114893
Ni 5.969605788142992 4.638471062178867 1.2341510854747781 0.7403748663238862 -1.379973544468959 -0.3291785948497492
Ni 7.511998898094218 2.3140628599544337 7.711875549917543 1.0599683885883615 -0.08348706208106267 -0.045028243884232134
Ni 5.749254636958944 4.288343855093041 8.33840525095629 1.5552739291085926 0.17468306277060883 0.7829880730087225
Ni 6.513343988186736 6.289958821825745 2.9534931564122022 0.5038791411218547 0.7419442676935352 -0.22814761034765224
Ni 4.454129124761515 0.7147119140148033 6.369514039965345 -0.12418685379327 1.916066808429513 1.7628763683150415
Ni 3.6354275003487753 7.1330810209960065 11.176498201971771 1.832948956762411 1.0667668995674338 0.07564596877008908
Ni 3.848819901126996 0.23549431990052117 10.02489181381094 -0.9990301583420924 -0.943228220881124 -2.2808878350732202
Ni 2.0478396260951586 3.526258623982127 3.4783926273572843 0.7150163329544396 0.3194518544802885 1.331966163351745
Ni 4.456365203225255 6.225984709761488 1.7624519936182295 -1.4059234315655014 0.7809548446287776 -0.6422741680947068
Ni 1.141244344889859 5.386555287473252 5.96960300464283 1.5484257958385075 0.35554191533462637 -2.7835827260789867
Ni 5.873964722565276 2.289688676866283 2.2144682963128193 0.3610152797443718 -0.14399643232002943 -0.11660107102621207
Ni 4.523169207121215 6.456384296531556 4.871610540942056 0.23638645331767674 0.3342164143839728 -1.3377141215791155
Ni -0.018108524222742402 0.17784060887153275 7.8646340388263045 0.8716854756461311 2.3325590381952668 0.016420093229236238
P 3.936871289595421 7.3164765683581665 13.340531331009917 0.7349516384257858 2.3105488524727624 1.5264935145417902
P -0.2202639348456297 5.7007753424650005 7.402187961023458 -1.0783574326185106 1.420948958440056 2.737458678027415
P 5.71300418651151 8.21821000261326 10.61016725894377 -0.22398576566047876 -3.263856054856443 0.05905489718062733
P 5.662437266895818 6.337686571275858 7.161093238796326 0.2267533011032869 -0.030559875064728015 0.16459919617204558
P 2.295088667181206 8.849721241109195 8.234221623380378 0.28181373241254043 0.47154340510362663 0.34298387616395765
P 0.6272441327470804 1.9668768847068048 1.1872054995702797 1.2602845785460424 -0.3456372546264047 0.0274390700475592
P 0.5195458722995309 2.685975594977443 7.586140208418084 -0.9402238868371613 -0.273540950880787 0.03487058662493994
P 5.512072588126662 8.528941404068219 3.2806305078239437 -0.0827409279436575 -1.0803376962733329 0.33625941295593054
Ni 0.1140585583184774 5.510931353060105 12.919992703817748 -0.18512148449511345 0.07773884674337579 -0.4501410281684506
Ni 3.599455399917576 8.939080874653916 4.548099162408445 -1.0986683762617209 -2.3174581779980863 -1.5291116688909279
Ni 9.200525766567855 7.83647151201722 6.0472524530046226 0.6214495180398717 -1.2889976302100188 0.9159804409087644
Ni 0.6776672381877186 5.668403235577083 10.20414551293155 -0.8214772302228562 0.7736588251879966 -0.27018617547594115
Ni 2.427295646558086 3.2545518948030585 6.191374668743057 0.11275701468977356 -0.597328456621952 -0.2242657587947428
Ni 1.08773619343597 0.7712717094799953 3.308129633761006 0.04904944922848326 0.46486522175250267 0.17464526755413795
Ni 3.779844767104417 5.260054483429153 7.434033058547307 -0.27790668404865043 -0.2761025409603761 -1.2658990965193424
Ni 0.6804368208492386 1.8231462146578716 12.474263400156477 -0.324921362235292 -0.021766959363446383 -0.3089149595047067
Ni 7.922194038683161 2.6964972255910564 0.8980388017062917 1.9429016692341703 -0.38509597484265934 2.313709252478615
Ni 7.971378486551562 1.3620037427643839 9.693219212801372 -0.9047938281643256 -1.4216218161373646 0.6798400421636228
Ni 3.9126270031815116 2.492698622039006 0.23538669122757766 0.29341609253815915 -0.11906495918567238 -1.2821384411963401
Ni 6.741813681510919 3.147396416887164 10.553471071970625 -0.9440298908468129 2.223317235747603 -2.2168632525921432
Ni 6.451893582936327 2.432686358539135 5.756509366215367 0.4221417147420472 -4.146514227463994 -0.2925105500047543
Ni 9.010616828825839 1.826727651533405 5.666583754304305 -0.43332344239047954 -0.3945656048959914 0.014605408618000653
Ni 5.007730193713786 -0.06570173783167674 12.671170057306595 -2.601813188775242 0.1237507946971159 0.6768619333719053
Ni 7.620963651115628 1.9963819864275203 12.15354943928601 0.10545688148393452 -1.90497609783299 0.9817762563576511
Ni 5.435433550323796 1.6045301119083424 8.682517314191319 -0.3308086742540045 1.2334137222971275 -1.3866422147383861
Ni 4.473056925865371 7.073180097502631 8.918873591308776 0.14002639192868788 0.15274512504693694 0.07433187794435586
Ni 1.6687176256517107 3.644399649205358 -0.05606711593645938 -0.3280989886323253 -0.6360307582881563 0.7350403414848502
Ni 6.92327005709332 6.197862079788064 5.243451832794231 2.324886352141357 0.4357017128146689 -0.04704527431426092
Ni 8.93238191759657 4.876079914369372 1.6902479994073458 -0.18406501820614105 0.6891196676933358 0.02321834709799227
Ni 1.816836947623253 4.417683829302719 8.274485881061894 -1.5429627158414072 -1.983248962702965 1.2888037690316578
Ni 5.719471185221995 4.348820035286633 5.7214465425038625 -3.875664707372442 2.613936711511653 1.3047543788236433
Ni 8.031047451698079 4.2882325150865475 6.221345542824269 0.8235035166242656 -0.5974179310119647 -0.46146288093917304
P 6.063892216975041 2.4392090272528657 13.710009431224274 -1.4961624676584169 0.03946669063605461 -1.97489724830416
P 3.3350878328331883 4.806176946959351 5.075985329027708 -0.19867531192014815 -1.1326470472000107 0.005533785334035631
P 9.493591220325884 9.213302032312956 10.231413608355139 -1.1939128359890279 -0.4221142039382214 -0.3237893055133778
P 2.5900190660479954 4.902922134268124 1.2486475543202014 0.6177139622568394 0.4052130573075086 2.5869825515203124
P 3.4051485319190764 1.6606547535148233 11.590273851602861 0.19917359171280535 0.8742020714203975 1.024064732713217
P 8.92477368381953 3.8178859359896165 11.286372231712878 1.1002966558937632 -0.3951315047017904 -0.2654885128899557
P 8.802782150038409 5.193797901231783 3.953807032416434 -1.1594389705818742 1.8761157219578724 0.39891642566551944
P 2.854822714824482 1.6672516488995492 4.65912741688353 0.0132280686544998 0.668859374782403 -0.9780576698554834
