# total energy = -340865.9523117735 ev
CRYSTAL
PRIMVEC
9.33692868459281 0.00000000000000 0.00000000000000

0.00000000000000 9.33692868459281 0.00000000000000

0.00000000000000 0.00000000000000 13.66553892111289

PRIMCOORD
 96 1
Ni 6.304415576440275 2.855036692937386 12.749455568344004 0.5820157375242815 0.4971785891732276 1.017986130619305
Ni 5.803741453673894 3.059272669316772 6.180567754300333 -0.04140607375061256 -0.6675576252518438 0.07166770084863142
Ni 8.144014598574875 4.9086754664901555 10.034823873047776 -0.05121740341407953 1.9541638724115504 1.2853042405188315
Ni 6.280522376131468 3.43018215828409 10.546967478916674 0.7163455932888243 0.38004452846168096 0.7367156723047441
Ni 1.1267431967431119 3.1156957288971245 6.456474928370394 0.5124856518439431 -1.2746056231544047 -0.41902965147562665
Ni 7.466405678679967 5.9487906396048515 4.330813888611276 0.7379770555156709 -0.05003341040830739 1.4658090521775402
Ni 4.305127064316802 4.633021323185381 10.407619421593983 -0.6755483567668044 1.8561459637041646 0.32898833321581405
Ni 5.28953812135399 6.933481804500291 3.725949913197005 1.4067477272390094 -1.1831555974725236 0.703070473446473
Ni 3.4200702646012306 8.384440510240285 4.681403419848209 0.7501355452550759 -0.7085788048592119 0.2796051547969959
Ni 1.7507207987115678 8.81854233202902 2.6729245688955214 -0.5792852259669958 -0.904222786152204 -0.46794874577383283
Ni 0.425709790355537 6.793670635518626 8.39106412739506 -0.7702726823245831 -0.056752217189379686 -0.394328806294837
Ni 4.762375132125676 1.9073010914738568 0.5010074511177003 -1.9312010929677899 -0.7410896330027237 -0.29741132974048134
Ni 8.681803012559508 1.388970836709056 12.62335007686656 1.5879333670148266 0.07371481318564724 1.5889155284224379
Ni 4.69557874486143 7.804206418802021 7.681549988752507 -0.020295774134558596 0.5228579962172027 -0.4076327224925947
Ni 8.01351234741575 1.6890877329677474 8.16570615111783 0.5894439116675526 0.7440140057383703 -1.264696591570809
Ni 3.6344928300923436 6.18997284248754 5.374574198654679 0.47209490673172244 -1.6866277329639467 1.261390924236344
Ni 9.081750349498844 8.896272262693664 4.222965827334629 -0.029180735329014263 1.0462952619766432 -0.2741510736609601
Ni 2.838706404801355 3.55785532007488 8.815652552624732 -1.004140482985464 0.4691952165864242 0.14322458715101138
Ni 5.083593487039273 2.606618370383214 8.873389318060282 0.3227904319352183 0.3421405543270559 -1.7908276021123286
Ni 0.8369622804538809 3.8661793765803245 -0.116788170419157 -0.6110686890261798 0.127152107069181 0.8941438046496472
Ni 0.194601199748414 7.173244794234508 5.661455064918152 -0.15953103762051882 -1.1580631732802702 0.38625605658903156
Ni 3.7626515121707684 8.269474908285481 12.78243079911017 2.0717859285031093 -1.9411407206790054 0.2204258162233623
Ni 2.1019947268154935 9.468579301743425 0.3428081349347208 -0.7953645922962043 0.8177239338280109 1.0075765052502068
Ni 8.59771463351257 2.443464879880636 10.325749496784391 0.4280488242551015 0.2997134955110967 -0.09442787736328252
P 7.444137103949015 7.463175101381472 9.562146530713576 0.1514361764275263 -0.7608282490822317 1.63640766046613
P 2.928443625656355 8.98460894425741 8.43680293956886 0.42654370046448475 -1.059723362457091 -0.8587888221891209
P 8.360696700789212 3.783911698612016 12.075854058207808 0.24749824696012215 -0.07094599219125847 0.1772629076826431
P 7.098820136297227 3.6546886066722384 8.538023648919289 -0.2678140756993388 0.2177834935045088 -0.6883979590359628
P 4.235856390971339 -0.06911194555912122 1.146089312819645 -0.6378071334622886 -1.1976003121429442 0.24317570832536825
P 2.4846780827579606 2.4716343934920744 13.316917675138885 0.3679973674891598 -0.6489742058227016 -0.4842659948766176
P 8.509219224162482 1.5410133821676792 1.31265451703572 -0.12798900114817957 -1.0576178860783139 -0.12103236732468835
P 6.659639025345539 8.028180662259492 13.122265122283125 0.0787487760651289 -0.908033932368178 -0.12758688061375445
Ni 5.462131246679626 4.444564756154132 4.219823017165053 -0.009739852995583225 0.11688594925648256 -0.8201875648771552
Ni 5.70590911571544 6.227656686350903 9.204300338562224 -0.15598008704446684 -0.3689918701919451 -0.44111157097633064
Ni 6.925657458326481 5.293048806510736 13.343209532407181 1.9037072584228956 1.037287144940762 -0.4283470722218107
Ni 0.24811860714584322 3.9384752147948983 8.523442167511604 0.03634897094267934 -0.5033222401771202 -0.5716737321683251
Ni 6.605335448559287 0.2982243008297757 1.12622779828393 0.02852201869909281 1.101356464616845 -1.6579067108801706
Ni 7.92714575778837 3.5553903709222716 0.824503082918878 0.6889975402931747 -0.5787532647229259 -0.009896947398737794
Ni 5.472093749504752 9.118220392643119 2.960406733361373 -0.4305258250406843 -1.2477165120730447 1.9344098297130752
Ni 1.9941251906030475 0.8335944503048436 5.494967357209526 -1.6393898830229057 0.1247614953498174 0.10334574867820265
Ni 5.574053009908104 3.724136681661261 1.5107664019408793 -0.48014580206065693 2.2615096876569245 -0.46279805481082875
Ni 4.43788885219915 8.074165035655692 10.121108297703403 -0.7119610910678835 0.7304668631815548 0.6498360396023647
Ni 3.24065184446288 1.6982846076469873 7.34049906378188 0.15759602538133505 -0.1776755697400295 -0.25984571278188157
Ni 2.1388849317471457 2.764010975934431 1.9489241855170893 0.33718758119715475 -2.2376058844561335 -1.8109079178019714
Ni 1.321707603014391 5.400582213293281 10.155189954509659 0.6958937531923758 0.1889830243330487 -0.9195136508730035
Ni 5.235271892282171 2.0372337899878707 3.048672454267695 0.0018316538921000715 1.097808856474903 0.7806925921063265
Ni 3.1928000853450063 6.275237674539134 8.869371637680102 -0.36364448983710274 0.04244891319283012 -0.044693229142316576
Ni 3.078544089964438 3.767833507548411 3.6947795107308377 0.8720405449927046 0.3647652337051073 1.465339054519657
Ni 5.998929946231774 6.558099926729565 11.484860090241263 0.07726190710695725 0.5419612927055569 0.5337949548446806
Ni 0.16166144931096144 3.6429987720545647 2.807789966793335 -1.4041820233943623 -1.413886652276636 0.18784351141196684
Ni 8.548975866176901 8.501478910346147 0.693560128729439 1.287718506387279 -0.20983801340518696 -0.6865243961623337
Ni 7.87007845013404 8.603699604750531 7.906047100212046 0.7957685126028424 -0.7340748922477873 -2.101066679745098
Ni 1.786518582996041 5.350610971381309 6.951837272451476 1.278548924072869 -0.019715476151056368 0.454378720398882
Ni 1.9596719240381786 7.018438517907808 0.4091572833186267 1.2033963499994307 1.3100935316483695 0.1980155668489622
Ni 7.546740612426343 1.4206883831916735 3.5486126944454592 0.45039171072667594 -0.28678444615425447 0.006547571310530659
Ni 3.1423433231453997 0.9470726795323349 3.6194818499686745 2.1938032854488863 2.6316703813459905 -1.5525974107176936
P 3.3133024859645714 3.5563894222833663 5.961754964977566 0.23681325644245022 0.4922220164989007 0.43596602221964914
P 7.189845853300181 3.492300744315546 2.9370111913473913 -0.08537270913954974 0.6757141929207072 1.4745058086205896
P 2.831003438699453 6.630040961657022 11.46766893728754 0.45912626238619636 -0.15702961135490376 -0.9606104209133133
P 4.890925965205652 0.6682747923651245 11.330111702871935 1.045111268970871 -1.199509870460831 0.09038147520805079
P 5.082454381749053 4.7697232949404595 12.619523803522851 -1.1836474495072775 -0.5754905348112541 -1.078789892170239
P 8.358222414707994 0.6299653742850009 6.263640275514683 0.19346754246696357 -0.17370218691457828 -1.6009498338791526
P 2.0275327211637793 6.6916273427577995 3.9966368104821286 -0.34079432471180665 1.4924122565873652 -0.4603153975982911
P 3.982228062253699 5.178942201987901 2.200848524763702 1.1170209106269795 -0.9444592650747476 0.8288804646654628
Ni 1.7305343590602817 5.078915685806482 1.9398094758096027 0.6597664113421992 0.8717757213670921 1.7971412030351823
Ni 1.0595173107628804 4.911803337573957 4.5630055629369695 -0.17374820966116528 0.24682127549775557 0.2597474966411204
Ni 1.2627075511381296 3.3397073200690293 11.299541664915287 0.9198661491164158 -0.7765145494692368 -0.33267683781099483
Ni 6.958738196385919 8.242724607822513 5.300562232961887 -0.36854835489662335 0.6661592022424205 0.5261325532034165
Ni 4.721600764892944 4.775726940035639 7.415317740106435 -0.3822734177921997 0.274212780136831 -0.1519264858003835
Ni 0.8931668559047977 5.9583890022142505 12.308332376241777 -0.01692762899327407 -0.7827564166138906 0.5351638101677493
Ni 7.0260107670091925 5.72744941001494 2.0623753376516163 0.7162085534903279 -0.1056186038727794 -0.30521719893814525
Ni 2.7623583395707496 0.6574010053078221 11.893241474792536 -2.1966142725351205 1.3057398826653643 -0.9059158575839107
Ni 5.673715385873796 0.8636705647381103 7.198745813649676 -0.20769062804488103 -0.5777024548609083 -1.5451484106388162
Ni 8.323853180500603 3.464093882989674 5.03150089494748 -0.6338118962599665 -0.22500752205677377 -0.27281127180361403
Ni 5.162854673995688 6.632701986310406 0.7022500081852447 0.10744948643393107 -0.028188289508757906 -1.2468983870471235
Ni 1.6400408469880035 8.002672173301438 9.962642879055085 2.36416123848158 -0.8951822732164907 0.9985496191612481
Ni 0.9687250169751345 0.20701744741181843 7.4998113418549766 -1.2729171797083885 1.0417775766119477 1.2571511751233833
Ni 0.24501127730497918 7.03533835868895 2.5408201007872013 -0.8684093759980206 -0.08381796305792016 1.648780065988554
Ni 7.004974666854546 1.1469109625371812 11.231747159982804 -1.4391811651773667 -0.7696913558998164 1.0027240622539118
Ni 7.522613988902327 5.928790938525732 7.6935339366213435 0.30509609997924875 -0.8506173421219222 -0.5469389484258064
Ni 6.4635075029982145 0.3575408745858607 9.28198918674099 -1.7920771582487138 -1.0034185172177752 0.8794710331288208
Ni 8.519601888774984 7.198389142976835 11.539509133386026 -1.4161451092935096 0.9334590573095022 -0.653847474754603
Ni 9.183420165115335 9.207621484068218 10.026419703607386 -1.9657960573338404 1.5475161395400445 0.36969712378908587
Ni 3.5917950555662883 7.2304241450321385 2.304214860308334 -1.7795026640178127 1.6134425670295245 -0.20646344050599927
Ni 3.2591202892502267 4.637783156775647 13.88063473986895 0.6684251154584617 -0.6001152753384696 -1.0701072767945763
Ni 2.167474607145961 7.711752151721987 6.795052500952664 1.2588535025264707 -0.1293678837735772 0.039416811234725666
Ni 3.516343335482087 1.2056122326979748 9.750867332824443 -1.0404771126329695 -0.2788965587657455 -1.2351574444611118
Ni 4.052283037602265 2.639988553229512 11.495464973754645 0.01964785613791455 1.0421223615458763 1.849242551716112
P 7.403045281143599 7.822021278586782 2.6155706175329145 -0.15332182348601336 0.3631819483783874 1.2672494398996497
P 0.1928178463842162 5.959826889219939 0.7967415930876249 -1.9267047477593335 -1.342685863762094 -1.7174496034408098
P 0.7458245203076256 8.665192616565227 12.218891136023663 -0.12537804588789375 0.8659974241224183 0.122593284053905
P 9.087249800449172 4.988114055090128 6.389759772385039 -0.5800023066386785 0.21146166505153907 0.027129252116624248
P 1.212997743227192 1.9821925958415565 9.4081908485831 -0.12018518883304462 0.2552573220802507 -0.44484429854588553
P 1.0079214432730528 1.3522860442067879 3.451300423410492 -0.483984973301089 0.6709221708487025 0.15347788944790342
P 5.798139296508875 6.510098776753959 6.354024545522242 0.17862970612318269 -0.14572318520314903 -1.4649765289739156
P 5.132173526588599 0.7801218601647344 4.969227315901127 -0.25748286897665973 0.03109337897069484 0.3331103258039876
