# total energy = -381165.89642639336 ev
CRYSTAL
PRIMVEC
9.18912209729771 0.00000000000000 0.00000000000000

0.00000000000000 9.18912209729771 0.00000000000000

0.00000000000000 0.00000000000000 13.44920904008762

PRIMCOORD
 96 1
Ni 1.8358119833990572 0.27429988642790637 9.035716965005665 0.32387775146212605 0.7168865533939589 -2.011827545671606
Ni 8.072083145469712 7.627688016157306 10.530259659712266 -0.15278549136656913 0.906498212449942 1.594892829051795
Ni 2.8335209051561447 6.697032117675019 2.4046241490183693 -0.8000368009608931 -1.2434433386189876 0.3476216320462852
Ni 9.15116174258631 2.9236478137869852 11.911265238566584 1.3705923603643748 -0.4256222170914799 -1.2320502662906974
Ni 1.1239123233818797 8.235704651901273 10.757968859747423 -0.08650065209640587 -0.4238874937885603 0.9465662841154213
Ni 5.925155058327346 -0.04764192195018922 7.382876022245342 1.6112136776990058 4.652483932566291 -2.035142823358779
Ni 1.0612608895477573 1.75964335109471 2.6081374719006027 -0.5747233176279263 0.7981274997533222 -0.5505649752141679
Ni 7.9927994008054695 3.781213435836798 9.263451894582436 0.1254657205056936 1.884239379506271 0.5753966895458671
Ni 2.66742752490508 0.7679349260072741 5.19166371833363 -1.0584930895944156 -0.37805089507041983 0.5876577663014073
Ni 4.618976499964561 4.0021107397292095 10.30634372924102 1.1732419379032375 -0.7815909355508798 -0.8873643198339686
Ni 1.0081110078674167 7.966996346213769 5.907350215529312 -0.08675030621336673 0.7562925659954072 0.6787216122884633
Ni 8.64951838317907 7.591060175843019 13.054904769070067 0.7377759952484584 1.2396561036624134 -0.346667495663132
Ni 7.224588801138028 5.768011882909728 2.9992807202784064 -2.1464875310820584 -2.295367516746634 -1.2993550621849428
Ni 2.346653653933895 3.7356170124450534 2.396877719167655 0.23607534983516115 0.42246901617447885 -0.6108614581113802
Ni 1.5818797858965443 0.13113428449299278 0.681000318361176 -1.4638925518811174 1.7436236907330163 -1.5185884007621009
Ni 6.414200131464921 5.8120093990725 10.67950570367828 0.017074953204415752 -0.6031378642148774 -0.6691583940800605
Ni 4.6346715203501105 2.7641338448919237 6.364851789558293 -2.425094583631843 0.6421209303462941 0.4018901635818627
Ni 3.108202140147283 2.5882632388269102 9.35384436883924 -1.8475145132814117 -0.10699517250533186 -1.4666261487621965
Ni 6.519057202670724 2.5417387141126007 10.762998066221083 0.03886556671694597 -0.6568507803573009 -0.609003578967035
Ni 5.398085398330635 7.463652999235494 3.2183282539110927 1.2384147750561445 -1.074227726720853 -0.6346395343675844
Ni 6.334006663722125 8.436689128407568 0.6987720803199897 0.8900079281044028 -0.7640321007315098 -0.2741600725220246
Ni 4.768970538461829 4.935238512031001 2.947555152508932 -0.7063774263325189 3.133526321390229 -0.2582482863877746
Ni 3.9613477945124065 8.204222719910117 0.9436502359103935 0.19022178183615626 -1.4863174565435369 0.10707847624775753
Ni 2.1063489243656743 2.536078214957156 13.31403065833014 -0.6046311609309524 -1.260511606955184 1.8362705649364763
P 6.620376461904376 8.975796538231604 9.684762111592399 0.3423734962734684 1.4418579406785814 0.21556977368264166
Ni 8.139944811481005 5.347517659933865 0.6966595011709044 0.9465793967415441 0.7657503689741973 0.26160948955052366
P 5.756700073720845 3.441142408653871 8.321913318908928 -0.6622611527395948 -0.9534825516192804 0.6365516637886327
Ni 8.036686647504174 6.999620716197138 4.429779829167038 0.23629646470703172 2.5495326342039704 2.354071458345746
P 5.4124296177813624 6.253794817735317 1.2749741378561978 -0.3024445212890146 1.0285777900922222 -0.6179093660970971
P 1.205300376985403 7.357674855145008 8.479349627318525 -0.2191520917172613 0.2368356250399534 0.9647848640059772
P 5.033883736761024 8.717315725336325 5.195147314485951 0.4265987220721363 -0.8025868210762565 1.2458259799185512
Ni 8.074729612607323 2.0645935539722666 3.9446934297894725 -0.19940730499016623 1.2701025930777288 0.6689758457556092
Ni 6.305887950385015 4.228337734384865 1.3591768195300338 -0.41152897222320745 -0.5535299713797628 -0.6506824467630601
Ni 7.611698943867577 6.315582474100914 8.889281873461162 -0.23287329795809572 -0.9918794062299241 -2.11495140814699
Ni 0.38237774489666976 0.28670612004765533 4.149201934584912 0.023936199100623293 -1.661402639848571 0.26635908842036704
Ni 3.125771741421974 1.0071277718128184 1.9396049542766134 0.38081431674816996 2.1139736176147523 0.6248058361066142
Ni 7.096630277210167 4.558162890531557 7.151562848559593 -0.7009040619227735 1.81615193980973 -0.8208624794569926
Ni 2.1185704566331105 1.5263774889827724 11.121930685232687 -0.6267681020393077 -0.7454695072379742 0.3668177453587618
Ni 2.4836634630372627 3.87765327128548 11.591510441225818 1.0014292547018884 0.7747834257107431 -1.756253720792201
Ni 8.432554023505052 8.520907431588814 7.9663696480929875 0.1341043700172981 0.29293298225415354 0.06309924245333004
Ni 2.9748955472121685 4.955849712689543 4.398483517440395 0.9771930078623429 -0.9058194412153626 -0.3331265237539037
Ni 1.3857563549312069 3.450827743247764 4.961708696880307 -1.737306490265737 -1.562766895051528 -0.46642176760634513
Ni 3.9165416356131426 8.297023663044584 10.064756198240817 -0.3672185803416063 0.18766996194858002 -0.7581586726698685
Ni 7.5433502543899875 0.659441719223858 12.192501074284309 -1.4889777769845196 0.07622189587821712 1.3153331827807542
Ni 3.093334140742236 8.693754816513987 12.15828629740869 -0.8652947416284388 1.3732071722794028 0.19469498711616146
Ni 3.074193199604589 6.941536275999795 5.208824403679072 0.5572498434335112 1.6177995584466394 1.1278221150075416
Ni 6.706349887388688 6.426293016024279 12.842286864104691 -0.6349712066753903 1.6819308417089096 0.48205895992296977
Ni 5.044212309895309 1.4336592479463548 9.337758810768452 0.6053698388691896 -0.9646555375169643 -0.4997507207757781
Ni 2.3208597884642 6.303645804615651 10.922963221006619 2.3784077210982653 0.3668318864261489 1.091592957472178
Ni 5.377575278014155 0.7057080296098102 2.186101314252202 0.17775116017297127 0.2030636707958309 -0.349066849133244
Ni 5.5388351800902775 7.538305426408919 8.525144535745591 -1.3994252254356672 -4.381533882341132 2.7851179317765906
Ni 0.47685937844596005 5.514493195897466 10.044394022788625 -1.4154689091620913 -0.38635838649485077 -0.38944422450902605
Ni 8.63924494477682 7.32407023597056 2.02167208399635 0.8453468377516022 0.8919334272618898 0.2817317142216954
Ni 5.409029642639293 5.942660335747998 5.20203272360474 -0.32620331427150917 0.11563819289231052 -1.2868219627149389
Ni 5.563535540041308 1.5274985618674544 4.418737261252919 -0.06680420210874302 -2.2253923731090772 1.0015935481938945
Ni 6.691197025201468 2.3443288060664806 6.37191271090739 3.2608473499371065 -1.2114575297410104 0.5209924037633737
P 1.0048672477994431 5.747363925763164 1.311098414284579 0.680686192214002 -0.7623734820821644 1.0690394976516944
Ni 0.07259130710757046 3.762495194311408 6.895180831130389 0.20190256060819423 -0.7483874522157176 0.6113959904586115
P 0.36026228496581286 0.5835395714576729 12.222197559869779 2.3910598626446373 -0.4116333590115556 1.780480968770682
Ni 3.776710766054058 0.5115777192074855 7.296962326054065 -0.3605733071109467 1.5481563442272048 0.01795632736810456
P 8.109639087106565 4.75521442281946 5.176775502860171 -0.46894144870440524 -0.21161104614520976 -0.622082009417548
P 4.374922608618059 6.0177630298996965 9.874637858506134 -0.7387717835028244 2.123702671977058 -0.7148168153491237
P 0.7217843985585923 2.728103297508 9.339023233956421 0.818451556022655 -0.3720059744279206 -0.24941449014622852
Ni 8.335452571271967 0.5998640467006061 1.3515921182266186 0.43295603174873176 0.924669226932014 -1.100336765103079
Ni 0.19109698122827892 1.3300518973333118 6.247560917366724 -0.10383143006536956 0.21176094145951269 0.6017672091195958
Ni 2.1148121057328235 4.9839408586606355 6.671251116976133 0.14319681923686953 0.7876769938439596 -0.20685630506904373
Ni 2.6833890298287923 4.889439927955133 8.912656243106786 0.004201953896489538 0.5821723177068038 0.3228331122476956
Ni 5.313223856608998 4.748929063367635 12.406236376485564 -1.1080482748147238 -1.9187741800583473 0.8424499758197813
Ni 4.164454958201993 3.420678233947419 0.638575060973561 -0.29597202619079344 -0.7231199358981805 -0.8657117745611993
Ni 7.496191680257294 0.0553653789958888 5.392783274933408 -0.4008316404103613 0.044732567020684254 1.5524313174534747
Ni 5.3907616680921775 0.06364753465952834 11.881179134208075 1.1568262155493754 -1.560007844249152 -3.678243322464052
Ni 4.494032008054535 6.915668897554055 12.004925364608575 0.5224828722659711 0.2384898728139248 -0.43631183559484216
Ni 9.222478518471707 3.397016244783021 0.9361399664952237 0.24317699387694894 -1.6110977209464317 0.6325921649202525
Ni 4.6728798896493595 2.813461051817938 2.804159822523879 -0.6698186533718786 -1.0235101457613274 -0.5695605424800642
Ni 3.4041745708253766 5.563719322481419 0.030873612114386016 -0.15797629153888923 -0.23336489288253356 1.2682506274706544
Ni 0.9910651865470447 5.111008037753953 12.692005206088648 -0.3700707050784207 0.37645809666200325 0.07572670140935345
Ni 8.796801630684689 0.9779982550550936 10.260132553587098 1.116849932266754 -0.6884334402595885 0.14352437777961732
Ni 3.1848394176739157 7.651855407032011 7.710982812576989 -0.6274617856722225 -1.9948652067856547 -0.3128716301596096
Ni 9.1353656418587 6.270316859101372 7.201997344687281 -0.15927572707660312 -1.1439938396713976 -0.9882279255202658
Ni 7.189256627026529 9.128345152646428 3.168404672966915 0.6666677664477229 -1.1311082419579812 0.30634102812994335
Ni 4.462007917865049 5.307866598479738 7.17816535676578 0.16116651634141274 -0.2722366302470666 0.8527076489920477
Ni 7.089968163756114 3.201315513429941 12.75922455247175 -0.2136008228817289 0.05174782199625281 2.2158690069996743
Ni 2.3681561994269793 2.4107294016788843 6.962009639828253 -1.2087812684604278 0.6340394388897402 0.7191285553506002
Ni 7.866853294596834 1.689815212974221 8.490996839460614 -1.5697461545828386 -0.4227842334220525 -2.790464026579852
Ni 6.613475431278176 7.235441154226631 6.5395700797238066 1.6395336076896216 -1.0167640852867457 -0.5234766036378081
Ni 4.55805262106749 1.0049223825314766 0.022313026053977062 -1.3043635711431276 2.934282795671437 1.6413436643151669
Ni 5.969262843954185 3.7520012169810224 4.583140761967155 1.7694316529350558 1.3330951347498654 0.18344795344743245
Ni 0.749507060737261 5.864773337628605 4.703901446628037 1.8820557415913908 0.851054943879973 1.5603168908491385
P 1.390525509252109 8.436597237187511 2.5703720182820233 0.3305680189981081 0.1042857439939688 0.6391757316750412
Ni 3.587056476980657 8.629982309795183 3.567792401608135 -1.2047996581048603 0.7312713613607212 -0.20208973691833584
P 7.085805491487581 2.441623229861682 2.0791941499269506 0.4179479883756737 -1.520874111472484 -0.18520093158279716
Ni 1.8529405068174796 7.2945547760886 13.385540405777652 -0.5100168785884764 -1.8823511613446227 -0.280553120532562
P 3.247913551120295 2.6361569427200524 4.478761525105643 1.2994363090448395 0.8449598867258287 -0.48494528033182926
P 4.145102667258217 2.3784020704632134 11.749390584228285 0.38067033497113795 -0.4639167417963042 0.4595268402587247
P 8.20417677430009 4.970699333850578 11.88381549331148 -0.7808802826371003 0.10529207377129608 -0.8741213387811333
Ni 0.10960600945829321 4.520193438404453 3.1378214371079056 -0.6423363887912098 -1.1689852195094126 -1.5088176945285823
