# total energy = -340875.09556587215 ev
CRYSTAL
PRIMVEC
9.24220085157534 0.00000000000000 0.00000000000000
0.00000000000000 9.24220085157534 0.00000000000000
0.00000000000000 0.00000000000000 13.52689516225904
PRIMCOORD
 96 1
Ni 5.986247263827051 6.915781588799733 0.3221479924246859 -1.5712785320669649 0.3552544660011946 -1.2736928815321484
Ni 7.821424825230985 4.7736150923891625 3.2048596749145366 0.8064874416822433 -0.4107221600511959 0.14567947644940715
Ni 7.685906437887465 8.898566335927143 3.765617257014089 -1.51375626948078 0.6922656695214852 -0.6440479721656779
Ni 1.660352094924358 3.8018254262902063 9.664750310680613 0.3632721940993486 0.2758618857044798 0.26719906782315916
Ni 8.943270860211436 1.346135759051415 1.9044654150543199 0.5069112430799593 -1.2047811461620994 0.5961802019501216
Ni 3.9021310293618297 3.1635498109092626 11.545083415757938 -0.9390710041796408 -1.704461161600942 0.37372038601586605
Ni 9.06924205433898 6.326073737552337 11.636227225378452 -0.44003582141364855 -0.7331150994376794 -0.8418663354021695
Ni 4.145358022454607 1.6956295746004277 0.7986952637910684 -0.8833210030025304 1.1859925527006865 -0.1907635132722392
Ni 2.593463151527807 7.734372537814452 3.299818664941201 0.06116525865541079 -1.78718743425658 0.1677634528326401
Ni 7.230256706289373 4.979697681285417 7.7505999936214325 -1.2396810433630778 -0.8183674809492809 -0.3257767682570519
Ni 6.961373364341272 7.763919853120817 11.940108932544614 0.7445881330742854 -0.0442240028153819 -0.9381685469700294
Ni 0.5375698250235003 0.015624864328101572 4.235446372767022 2.278057307602961 0.19884500472879302 -0.656784703006056
Ni 8.859462585204206 3.9920391567626172 12.649513447934728 0.5140758791491985 2.763858251066866 -0.6608796990110359
Ni 8.238562306944303 8.92676428994645 8.001807626929114 1.208473250301706 -0.3220404411430712 0.9798461292144736
Ni 8.249098415624083 3.5089493315941156 10.20907248745977 1.0894903093068784 -1.0872274814146308 -0.09931940112762896
Ni 5.7920778714994245 0.6292690908998507 12.862657078086556 0.3071740655542 0.7746759535986013 -0.5734632199685802
Ni 5.8402482210073305 9.352737315429827 1.9325737197278414 2.131901662848083 -0.016839440154841963 0.28396291754505937
Ni 5.1214545540314385 5.927697923049503 8.212393940175945 -0.8163661342485361 0.48203787687704724 -0.3009874771275139
Ni 1.9445127944581393 1.7880608227640051 4.897168526840714 0.5867149427721637 0.588940746778889 0.004841130142385211
Ni 8.587150386834878 5.661929202702354 0.9304585450323115 1.0646789066901534 0.050605737972009616 -0.38706364009199146
Ni 9.319742659301044 8.52198363043038 12.613721177685445 -0.7681047281389869 0.2985256458505826 0.3028142459236075
Ni 1.7310641716866346 6.002467325873555 1.5312579612153256 -0.8339717631454412 0.18143272278961656 1.4336347814378407
Ni 5.637317222514413 7.803079057047333 4.162631695369088 -1.6170241137331955 -0.17445937679557696 0.12419533843370224
Ni 8.14359869581734 4.185700228057448 5.678671449082549 1.0084900182034116 0.27409810893583764 -1.5772334640988193
P 3.599680014847974 0.5398794509525151 12.04108736781965 0.6648194003850744 -0.3166658070947192 0.957100350877526
P 2.1446803749727636 -0.101567163453018 1.7962900781749491 -0.574502716976688 0.8755508721388083 -0.7114484130975232
P 4.628290730212971 6.912482123186854 2.116539722597155 0.2947885474056536 0.6123041040951778 0.4505449484750886
P 8.38154839236963 3.3262864790088797 1.6830028801457653 0.45957440566720853 2.002749494629738 -0.20189664707092328
P 2.608213703679499 3.2422286645855483 2.956749103026675 -0.9023775054133492 -0.6614677103040221 0.4301183051896205
P 8.463046117227787 8.438914731470854 5.819729611463489 0.2752144819284679 0.5140427119184179 0.4935592472530855
P 3.3693181649852435 5.885128347102953 9.54030223121134 0.4910333955074382 0.08970296108378746 3.312575374439018
P 7.073481257574367 5.481327360850094 12.469673163411603 -0.22987487745140409 0.35238511487319957 -0.3596253413753806
Ni 1.8051588938671566 0.8078330275206282 13.383672273401965 0.22055257160921368 -0.12222150253678304 0.1975370845506469
Ni 2.2544499914549965 8.116001484836794 11.567618673471893 -0.10683370722680309 0.009381441214899972 -0.4180618882457187
Ni 3.3352421713866924 8.076195326868538 9.218200449789636 1.505032516454537 -0.6942492756104173 0.5059162261565416
Ni 0.0062883932857212286 3.72741646928941 7.749138801707158 0.9118862162347328 -0.8613473269449167 0.5531746449228732
Ni 3.935467646912677 0.8935063786081924 7.872896488791888 -0.6630569091680129 0.3578929320653062 0.48693659973024517
Ni 2.4256525153008224 3.612110774649995 0.7288029702216832 0.947111100875298 0.41242705855744455 -0.1591111764742808
Ni 2.586208024059713 1.4669775318480127 10.290301264280574 0.8953725348504258 0.6733372080480985 0.21803031940799222
Ni 0.23233228702986097 1.3792228371861621 11.222100852619407 -0.2582961089065745 0.019644770814121006 -0.7523047849922527
Ni 4.2972443470541695 1.4766818424741257 5.553425767701815 -1.3918718385684417 -0.43563023614678525 -0.9756853129685649
Ni 5.800589938248615 3.070101920680093 9.959852851500353 -0.7798251018997086 0.4670622294038214 -0.16818382819951033
Ni 6.1700469070856325 2.8536680671159838 5.094363815643569 0.2456221129833318 0.6253527097490197 -0.42384661324829587
Ni 4.657838045519336 7.579750521838385 11.389712781533571 -0.17471005935380232 0.3151732817095927 0.2087452945616405
Ni 1.1501456532063175 6.777934166905947 9.516792845554537 0.8431403170185866 -0.2671985536025269 0.1274071605027806
Ni 1.3134645799435012 9.15037933337388 9.272646253502428 -2.1337112052529963 -1.3219339759267232 0.21060317370598566
Ni 6.595104954709979 2.391391677690345 1.2978785328579039 -1.7437062231444937 -1.1044605574634654 -0.23013790130480363
Ni 6.4327657012360016 4.779816608989279 1.1189079394108894 -0.6349195275018485 -0.8335387893730806 0.379392753810295
Ni 3.452793720771008 6.154677127493988 13.55273153092951 1.3256541050907877 -0.01274264437764902 0.05297552375576682
Ni 9.19549975668501 6.131488446197876 7.106245782908305 0.5469752009803805 0.40745043127845965 0.6867072015971012
Ni 2.3499404080159483 2.9058402894820867 7.449287618221041 -0.0926882689643565 -0.4052865908579213 -0.9945021885647518
Ni 2.010816341535982 8.025067473169818 7.302588940816181 0.9418138570321006 -0.9975474031489788 -0.6496331795629393
Ni 4.7635688203409865 5.214911686461205 11.564358949321578 1.0791984404625672 0.9044953230873003 0.1043991296433815
Ni 0.09135915289440674 2.8686404320819867 3.6953719113819252 0.9891224123100772 0.858485174905773 -0.5971793326385973
Ni 5.644378263769984 5.222249993734665 3.8767269925827845 0.1558330199436413 0.041938549215314876 0.668111697983101
Ni 2.389986863199708 5.0927760055811255 11.723285982335401 -1.473077046593863 0.1995633709520563 -0.6044722667555849
P 1.3540378405612499 2.774490134607498 12.576671043935004 0.5471307527216384 0.3104730480204459 -1.1828293244813564
P 5.695191882648432 8.930202388568272 8.29581496697819 0.38189418007591003 0.11723459084515293 1.0094492967928872
P -0.0457951039546571 6.581315591420301 3.0636527131039957 -0.15407181427816047 0.268934305346711 -0.4426637459547989
P 1.5423384355102274 4.537633984563883 6.139884985439613 -0.6487291796914311 0.1636118925581118 -1.0309221219546825
P 7.166420826770742 1.6738087389925678 11.25792084947048 0.15543038518858393 -0.9784469348741018 -0.9590626168102192
P 1.3651562078785966 6.726140874764292 13.090449596183513 -0.09402601393917355 -0.21294647712718162 0.0795545597958759
P 7.301218322467749 8.768057221306819 0.349288638695775 1.6733042763821633 -0.32652701615951507 1.0416325663936512
P 7.3626789564331325 2.6905247421901297 7.095884351819794 -0.9353750433852922 0.34063080255074885 -0.6349670929103323
Ni 4.756701865297937 3.5498922802357162 6.916720596380316 0.30676731703408455 0.48712377604038687 1.020149713929527
Ni 6.705096384006522 5.195281252394667 10.041365363879462 -0.4834776946473674 1.094592149309818 1.5370795175877527
Ni 7.117742156230039 1.496192127932911 8.89565134585907 -0.14137956352247263 -0.1872138482477679 0.07776250089245963
Ni 5.096306526208911 0.6063419638806141 10.487955890453064 0.5398231633166316 0.23308618529985017 -1.4092465824014633
Ni 6.30851355641937 0.689282396251853 6.37941879517411 1.1928324584406553 -0.18309828341749756 0.4832174990074452
Ni 4.164526346491329 8.62617095775245 0.6433366444274762 -2.237970981105036 -1.6262145219832123 -0.7976963257531746
Ni 8.285937827200927 1.658614561212254 5.261596814333285 0.04616621414341726 -0.612228770772552 0.8100134525576308
Ni 1.0619843017182298 7.032713910744097 5.287189392004494 -0.8657881363250894 0.8260309110318097 -0.5415689423631447
Ni 6.3090218774521665 3.2471824841051644 12.369952591637723 0.45517910481299034 1.598759511096053 -0.34800472641731683
Ni 1.2980485893488758 5.12467083983895 3.983778477869646 0.4317314153130113 -1.2392182447940463 -0.4722165199112512
Ni 3.957815287954525 4.882007620982547 2.345157569207364 -1.1641019232751824 0.5899797295663646 -1.1640672133825047
Ni 3.7881562116082814 0.4759853455701275 3.036287481358417 -0.34828189133810344 1.149283370205111 0.9421956658515515
Ni 7.786369158369226 6.5351600416423885 4.887903220742925 -0.3002919937223861 0.02250589441199995 -0.22367903305333733
Ni 3.484244929400211 4.028139192291758 4.803034865327298 0.033818748321657884 -0.6011979668796872 0.5225317232260356
Ni 3.2910736947369843 6.372737608363045 5.446144151620106 0.9277977452586667 0.05151488004984031 -0.2517369676318181
Ni 4.616127994228243 8.14367263342211 6.597932143872386 -1.4684308060711035 -0.5991302857173811 -0.8361194056160632
Ni 7.0007174122797124 6.9792477802945125 2.2956360099722795 0.9422128922427321 0.458469602638804 1.3286180728151182
Ni 5.038857007302322 2.934685197543133 2.914423521175869 -0.6139691505024265 -0.8750353659549704 0.6902049303377145
Ni 0.8639664570623045 0.6238845848324476 6.7953168977874645 -0.24435250224228885 1.333087935661014 -0.41365347476537784
Ni 6.745142839190281 7.47548001471095 9.551272723319148 -0.3701660930057044 0.7672140980039174 -0.5149258858543196
Ni 9.343125426809678 8.366003010966658 1.5942528004796934 -0.09145336811599089 -1.5512313836081026 0.19405015444331097
Ni 2.585209866395313 5.628740460361048 7.673157746384932 -0.4639892469054525 -0.185476553841687 -0.8938905509882606
Ni 8.21550301645654 2.082286278747155 13.253799946402724 0.21061962876621793 -3.559950208447398 -0.1444396905050351
Ni 6.888942238268084 7.380876849407243 7.025300741645806 -0.6763929641552868 -1.0376201028001484 -0.5777088826188116
P 2.690654132998478 8.71137480504972 5.253954438660207 0.4051094418501088 0.8997506093134633 0.6595388687124255
P 0.6965754167423918 1.7957041226571435 8.783094281676995 -0.4669447299893506 2.069042561430017 -0.030131786388373917
P 4.764557735804791 3.7641449744590987 0.15521444103428997 -2.1468989075878637 0.07750076259064072 0.8751796048423185
P 8.712520837923662 5.538749153154893 9.273795983256608 -0.013108512357500005 -0.9454797359194619 -0.1123536086037678
P 3.9066319810522265 2.788787818929971 8.968736819734477 0.13577250174834038 0.1251096227178555 0.6072593425824186
P 5.465754252845332 5.931570405099352 5.868034897100101 -0.023418636034256445 0.4083469749508 1.1601123424998148
P 5.791098198236217 1.0352188887913505 3.893838002766771 0.6376209855934115 -0.1442571421805838 0.8719574983605951
P 8.558998643818555 8.435846320872882 10.437879799182204 1.2472442004223163 -0.05062939212109346 0.06384151993599328
