# total energy = -381158.8718110499 ev
CRYSTAL
PRIMVEC
9.39337291844870 0.00000000000000 0.00000000000000
0.00000000000000 9.39337291844870 0.00000000000000
0.00000000000000 0.00000000000000 13.74815076284375
PRIMCOORD
 96 1
Ni 0.7479257017447275 6.554366748149833 4.959975106994701 -0.109422808110218 0.08703749843648236 -0.2412746346479135
Ni 1.2829280656507678 8.475123611365497 6.86651416119157 -1.1192477430749692 0.7013362643641856 1.1751959763058148
Ni 0.742439972049315 8.506488083031563 2.1128297315254008 0.24636876134136929 -0.21369466814711582 -0.16989129780892032
Ni 2.7539020607064377 2.4427184077105037 6.613272588766154 0.3656597204949186 -0.8930531426886297 -0.6120734761416105
Ni 1.8351456638252712 3.518982879133925 4.615776566737695 0.4065418034212611 0.38904570351902673 -1.6127105739595065
Ni 4.592025423698568 1.2238719310701882 8.014456642181402 0.1176714212722554 0.06341883057627788 -0.051829068856149456
Ni 9.231243152174109 8.14179038538706 13.532895940240076 -1.6738033275057689 0.5080407286987121 0.9261198433356115
Ni 7.12556835268466 7.893889884716458 9.611194747853512 -0.5230076344211896 -1.0896947120082008 -0.8113781941156414
Ni 1.7410804289453725 9.20360784949619 12.36967889579526 -1.068804755933069 0.956802874241765 -1.9726688731942736
Ni 7.060988914917603 4.924560212991887 9.145627256097333 -0.5972554372921713 -0.9432914700188916 0.1052884742268703
Ni 9.184774137100128 3.537957492121482 10.237807858335664 -0.6891448645043163 1.369984037356415 0.17429996839957726
Ni 5.726312758698296 7.499415195403362 -0.03955173536901348 -0.9839192708425829 0.8144702027774038 0.6411318269601474
Ni 1.0670213926215617 1.6331130023716205 10.514956503788124 1.051831361303524 -1.5855409555232498 -1.61100618967389
Ni 4.656323060282641 5.845993721111396 2.390954348408261 -0.3738044610892401 -2.285832323562689 0.1797046843549163
Ni 3.7969891395199324 0.5171399262539916 6.005123091793083 0.2399111786414836 0.37105183804476743 -0.9344790139335842
Ni 8.310298099438437 1.7191656902820207 11.266815210710025 -0.8436105717867858 0.2880062343764976 2.312451211701798
Ni 8.457943132576268 0.574195272435388 9.288072118071842 1.2280761121342978 1.664017708873915 0.4961447485920746
Ni 2.3848928049622855 0.2665848584396854 9.06158474995888 0.1708174091676155 -0.9922424459962976 -0.3832134131079658
Ni 6.123023070729727 2.2597824730903695 12.09709355083258 1.0433667754759386 -1.2350677129607828 -0.5606730101824473
Ni 3.36079848175251 5.942623346756444 9.88129084903317 0.05756751400182344 -0.051388638884621175 -3.0056033975932945
Ni 6.027126128160435 3.264225216344058 7.0352999190768255 -3.862087997129271 -0.8142259479770816 1.995252414921744
Ni 5.888921434652552 1.637330626743607 5.505213429203979 0.5480815466706819 -0.8884025312904957 0.9512564905022391
Ni 9.169556873219017 6.33898610399553 7.360746469280833 0.1487869117301373 1.2456588582130677 0.06501857096322997
Ni 0.7186691029273785 8.995920377637338 4.5796740778484 0.2806983878611747 -1.4009254641302775 -0.4646736745669869
P 8.314130595527013 7.746019410632239 4.1389360883249005 0.16529622223907015 0.32809410353631885 0.06649438417780806
Ni 3.046468048879927 5.878757805319613 11.971986036972492 -3.0253877793090735 2.534629491839893 2.5571829516603763
P 7.661554202719312 0.2685321046141015 13.038361165547746 -0.5600256064064355 0.5591948829750241 0.20519048733084663
Ni 1.0981322432229421 5.3700409164249985 9.200000794354002 0.8624225622869663 0.42545303850346733 0.6767297786694152
P 7.033579053186074 4.865607405511733 6.562308844823586 2.3213755107746215 2.6186037779700193 -0.5655725043665937
P 4.213153126549993 1.8442290552901066 12.537474592190968 -1.8501509224629942 -0.9346435645359064 0.45008266412668935
P 8.641292375598113 8.381931960152848 8.047755209300012 -0.17380271704818454 -1.090390709633961 -1.9292262286296062
Ni 8.620655135630953 3.808571168140555 5.237316316588868 0.3381532875445338 1.836936223544933 0.24786540049155376
Ni 7.122656407127164 9.097105789073954 1.4739113027196349 -0.9075209972875016 0.2405094743471148 -0.09427952471087633
Ni 2.5478490357088885 1.984969959444842 0.2772097023754407 -1.2335183661957918 -1.9722166161482035 -0.48198182682813123
Ni 5.503821331360041 5.86633037315004 7.819315898326252 -1.833884838313119 -0.10261298427723618 0.38281154968385683
Ni 6.856213388616246 2.5391789526457624 9.581952239095312 -0.6107655559634642 -0.08450187649882221 -0.48367104160509605
Ni 3.5053812753685873 4.56047308457718 6.6773945692795005 1.4794127590039037 0.4359999607813781 2.027536471766431
Ni 0.6127118581255754 6.930928275597943 11.663683331403927 1.82958389694492 0.5292176198866434 0.09584892608052525
Ni 2.2038825117592054 3.895140491553092 10.764237830255345 0.21567878845668015 -0.3426254643832744 -0.14311840059045028
Ni 4.28929580619214 0.9343850904894323 10.401561586430109 -0.47968428904320615 1.2875711821761373 1.284043371528537
Ni 0.7691904190126637 6.096909494439921 0.921776366225473 0.44693023454063674 0.6248238338287433 0.26515041282424656
Ni 7.537448961733371 6.990773453490877 1.2991879939089166 1.6548530116555114 -2.358134572671526 -1.2037707026197142
Ni 4.270668747996929 3.2387316026568156 4.884731373126272 0.11816584441017068 0.053464804687359535 -0.9411502553061726
Ni 3.952768833473222 3.088926093782777 9.240214762503028 -0.4137329218530616 0.6838789881196867 -0.36033676562010847
Ni 4.098262784247612 7.923300534847171 11.237078610544327 -0.6316202879252864 0.6867349695112431 0.6712196474844634
Ni 9.30931147323331 1.4140689428385314 1.0246657354818622 2.9525844221941018 -1.0738785709115506 -0.9190979034918236
Ni 8.491994108853444 0.7049735654343794 3.119895104455389 0.6320208657978148 0.36520643500758393 0.681084198983369
Ni 4.773308124711865 8.46912124616795 9.093659360606066 0.44772881918253216 -0.4945583779415612 -0.3146950565215935
Ni 4.585431276016753 4.423245301836972 11.738170898764684 1.1007419709612978 -2.1196593551456204 -2.2627044792959743
Ni 2.738938417890013 0.18406126067751513 3.716084019885364 0.9878317185231117 0.2462872573711565 -0.63700212106249
Ni 5.582547188512871 5.8232147921535615 5.1834237190178225 -0.6649921785175128 0.9550948904117227 0.6847405647890337
Ni 6.848961704840804 4.29464063529606 12.283409220973963 1.8459499970077693 2.27096183420876 0.3328840687257944
Ni 6.437879532477212 7.017826367057294 3.162597377050158 -0.5545810383520964 1.884275374950529 1.5855926346967917
Ni 6.292338614838991 9.374811461531445 11.229846652851695 0.3017883757622545 0.054594804526744686 0.5879732406592971
Ni 1.6429102901666808 1.9475655490901629 2.5762113854389033 -0.5155182680226799 0.14107488779786026 0.45343101177363204
Ni 9.063233286879335 4.130594773308588 7.965059712816222 -1.7962030074916289 -1.4508413751241143 0.19737381949990523
P 8.160586524292059 5.283931868278002 13.887556819083985 0.9642289915025072 0.35499272769937573 -1.8618944361521677
Ni 2.426092137914476 6.496156017118204 7.654048897879185 0.079660746356437 0.28929204306745665 -0.34003353528638214
P 5.017883371423261 0.1428074461632812 3.132103671039512 -0.34603860382988144 -0.3012340459206812 -0.4680161086766585
Ni 0.3930384426171564 3.861343136340602 1.2657851603526038 -0.8609675750079946 -1.1138204014118107 0.05824551390545453
P 5.334327313168221 6.4073698577328635 10.432082533221777 2.4691578924996445 -0.5269612197522989 -0.1299443251023375
P 8.796470893694371 3.214684568375555 3.18108823134026 0.2898157767814105 -0.6820743308107802 -0.5502165907358137
P 5.369317626722007 3.4600770385176034 2.406792514229212 -1.969938104526672 1.1007797661777687 1.0714653334843676
Ni 4.498251383374419 5.493958289955618 13.701145336540385 0.004839330370172311 2.122113216002752 1.4302573803251755
Ni 6.091996760483242 8.680622427369846 5.570860893454543 -2.397696137014232 1.1866818654582272 -2.530586432118771
Ni 7.039581418383622 7.281874075512851 6.764227846466767 1.3079998823441343 -1.1612048042330454 1.5524493151756036
Ni 3.211951096900615 5.512500807795933 4.737379413218743 -0.3010800368413202 0.7142218620776023 -0.40232622267801676
Ni 0.4399987310868066 4.8040150602843035 12.467950482999827 -0.8538929275494004 -1.002238895087377 0.1206821830741212
Ni 6.515929066790881 4.049520572964229 4.177100422536358 -0.4583145651181784 -1.2720836280634997 -0.06676357867879469
Ni 4.310553008761863 7.6962345349718175 3.9418556129935465 -0.13535341193305075 -0.7680201388449804 2.0240685678224883
Ni 6.795776428239048 0.501989355319521 7.811273292563903 -1.0902215310459482 -0.3641772224121212 -0.8989211714336326
Ni 7.107354602891157 7.0795877929945155 12.075509458890595 0.6365488355751554 -0.8508266299192507 -1.207801678155978
Ni 7.992576658997286 2.415270972487909 6.892098890594644 0.7251464794099061 -1.9575605567979255 -0.053382272275882256
Ni 8.164841722155112 0.16002737711812745 5.740980510272588 0.5005091962083573 -0.09358686951922592 0.631539555286022
Ni 6.360882055913349 1.7436166395922243 3.3134558830112786 0.38843660918011813 -0.038372172020295206 -1.1170134544278119
Ni 2.3220887146480256 6.544926408519886 2.995461095422633 -0.5723586740504917 0.5718141144009314 -1.4948985133443289
Ni 8.054648066235789 5.506639343189876 3.33229053474462 2.802236336624432 0.3294285060770262 0.5321769596252834
Ni 0.7597632301045883 1.6647780619662018 7.6345820721586835 -1.2793577931274096 -1.7779769714019058 0.05330411073977916
Ni 1.1553378833685966 4.690186169104494 6.401661505102894 1.2455634702857838 0.2328244469980313 0.14914198107671087
Ni 8.734108291900117 8.803346842559169 11.279918026381482 0.2800854368675241 -0.02766995511144267 0.049163606208844364
Ni 8.539590328659362 6.0575512625498895 10.269290686498582 -0.005836661286435109 -0.13320962611717058 0.3549199654799113
Ni 4.262036238424868 1.8463143840441847 1.7265066110987417 -0.4343305434987553 -2.343260740883487 1.7534450476988124
Ni 7.075511069214021 4.29031029045088 1.6073516775605439 0.7769344106154749 -0.20925977230421378 -0.1744696612082221
Ni 0.3852278531621299 1.8136254468180963 4.936342320452427 0.14922348504692368 -0.04016397381339534 0.3351216998070616
Ni 3.737331829082321 8.979397434941738 13.34919256706495 1.349674122154469 0.7361430876307257 0.42002184018556693
Ni 2.608445683423111 4.015122041894708 13.248240111272935 -0.11764416757874577 1.1733918332175404 -0.11808999686691275
Ni 2.68826117181681 4.044016056523285 1.9448273809288397 0.893163700124565 0.5075982418446547 0.4875750046451925
Ni 4.314563978932996 7.793352616000704 6.93829267984658 1.1622065060246822 -0.7254426704940862 0.01790670507709174
P 1.7850977737273983 3.305696957106466 8.235211234895203 0.88167266876583 2.132014020056231 2.2040411611268107
Ni 5.056170758817956 3.4039140627489877 0.2462660538092971 0.567994483544525 -0.6998182850577626 -0.7432881833159393
P 1.1077134834443818 2.6472403129471758 12.283821590038395 -0.4648906756737994 0.2483150864344627 1.2596508016167856
Ni 4.111206851919322 7.973620832755262 1.7019250939070893 -0.5579077887324843 0.9430533858661565 -0.8501722841647036
P 1.8436842396696718 7.6743104029357 10.033015423963327 1.0445587389015107 0.023161268607811727 -0.09366066017995484
P 2.8352768489793116 8.085486509026952 5.513159283226838 -1.4839186172940575 -0.9803392668008084 -1.698465349028823
P 1.9099920580256937 7.790111902396394 0.1433757452156313 1.311067979746497 -0.3726598059618357 1.3335985567488453
Ni 7.291276841651735 1.8561774254486079 0.9022268788246298 -3.011376809741962 1.9720813761219196 -0.7458487449542639
