# total energy = -340889.85376072983 ev
CRYSTAL
PRIMVEC
9.08243779078416 0.00000000000000 0.00000000000000

0.00000000000000 9.08243779078416 0.00000000000000

0.00000000000000 0.00000000000000 13.29306577369746

PRIMCOORD
 96 1
Ni 6.366380162639264 1.9465298966360494 11.342335377499644 1.0424123819824693 1.4142733461920933 0.09334081494669086
Ni 4.171754396050573 0.366944109309257 5.946161198139599 1.5660702483931481 -0.6364758162453749 1.185116063633004
Ni 2.7272744116773806 1.7689137437295523 4.827629015497971 0.22094132240720016 -1.1550734945243268 -0.7924695301365965
Ni 3.4887914059730045 4.5808183104888895 4.9622216607179235 1.088479608654177 -1.4842356343138439 -0.15224890213680875
Ni 5.346168093520786 4.8319840444056545 2.926681149266495 -0.2478913686334827 -0.07391844455602108 -1.1220975538189386
Ni 7.41799021910678 6.127076092441863 2.3530053163117173 0.45404833364265673 -0.6687094794680999 0.5615284162042071
Ni 4.970482137863988 4.587666468562703 11.031077510607053 -0.8796569238873819 -0.003165285101859065 0.9903771106527846
Ni 5.555064162085392 7.930521264548922 12.373371895944876 1.2677533761192616 -0.6744052443012967 0.8228851663139765
Ni 1.7178341137466246 6.441319356627376 0.3725843031605014 0.7601283948017297 0.49919073450725004 0.10162850887677981
Ni 2.8450645470345273 1.4729443443245613 0.4672342035833478 -0.18083416997366922 -0.7490996477913937 0.7724802314988631
Ni 0.3967063496170551 9.08815969946962 4.656201635683644 0.5720457707957632 -0.4849553076341584 1.1905354348763624
Ni 8.80325270926079 2.0095983444670327 1.423195291474012 -0.1722366581126453 2.211502502500862 -0.5767976836584517
Ni 6.822064230118542 0.5096982331036503 4.735016305865517 -0.5072943374509908 0.3737921197940659 -0.10166913230672814
Ni 0.6283321269290425 7.326112278689409 2.385148063557375 0.08124480301410524 -0.2531947831242672 0.7033067578269953
Ni 7.636722567769449 3.891125234028435 3.965481335512118 0.3863511874059991 0.23666593223130858 -1.203443144076966
Ni 7.67279801056678 3.7401115413317525 12.87152907538222 0.4055023064131532 -0.8303963870893569 -1.6669410531682969
Ni 7.85029609178235 8.569498008536996 6.879041995185203 0.7442487474569957 1.9590793074352968 0.7587214871518739
Ni 7.084165219102777 0.7200974451181446 0.2682270932558354 -0.6205146649304282 -0.36608163852368564 -0.14294330846516673
Ni 1.8098392082926877 6.816741921589027 9.378935760961339 -0.020302973223410195 -1.0922295626149126 -0.8148432698461064
Ni 0.21482508393673488 4.6386189444169394 1.265091847859002 -1.3959223544887314 -0.06576419088000288 0.5953903590589746
Ni 6.323365737390484 1.7620110910291569 6.927867364115186 0.7015764053994498 -0.4044067593561293 0.5981455532066086
Ni 3.7243444293740064 4.449849557936646 0.7730199017233229 -0.10134003110208352 0.3358794039086925 -0.5584292084535931
Ni 6.073553286700506 5.693916470616508 4.90325393353724 -0.37709135937062804 -1.3603917656822893 1.1744922653705707
Ni 5.44600224941914 3.0596553040769594 9.0844940275882 -0.11370292354281064 -0.3484585261252837 0.2987531884803565
P 0.06178328288742302 5.4293904707493725 12.485844263991389 0.23914293301689138 0.3958938367891117 0.20766106035852624
P 3.933413064256122 6.0670320963861855 12.648232801743303 0.8721140785431174 0.014006598691737166 0.7228317152338002
P 2.2495381853078915 8.513277718779825 1.3968489560091335 1.6557261582890839 -0.8717363834887245 -0.3054288007283191
P 6.250461009461436 7.750116803248975 5.824861608830567 -2.1655188366818963 0.18611701563916336 -0.025964028163929478
P 4.978438353344971 0.9638555427948536 12.61744606245576 -1.5918021059416134 0.028925167674782447 0.4184400975207439
P 3.966000850952201 6.259861332546843 8.343366197828257 0.7561573259691236 1.2077034620152167 -0.7670459478571693
P 4.652878371705915 1.0030190144318354 3.946538095068414 0.5172344793828383 0.4533754759453482 -0.3985742118347522
P 0.01855996157007702 5.634944202216944 3.7549458869311687 1.2109384240127468 -0.6394289853364278 -0.25169325887807625
Ni 1.3805032927658412 0.8830772495684734 2.667971542543218 0.8083453208265885 1.2715547521432229 0.08605970790424533
Ni 1.9284376806108015 6.2112612080734 4.927593050256346 -2.027701279479069 1.9357578591005369 -0.5527807519185642
Ni 6.190689486538667 5.50479286906343 9.130302210693088 -0.8767546626389222 1.5289887701598184 -0.4166480386173276
Ni 8.637516384949183 2.3239233505924184 10.164835467677335 0.28254212593813277 0.3482806057865227 0.8063259764037146
Ni 2.4034310107756602 5.225925699967446 7.083940882890015 -1.285931075469553 0.5270254973313311 -0.6154807020509464
Ni 0.8398175985000728 0.02949430839376957 8.959473363527389 -0.5914570854428395 -0.2903860474625838 0.891777875520632
Ni 1.7176433825535873 1.3072261848884832 11.482590014421474 -0.16250811797097173 -0.28291416456557084 0.049544129476714674
Ni 4.289862416729449 7.171338456758563 1.4439858997588486 -0.8321426803565023 -0.531606174723478 0.0008656904344049607
Ni 5.708557360291557 7.8997227180922875 8.158672101172526 -0.45550563491447355 0.19664285487115166 -0.6203462576733639
Ni 5.184482536451782 2.8461635220039323 5.068273653509291 -0.5562887650718226 0.32686305934269516 -0.2472989864651225
Ni 0.7823957022267682 7.349172588171387 6.877593346361897 -0.3891176944075428 -0.49833275738232885 0.36050825820096627
Ni 5.029754126709754 4.492191882790914 7.031659646390951 0.541493351930203 1.0854619048737757 -0.13148801544037353
Ni 8.222785029346332 7.47630855198736 9.262222802722965 0.18972247360223454 -1.1569262314623494 -0.16113489177252893
Ni 4.99129908521834 0.2723432540503345 10.436013444962589 -1.067155136144788 -0.41133511104484644 -0.8736734526104374
Ni 7.966478635655324 7.241391299229815 4.691694894220324 1.2401520694622254 0.006783855691052832 -1.1259493234648608
Ni 7.345848415949882 6.195376024424726 6.8377804804248115 0.4163937565146764 -1.329290930512427 1.8597943590900292
Ni 2.071458828075447 5.224390767985385 2.551364848826679 0.45804228529339824 0.19177061438051488 0.6634523448342188
Ni 2.199266892285931 5.428536721599587 11.514732761667133 0.13257816318075877 -0.768713051146947 -1.1497479685463554
Ni 1.2769816671354337 3.293973115942101 3.9851684276086674 -1.7408165603015244 0.863467715722029 -1.1871441498066264
Ni 3.67628016872862 3.186119167498419 2.7443266885786874 -0.4534076147348643 -1.5110219012687525 0.6302280355634502
Ni 1.0716368317364264 3.390283285988148 8.489071205652069 -0.5171547751848384 0.4792014358695167 -2.0196699245341603
Ni 3.7084774106008602 2.53315546935428 7.052729085515132 -0.4269332225934196 0.42953595032358927 0.4337890691729885
Ni 4.103726937200621 6.991151973964945 5.9761768384610034 0.3094898581715702 -0.32778300005380323 0.15370646051894174
Ni 0.42245506067708366 7.310563145237991 11.459167315672724 1.0197704762132374 0.3945398938643786 -0.7160918254068055
P 0.044889948646980996 5.78386893422798 8.196277934733036 0.5057974411904902 -0.9586743802328652 -0.601321636941745
P 8.7078780303044 1.6855460474967474 8.017805307945425 -0.1200556052337158 -0.10015320988283397 -0.9898284372381663
P 2.039815614906791 3.3708831989249304 10.31035428552699 0.4902682352066395 0.13333715283397035 2.4900599327596344
P 3.655517716000851 6.3027758509802245 3.6834416709052804 1.6108274980041803 -0.16396001992614986 -0.9969493645536637
P 7.008426770591462 3.8668024656973037 10.458957499241196 -0.2310269887779763 0.4710680081291048 -0.01857262079586479
P 6.310795643525552 7.59507050818522 10.204887201727605 -0.07749099239862782 -0.05827893824655124 0.7712355604584846
P 2.189748497509596 8.499499660692326 5.888442306151422 1.4291628617094159 -0.350316405269629 -1.1743562540133388
P 7.010170598642088 3.8768203945506414 1.5677704440400229 -0.39329959369937423 1.0798754119249336 1.223949491560434
Ni 5.493984768124654 2.511003403648668 0.7243498424790988 -1.0369742416860335 1.6619271448934734 -1.0432423340829324
Ni 1.5636778975837096 1.0946335641540605 7.03777394349346 -0.2757112190592284 1.3956814421225188 -0.5767231216667745
Ni 7.28221685697755 0.5764559671542401 9.083217945082403 -1.5273617760793567 0.43352553109895664 0.09608212513725388
Ni 2.8411318514828543 1.5504357033242662 9.322267707022421 0.37701165517262814 0.03271214552104044 -0.3368754492733747
Ni 6.070438010547565 2.2605824296285246 2.940386547851886 1.7462511010535344 0.03782349860567679 -0.14355034592154634
Ni 3.9468096599575477 6.978954260048325 10.681974942040767 1.0133884839462934 -0.347043390945312 -2.134462481596724
Ni 8.104013990710708 7.22290853838073 0.04550937090246387 -1.3358066201437575 -0.7344592721703996 0.8293365783662751
Ni 7.578912851403636 3.907682518071621 8.150150958062643 1.7201572321799603 -0.7244435398056104 -0.24915763694041607
Ni 3.2078352761913735 8.23870654274606 12.528714278479727 -1.390686817121405 1.0730149373596747 0.9478335808636194
Ni 9.057633626145895 5.0347948796685955 10.270236249681048 0.1871922509812131 -0.9451102683951852 -0.38593749690734824
Ni 8.502542277343156 2.5723280234290256 5.8123133128162685 1.6616780049971445 -2.8364885729390825 0.5468078221645808
Ni 3.4859758502662643 2.9461520793442686 12.10515751810191 2.0875259649461855 0.041380362718999704 -1.5625131271695092
Ni 1.399948792017877 3.493041986846406 12.680095809905838 -2.152671291295267 -0.2636797418159911 0.42647788022355587
Ni 3.336624243680335 8.342437064445033 8.029517111441688 -0.9516568112644513 0.7877996354647528 0.6733495493432726
Ni 5.662037114065996 7.501030947580093 3.5431870339834517 -0.7545354740949844 1.0510479461702802 -0.5477105364845083
Ni 3.1939663937262366 8.502587689531977 3.7232545368423655 -0.7626413910315704 -0.5387420144373108 -0.24378068889921886
Ni 3.3894204544005984 4.389387769743838 8.890920939774695 0.2925622291782961 -1.943423346065595 2.4481236975371647
Ni 7.026873201689492 5.9220491423645845 11.389485036662231 0.8820894445882745 0.1615439542854895 0.7818177068497052
Ni 0.4737326878032598 8.918381690353177 0.20648014011946708 1.1738859992451396 0.9955432282347565 -0.40204802931596567
Ni 4.767335252403791 0.5188960178269275 1.8167364115304252 -0.07348315679081538 -0.9942419929248295 -0.3531955265896369
Ni 6.071591480143552 5.686423459461474 0.32119677853738476 -0.8313672356430586 -0.3729781085332028 0.37037203836892346
Ni 7.76788205151473 8.96878013750383 11.387145400694306 0.2312267634936082 -0.4440505989999965 -0.4061239991575522
Ni 0.10977125105559475 4.787906973938523 5.9249854944935825 0.2643603128227834 0.7993186918479459 0.27198183392378317
Ni 8.149335355151464 9.043846485620632 2.3085931038911056 -0.9403318731699355 -1.0036751133132715 0.777700342247222
P 8.451162926914028 1.6079820289949331 3.6599926330870156 -0.19435894393298142 1.363053628785169 0.25822463223869074
P 1.8015469426144493 3.097683470993481 1.585636507364955 0.5439497838904954 -0.10043474567899476 0.4158895631847483
P 4.788488249955399 1.167620034022981 8.370935937659903 0.28658004345293225 -1.8132887593293223 -0.43834609241605155
P 8.847111801221592 1.5951485444348554 12.328879758071945 -0.7811528195721967 0.37958584365770753 0.6182346106469998
P 6.4751605197348425 7.920721314201912 1.4706918997591687 -0.8155626645106341 -0.260636584114293 -0.6487296939120634
P 1.8663592184960591 3.2485609271237084 6.07482482798742 -0.4849889890855712 0.8632450581882617 0.976311376588338
P 6.882816656319788 3.78232671205733 6.079317909949113 -1.444732691123215 2.183933077523026 -0.32199853216154223
P 2.4674531145718297 8.628406699872214 10.378840407484011 -0.11168152223740765 0.37681985087679626 0.21799252419152132
