# total energy = -340888.44221563486 ev
CRYSTAL
PRIMVEC
9.11051645908028 0.00000000000000 0.00000000000000
0.00000000000000 9.11051645908028 0.00000000000000
0.00000000000000 0.00000000000000 13.33416174298184
PRIMCOORD
 96 1
Ni 6.085651879122399 2.114587306752475 11.46247187064968 1.535757970562852 0.08622605827878053 0.24683618789609102
Ni 4.784715684710757 0.5028567767624178 6.117860287876931 -0.8303650196307893 -0.11353425917543028 -0.7513298226734932
Ni 2.7132484522476497 1.5241165155328433 4.892383767945862 1.3690653821968872 -0.22773623384184652 0.3170591858783959
Ni 3.5936887605773604 4.017865295299246 5.063834576746118 -0.9235189153776546 0.40967752083676545 -0.6931295601836772
Ni 5.499362814946676 4.474247505620733 2.5304504952269387 -0.5954988596123808 0.08177856403038819 0.34854362963992225
Ni 7.387089151937994 6.057892135543336 2.3567594104351848 0.26821696756471225 -0.546490290924162 1.2457120800485062
Ni 5.090564831967966 4.814415968290588 11.64673662081651 0.2800052184488919 -0.5885193429707541 -1.5913215667607692
Ni 6.05684442615325 8.010867991245927 12.45430737448827 -1.8004826087035894 -0.8022155537797668 0.015722810051895502
Ni 1.8230963333976626 6.359404676977233 0.5135998977431959 0.6518193885809807 1.2229542175267 -1.1869664865781817
Ni 2.349602188723432 1.24608177495331 0.544084596788126 1.6024032784962274 0.33941698474830573 0.549779246088079
Ni 0.15920627471090334 9.005034876240371 4.655089434762735 0.9068460827076641 0.5842939920354969 1.4209355887036172
Ni 8.913228202119527 2.2355020808848423 1.2715137815830948 -0.004087282695496187 0.22654092798216466 -0.001837567429371029
Ni 6.9096343171011245 0.4453001781293075 4.719386904506495 -1.0458700015137663 1.0198668925817855 -0.10290454737572599
Ni 0.42875092502416556 7.504396161561891 2.5217034883971854 1.0600709756044968 -0.6275903408302869 -0.18241719819007296
Ni 7.543398282422399 3.859852498241397 3.976766844606922 0.32172162435107177 -0.12791443915650227 -0.6088467416741965
Ni 7.667529068856509 3.6646505730937107 12.537365219676074 1.4092812922941405 0.12572077393929315 -0.42416080205460505
Ni 7.858166625269994 8.900546363241267 6.89049494417336 -0.3230449711481856 0.8170454197037478 -0.2702535383787668
Ni 7.026558685034728 0.5923147597461833 0.37155874704847647 0.019389974490837573 1.0023702784589188 -0.3089059606436422
Ni 1.9283319087444806 6.55917097085912 9.257441734086756 -0.8155670353860083 0.6531800163739331 -0.46305336535474445
Ni 0.29510238206985717 4.770475947522021 1.2722034476772643 -2.1251841416185915 -0.6546229194680468 -0.3669352447732325
Ni 6.487616974774459 1.8936572831908498 7.078639863290085 0.2527417547472486 0.883498152010343 0.17031964359559054
Ni 3.4949398729326404 4.4234563764926484 0.47554435954033963 0.6713823983145727 -0.17677594074389552 0.5101243507006182
Ni 5.743387997672372 5.7083489514613195 4.991843275872553 0.5882660893093675 -2.17299200513049 -0.42927884000746064
Ni 5.5759002635215715 3.0078278906741076 9.11181923938123 -0.40744426063087247 1.6835125843737329 0.0034172532116650825
P 0.17886676917877914 5.682629963563816 12.365447952434318 0.1524039396574343 -1.058571251130519 1.0782545884920591
P 4.037243363757621 6.288579522207415 12.789781188038896 -0.16820156881132323 0.09297366141525924 0.01827617260136852
P 2.403226688462967 8.260459699513733 1.5554166057987537 -0.930249806343585 0.831100355134917 0.12576576824461566
P 6.038750940512285 7.7737121379126215 5.767104494057347 0.46980431092533287 0.2539797409194078 0.7253832780110604
P 4.523061652682308 1.1067819786540418 12.77782090206233 0.21928013265469334 -0.7441106792172345 0.3716305933663729
P 3.8567367016204455 6.600295842049106 8.346851993716943 1.2639491718818232 -0.8795242549642593 -1.2940218228974876
P 4.876877668972587 0.9889556695933199 3.6475601553122985 -0.3985742118347522 -0.824933821312889 1.048202506301685
P -0.03619790390165156 5.486015908368623 3.778647732096579 0.25034317260808503 0.27591125088517643 -0.5818797261670494
Ni 1.3369682869141666 0.9218111634634568 3.1446222949536047 0.7595727794085758 -0.08192923067563955 -3.3198845065059213
Ni 1.4221425050699454 6.776802987471083 4.748361990978058 0.87509450132768 0.22339544037464754 0.8486208805171835
Ni 5.8920989574495435 5.803216759104504 9.183384168085613 -0.05466962362873811 -0.2534441801309119 -0.06173347245405498
Ni 8.72290040326485 2.501046303431263 10.190779522944446 0.284020253145556 -0.5743075702467464 1.1309321213914327
Ni 2.361309202343089 5.492074401798251 6.975486952000429 -0.9948837402738865 -0.010404483162775629 -0.2527962621342678
Ni 0.3979774226082291 -0.025202421615609264 9.579088516843175 1.1450315369072925 -0.11021830742831987 0.27316531270892314
Ni 1.6738569636672302 1.1133688820369305 11.519756064841365 -0.8516864068163849 0.1754929602664139 0.6064252767168975
Ni 4.147152634035866 6.721948568012751 1.6934254419191073 -0.11388984274263611 -0.29822405544976377 0.11220859838547129
Ni 5.876401537631123 8.263065307214296 7.891636840550847 -1.6212944589737757 0.13388454069700811 1.551017982045716
Ni 5.456142524976516 2.689214909890719 4.975549117227606 0.48871117513216483 -0.03678631559041407 -0.29047577896291266
Ni 0.6685907364993791 7.93034013647227 7.359910659307519 1.3895383053392585 -1.3602323572862896 -0.1557288902656092
Ni 4.75912424404335 4.812539201904869 6.972633538252821 1.4375449151255242 0.8699636078590178 1.0036301190079489
Ni 7.984329056869226 7.249811890287415 9.051175997779762 1.9050624868992094 -0.12471958636828841 -0.6512964261979751
Ni 4.590661684633947 0.49007745535829855 10.600618837951737 -0.39862023458133927 -0.8510670280648309 -0.4568711478034325
Ni 8.07875044920707 7.196588253271043 4.959454478892597 -1.1453215573438855 -1.444710579636028 -0.6283938105681888
Ni 7.0454356750891485 6.315063793485503 7.032117011112045 0.6465054325672349 -1.8386362369551754 -0.23833894905835729
Ni 1.9460063106294108 5.415600726838404 2.689340635017529 1.1058864912767148 -0.5979349798576993 0.8959474335172892
Ni 2.425829879739519 5.582159188312781 11.349011321064863 0.42152207888017723 -0.8044650119355757 1.182884603199324
Ni 1.1120569676702143 3.1231396971986225 3.9033488368595526 -0.6067883164832711 1.4250470397688295 -0.404842047121335
Ni 4.006231165811073 2.554379266644861 2.441005266966183 -0.9204955551702986 0.02317618100614718 0.012826462340706942
Ni 1.4937511642532189 3.6037467707221866 8.231285092732232 -0.7951110815245017 -0.1702502238102358 0.6690889742947057
Ni 3.656360003137378 2.801529356507944 7.148190456810572 0.46110421204817365 -0.8809951830828311 0.7579797238898429
Ni 3.8663847385256727 7.108225354362828 5.8497897191229375 -0.00013498291596750946 0.01049909975911095 0.11885335739549852
Ni 0.8734097227964117 7.496588448976641 11.558424740800335 -0.06838903009735964 0.813851081136166 -0.058847923376143814
P -0.007820467308259766 5.845097803158639 7.837446577740665 1.6826103842744378 -0.9299692989886887 0.21386461806607687
P 8.825311718516652 1.4096884291025749 8.250726023754012 -0.9562120347353015 1.1912036645879807 -1.487086730609394
P 2.079356939696277 3.5289858728522194 10.531427198778811 -0.1508067703736435 -0.27275522175469796 -0.20069388501207372
P 3.9000116546892176 5.534629624068616 3.663774141412613 0.41774538544656437 1.7699391886990938 -0.1988815143936833
P 6.94087427795856 4.027194464129229 10.463369818902105 0.3706497175103423 0.47890781588849773 -0.7940098780405229
P 6.4291912328734 7.922732855248601 10.121655301593142 -2.376232053603185 0.4842567389052369 1.1620103308534762
P 2.218356088953173 8.626319818531785 5.8239887365775145 0.13443629943542007 -0.4983217016387353 -0.8688588048306133
P 7.23815953976637 3.9122015256799583 1.3145600606893348 0.12353867868630983 0.6017199008214281 0.6330809316312129
Ni 5.506104597108968 2.814630279142238 0.37376166992258786 -0.7369771534962469 0.768464939691883 -0.520355284400007
Ni 1.7059442025531701 1.094154802874396 7.1688184881239 -1.267223728868037 1.8868099684469246 0.3319425307481315
Ni 6.807669417154662 0.9969729240565872 9.514270836610947 0.7004299504998324 -1.1709760246871963 -1.1393144319178572
Ni 2.816661924307361 1.7308796860372182 9.510537346975667 -0.20129500893118235 0.13790523182062703 -1.1619550521355084
Ni 6.378163230317991 2.0714216798809297 2.3510926692122847 1.5956047675171554 -0.6238766394241255 1.366737248284343
Ni 4.460463294253775 7.125453340942417 10.692397269471632 -0.6661273205632205 -0.5722067218536597 -0.7995950854377842
Ni 8.12090480875427 7.11812848572825 0.3842096101708547 0.5595376110264234 0.2697568012480064 -1.1589352914725783
Ni 8.069175296433325 3.7814656148300885 8.257806717127707 -0.6928835056111422 0.3693613377162219 -0.769686727914126
Ni 3.3234890641323833 8.354534892227026 12.437559512124833 -0.8119587492094597 0.0798371240333012 1.0684725694046309
Ni 0.29038860086611346 4.876139717141309 10.271557916920083 -0.4200231257371476 -0.10121816081223858 -0.38032220760309987
Ni 8.697390957245362 2.0003414306509173 5.992319193498601 0.4102449633044612 0.42761842158590224 -0.29998886065967045
Ni 3.8723976793731234 2.832532443938056 11.709874321818026 -1.8876579182695168 0.22712045463471853 -0.2118247048179126
Ni 1.4561156208580404 3.4420624355408185 12.8778133752005 -0.41313642591964334 -0.08734320260235925 -1.1861254787341249
Ni 3.2810067259935027 8.753857938112784 7.955773965205341 0.1727400801116251 -1.6046707343741655 1.076774661512423
Ni 5.57263869863765 7.5667303150137935 3.7292987977202383 -0.29410154864095794 1.1778668382697586 -2.1930206416465907
Ni 3.233550045880822 8.270207952099753 3.651893116929037 -0.458683775532139 0.4822721043750404 0.09599470762977017
Ni 3.738965055658337 4.603689723136757 9.249734237182299 -0.9034766520147989 -0.4842400267346886 0.4632361707895119
Ni 7.401219562929503 6.086189399592095 11.197189119924957 -0.14461452552000256 -0.04938652085292785 1.0004033845405351
Ni 0.44862278347334567 9.059169564900296 0.38565180492259926 -0.2121689755312088 -0.7196062663179671 -0.2637093095023459
Ni 4.639758257705024 0.04264541638307682 1.545229226320543 -0.8649016199550782 1.298563676631899 -0.17189187317871688
Ni 6.088102608043557 5.616186967199488 0.2217900563131396 0.0908023647955533 0.3541157244110611 1.0218736385991691
Ni 7.937018145019514 8.774593473520051 11.335011190458383 0.7872486480572893 0.40715783973870523 0.7274584153725342
Ni -0.02449726764349917 4.50524148253441 5.898152895620955 0.5417268080972477 1.1318806013476312 0.5953795604256972
Ni 7.73936549095067 8.89448786981164 2.573066757957422 -0.15536302228575824 -0.018480575302690757 -0.21377822899985763
P 8.366642768569847 1.7491280504575868 3.451174774079637 0.36939039118194444 -0.3380069917746566 0.796399461318622
P 2.0727882573462595 3.1436292486621316 1.709546500751779 -1.2614510880503176 0.4136128513354296 0.17709630019779177
P 4.714810692100928 1.2417542796464327 8.363332917948819 0.5013733439808655 -0.849085478858428 -0.32170105552578143
P 8.605784714486099 1.4944708950516257 12.267415151381432 0.35838504121037634 0.5655424224596067 0.8741043695002688
P 6.213016898891122 7.755126684384138 1.3970867627689485 1.1200807804992257 -1.1564582906869956 -0.0423830929519012
P 1.8321430762181448 3.252764125043357 6.060456745919938 -0.7266803995559291 -0.5339921584571514 0.03689764435729775
P 6.976951923043262 4.053277872684155 6.096418687445909 -1.5441683061137343 -0.7090560016059466 1.0243146439404938
P 2.413330251189971 8.460672408700962 10.287732727799723 0.9366289703970514 0.9142344047519352 0.134986001291303
