# total energy = -340889.6503643431 ev
CRYSTAL
PRIMVEC
9.06870570507376 0.00000000000000 0.00000000000000

0.00000000000000 9.06870570507376 0.00000000000000

0.00000000000000 0.00000000000000 13.27296747819538

PRIMCOORD
 96 1
Ni 6.3901999307562205 2.219783348235806 11.719313240403439 -0.09696427063189106 0.5358580080212965 -1.582212148260333
Ni 4.801915898029415 0.09574376640220918 5.917752108678032 -0.6707275383393932 -0.13273911423865528 0.3971845305760772
Ni 2.872086274425897 1.5977789675058371 4.837518729403823 0.24399049091717978 -1.633026145588407 -0.04120167104929033
Ni 3.586546108902032 4.2495954512460425 4.923527240328198 -0.7234860609883474 0.557551176724014 -0.16240913049926223
Ni 4.99849822964841 4.472150555746745 2.564708845695277 0.0889606836011242 0.36884068932606157 0.8315865507427163
Ni 7.351836405478114 6.482065918637404 2.6421827977652614 0.15518124529225533 -1.5010213384126148 -0.9356254688332015
Ni 5.0511783405666515 4.423079789663321 11.457650249808086 1.2739193957206576 1.0175834958642473 0.2878154585219301
Ni 5.71140731546436 7.970594189597869 12.177018067763125 -0.2655116528184073 -0.0045436535066244324 1.6572626495382685
Ni 1.974284418528846 6.668146689154086 0.28380423535467303 -0.0453714861562638 -0.6694622984737244 0.20576435755644565
Ni 2.730832115764761 1.6900167723172401 0.2834433008711912 -0.952252021646289 -2.0377496648540068 2.1669049183961455
Ni 0.5159241036676442 -0.07757370783175128 4.8611708205186215 -0.040795693860123286 -0.08011300340250718 -0.19927566450830841
Ni 8.467731562713228 2.658944486353691 1.4740428274814317 1.5785380418428556 -0.5051163559630656 -0.17015612143453274
Ni 7.11283066899158 0.2897387963092087 4.739697322545188 -1.7218155937189896 1.0270461839390441 1.9203785484309894
Ni 0.6221059502328585 7.613704348820369 2.2898390991126214 0.6774106067865237 -0.9889115818508518 0.6659380873705498
Ni 7.71289785083857 3.9710048147495027 3.6878145307649732 0.4100300190801777 0.30735944209212873 0.01910303937803807
Ni 7.594161288219781 4.262255364284752 12.66372461567997 0.37503627661381217 -0.6486314777713023 -0.4735588928717586
Ni 8.03175354026625 8.723704847405653 6.87254352440163 -0.5884339823457995 0.6924564453760526 0.28793527192924606
Ni 6.769516680519917 0.9945468073991698 0.3557172571414653 0.08152531036900153 -1.788512837936223 0.8840442543218001
Ni 1.9730692119764195 6.474121732518557 9.150609629884702 -1.3646412849872627 0.12803116724002467 -0.044872435032658205
Ni 0.2597259150759633 4.885384264510996 1.2505554600434945 -0.6643427178589719 1.1464096482017418 1.4024892090729717
Ni 6.5227934755549155 1.7603173782456638 7.1160355495559635 -0.19378353104548562 -0.6382604189496234 -0.04873114665711607
Ni 3.5212332910619257 4.423116064485781 0.5472773395908046 -0.062120680590144625 0.39089972600863 -0.35298315346851467
Ni 6.12306306945158 5.602727947372741 4.967540389290068 -1.5732086592101422 -0.9093084282052274 -0.9011359196967642
Ni 4.876506001713793 2.8510378086931993 9.613902593644424 0.2849751608596576 -0.2916358607092849 -0.46762555810645917
P 0.2860469262532926 5.662717435016771 12.482097486490874 0.3455835185703338 -0.1472185388017529 -0.6307306862314815
P 4.01659319787672 6.059273794154813 12.457887669980744 0.2644873253189509 1.8706279593704234 0.8097334594233668
P 2.3527215038478757 8.610382302039092 1.3151708944217986 0.8836807003347942 -0.11313805217827612 0.11708186731737254
P 6.188285200235535 7.4301174723478445 6.1284607630337 1.4153254416056915 0.5182801470385333 -0.33030293826217955
P 4.623706763986659 1.0304135381069763 12.483425144992927 0.8107359325459522 0.2077039977813197 0.10229596725744963
P 4.051480508378093 6.188439368230992 8.345670412615934 -0.6833434273311909 1.0085321842952566 0.8596650541464872
P 4.814639292007432 0.8628410888801954 3.7929099463974962 1.6756892316745722 1.0853806580138792 -0.06195021645055137
P 0.38332511764558036 5.666789283837961 3.4760575340401965 -0.6848508651146528 -0.053041343996695745 -0.15522084028093913
Ni 1.4092133716506108 0.9104980437582216 2.787535104493871 -0.2247606961532903 1.1287703378534237 -0.7175396135969255
Ni 1.9142858621792005 6.670967056600389 4.791593897298284 0.4298308558561888 -0.8348850189883298 -1.1338199844621892
Ni 5.837698109860545 5.759970234033337 9.555607140209299 0.7883004863605715 -0.39421644908668885 -0.9199461104247317
Ni 8.610019553814487 2.5962071809082787 10.350432936976082 0.4731390317255207 -0.6695880254183113 0.7583885292924876
Ni 2.2773877663030593 4.811592206920751 6.837330647368674 0.08681972599872145 1.9505265327692798 1.0401696086948795
Ni 0.42412613107857455 8.678062052044746 9.072060129328761 0.5774844253128312 -0.17528161558655617 0.5809155624815673
Ni 1.292045695103238 1.2853620590648933 11.591189660602438 0.7750546770942588 0.041443868967083464 -0.7805519527634042
Ni 4.131167224618167 6.8084032901975595 1.5778504869166068 -0.1567431904627365 0.5675774506117645 0.26376947331631995
Ni 5.579965496278785 7.992948548939144 8.264028483445239 -0.09420342005730228 -0.13363462946973118 -1.3201761126953522
Ni 5.274322910932337 2.8090315642839556 4.767477488455991 1.217641032843903 -0.8482311012779328 0.13125070261858685
Ni 0.836997998488783 7.297415103081768 6.900203983398313 -0.0980706163221924 -0.6164255824627191 0.3872341042315847
Ni 4.741200913936176 4.608961048656471 7.231550907940262 1.5648574590319693 -2.0311573563484697 -0.6436569073748464
Ni 7.775499125699755 7.22074826581153 8.703177832245824 0.7745121743272274 -1.0425977585203978 0.4917651314671401
Ni 4.759084401409196 0.20642550469364684 10.27330359571947 -2.534855748918086 0.9851953093415291 1.3750501390254124
Ni 8.15125187415671 6.8239742577387235 4.897021227556321 0.29776922730053235 1.1908491094620395 0.3231902384767983
Ni 7.428666479449426 5.531874150401794 7.002100866560383 -1.0161681035739596 2.1441038613412298 -0.7518707827786277
Ni 2.3549251993123503 5.293294643079172 2.5015298942864077 -0.16734282035545375 0.43489232953949614 0.7937208860451943
Ni 2.3598041629332855 5.396451169451182 11.352647334972838 -0.4752576207304202 -1.1329121279359393 0.06697595179991692
Ni 1.6274699096897456 3.23025480269513 3.770332496898089 -1.4775749344642166 0.570393837014637 -0.514612725489275
Ni 3.869707373028593 2.2677568009398 2.402101512792775 -0.7710206162342012 0.8737310453212502 1.1672975473943445
Ni 1.060639533922177 3.2113556201932156 8.27971643728884 -0.050282550304635985 -0.5704989951339337 -0.13099076408898086
Ni 3.6922962850799665 2.3108966335509344 6.98515145576572 -0.1066061645970293 0.9514151275672905 0.13610623093867527
Ni 4.001947238308298 6.601509840294172 6.230729463125989 -0.09391005718659955 1.5582566658860002 -1.289623950940108
Ni 0.8390203198409552 7.508226233810888 11.336945778070817 -0.8602682349481249 -0.7859438132029367 0.8934290379708097
P 0.19180947185375516 5.548270370153935 8.055629628409742 1.4312243722241351 -0.39281391231220736 0.752933162604871
P 8.534422823806832 1.390459288438539 8.441169323966536 -0.1708526332809251 0.8334120339872291 -1.4906122272641489
P 1.9486290503436665 3.242216425401475 10.458275263539424 -0.8589310041939401 -0.4748272180612209 0.5443699021470496
P 4.001938169602683 6.079279358741772 3.8729059054990467 0.27531115540733225 0.6551787919715167 -0.769032896380211
P 6.8835284475132275 3.9504732652368673 10.206566991097791 -0.8138780777193596 0.20044063135068707 1.455454191305777
P 6.507694080705738 8.032669479533377 10.209685718958832 1.0618591778531712 -0.40169013175591467 0.8486622752780805
P 2.4396631845800476 8.442375461813347 5.837172124934868 1.0099025822802221 0.7720711689859026 0.20170535699572362
P 6.873208260523219 4.239492913190797 1.5094017106747912 0.6127990414537253 -0.03595250683520905 0.7228610258098389
Ni 5.329388091427356 2.9249477594564413 0.5840609164362999 0.00029850507702529236 -0.05364735301181083 -0.5851766517507664
Ni 1.2902772975082892 0.7454312778928989 7.153850238229898 0.17372712661524273 1.458420730133269 -0.8668471737172232
Ni 6.676589654081765 1.1040423589961497 9.536573740864283 1.3461298564466364 0.268142405573035 -0.8838750757337874
Ni 2.5216986955744387 1.4411442841214546 9.189857174045825 0.8206503634461866 -0.17533355187041416 0.6273036628278036
Ni 6.596676220201313 2.043306336965537 2.584777891221541 -1.6294646534893937 -0.4543265270047079 1.4671416549460345
Ni 4.042121604183287 7.030341722716433 10.453629365652798 -0.5777723888668952 -0.04819995674399441 0.11883921632811147
Ni 8.359469355079904 7.363489692193545 0.1178487363390684 -1.1596264040023319 -0.09314463977548475 0.7858569099160853
Ni 7.872053634383956 3.7711124055809893 8.327154836361542 -0.7958430745945198 -1.3325186934211053 -0.12066418535199218
Ni 3.066129368472657 8.4641766301121 12.378183723200001 0.47166501828315543 0.2597444113173269 -0.18307668615094275
Ni 0.17074105496870437 4.943596285854463 10.32914233680346 -0.08782091356972617 -0.09718178595933585 -0.5585683051346187
Ni 8.573037372316021 2.4420029106287493 5.8507906001570955 0.20261861283861232 -0.10595079040121752 0.6607074350992298
Ni 3.552420569672329 2.880828506638874 11.936458862004722 -0.29701563696395944 0.09514984313097162 -2.0614814612533077
Ni 1.08768241406647 3.5332402572963466 12.75411421828701 -0.16679800359557725 -0.4684434260220642 -1.2306060776450034
Ni 3.182399243164132 8.252630934228156 8.10641165924274 -0.16419630430667204 0.8492811398090019 -0.49862637736334775
Ni 5.4748773356107545 7.825921128919832 3.519194646039646 1.4181623968338541 -0.752413285545659 0.5437543800502378
Ni 3.294189177281738 8.515287854958926 3.4182536044494105 -2.1039396304175186 -0.7251472507408544 0.2540170219152464
Ni 3.074989493858631 4.355481658008204 9.014853827438014 0.8154227964986601 -0.7311584899319408 0.6749256355811409
Ni 7.57880796961338 6.44822150928177 11.315456573245221 -0.7326286467195641 -0.33956148074597 -0.4609795135448513
Ni 0.45035826894087566 0.2336742444554031 0.4675697653278152 0.033367519716852215 0.6005559624203141 -0.07367496108664731
Ni 4.680232006085713 0.24200112995120787 1.4169290263879564 -0.578675360297139 -0.3811015089712856 -0.4524689049706789
Ni 5.860859584001565 5.804715227538347 0.2850883640697742 0.9695822853946205 0.4157836337345033 0.11635167401956736
Ni 8.250010078305385 9.184512985826833 11.299715114038495 -1.2271991088459833 -0.2518765785334759 0.004251319077186227
Ni 0.32951504600769405 4.857733781090491 5.550621885519935 -0.4339050259255624 -0.4845549868719461 -0.16697232438991247
Ni 7.802578280666508 8.879260354821836 2.7769573662643934 0.9398395069145491 0.3005503895900953 -2.0072216714684785
P 8.6416330615888 1.7467959381735174 3.8005548652310437 -0.3593165518857102 0.06996100257016984 -1.0259259542916719
P 1.9224930407608858 3.3023872871578077 1.5174846479895492 -0.23725060109018498 -0.43208545621832034 1.0761473123410692
P 4.75528461375646 1.0109520958569251 8.235584488283411 -0.40767771679791726 0.15398568232225737 0.2938423814423004
P 8.442103400644893 1.8711823043905267 12.69404039168076 0.8836629597229814 0.7113692231201555 -1.2754412316818227
P 6.477930588876908 8.066541095005856 1.2890357917095792 -0.2898098632441396 -1.5587924837848122 -0.10545071083634741
P 1.7198528137909908 2.965385117794269 6.103096500298766 -0.3501839934568227 -0.8688541768449229 -0.6632320012932965
P 6.661154717124828 3.707223374522457 6.316352554061722 -0.16830055628303273 0.11411481426924862 -1.4692964965055084
P 2.2159472857606097 8.550129821932224 10.253686171732841 2.053098379395935 1.0195007674916183 -0.4635580729053049
