# total energy = -340864.4625202081 ev
CRYSTAL
PRIMVEC
9.30447783438950 0.00000000000000 0.00000000000000
0.00000000000000 9.30447783438950 0.00000000000000
0.00000000000000 0.00000000000000 13.61804382166582
PRIMCOORD
 96 1
Ni 6.250850585290367 8.010885620015202 0.8020124966544498 0.7695298906212876 0.3754728499305985 2.0024545890971384
Ni 3.4678068172290657 2.433697841788418 13.401912196273999 -1.1213804731472559 -2.815904321029828 -0.37052064813164576
Ni 9.305594411762536 3.031836201945354 0.635138546872345 -0.5256849241430367 -0.33098659459276547 1.8561117680321193
Ni 5.175569295255422 6.4700640840116455 2.47784386751138 -0.06807252729820534 0.425662326300796 0.13554315934635366
Ni 1.3472232648705487 7.2617262794785935 7.757369302714308 0.28590075799772047 0.45377219716313466 -1.0591677470639371
Ni 6.4198571214012885 5.78358901091499 8.384779550264161 0.03315077572035581 -0.07206082252199202 -0.5609172649827694
Ni 1.6296979086599928 8.548935662059149 13.826672776614613 1.5851586324831666 -1.3623527460634022 -0.6932681426440706
Ni 0.5491912238507746 2.472795257816721 7.911701746769485 -0.9153772601071266 2.4449764101574343 0.8283793566593282
Ni 3.918543638899478 1.7098838989817235 11.075092100485653 0.4827225616488977 1.162531750574585 -0.4105015593999575
Ni 8.509345108703501 5.260975097664701 4.77183032177648 -0.7036962799559301 -0.6380022801922303 -0.10489998053919998
Ni 8.5820502988142 1.1150207150365827 13.172380031589993 -1.2119254705163645 -1.3033688113300261 -0.27902845635791945
Ni 1.3172163237255519 6.291343672999832 0.9660895203875047 -0.991691458588834 -0.14716197453220464 0.050683385287480454
Ni 6.923443377398393 7.3299001888644515 3.898328730269518 2.230020873020024 0.33552664855496406 -0.5090159481277878
Ni 9.183314963536942 8.21373254215538 5.508485374497659 0.3389343886849324 -0.053022060722986104 -1.3464458450251586
Ni 2.8715665705585107 2.6952932372276694 7.441606958881347 0.2835440848400859 -0.7712846685288652 -0.8274589017275878
Ni 4.9963650513941396 5.49120509818929 10.526679661432969 -0.030061852382386935 -2.2376858457644495 0.8251711341346757
Ni 8.916620714222509 5.673879912297732 10.613167574619043 -0.6476449454883169 -0.539719804969548 -0.600082108107689
Ni 4.9210918253901 2.042760899416888 3.6577661070653877 -0.3385410099012557 0.8967138793696685 -0.15232115013564088
Ni 1.1158209001337827 4.024614686667838 9.773738050640409 0.8158786530891561 0.24530252486038398 0.29083676184675716
Ni 7.778710983614859 3.601419119505702 7.4326876863909295 -1.3787615264387287 -0.26823856483126707 -2.582186929903882
Ni 4.367735917242737 1.2408451693323321 8.62927796760917 -1.0826385764923678 0.09947032488319643 0.3001397844152379
Ni 9.000398233003766 0.760733180564596 9.951549414163894 -0.18454787137983056 0.14211438480596814 -0.7016741073195787
Ni 3.6178787408655473 4.608256670296432 12.925647609107337 0.3808593110534924 1.312783676886023 1.9109464564838121
Ni 3.3347434791470194 0.4161716168147382 1.672731118829174 -1.7223856072898467 0.3079081155067471 -0.44702099448223004
P 5.193833985322904 5.654991822212663 0.3970816195597956 1.4691154908429538 -0.03378352420834827 -0.2007198531540027
P 3.062345584895569 7.892551270408359 2.7797425393114583 0.7791797550062258 0.04690026409596439 -0.8237097190978009
P 8.11652866180134 2.6142233215078683 2.66228653241596 0.17064000304948676 1.4476246679590294 -0.972780223506628
P 8.495267433679508 5.802328229354067 1.2278468137417706 -0.14073395951867373 0.39548374583488666 0.3602285221770183
P 3.3372463836952377 8.445246560626638 7.997168958732734 -0.46952123246727523 0.4408688588379053 0.2519542258489467
P 3.068505149248434 1.5455202973301367 4.74291944812509 -0.5052644515051556 -0.589910566891326 0.7004137525499163
P 0.6692813284325203 7.812569978599865 11.426043049191874 2.0953696293603206 -0.6273779677091647 0.2514878277354895
P 7.964428361988235 3.3675231546985924 12.389369139650677 0.11598632026034864 -0.649070879301566 0.2772623655964322
Ni 7.2398886699073355 0.9302095928081756 1.5776235373402396 -0.5683593230831114 -0.34466229230764517 -1.1506239433934056
Ni 5.511135289796293 8.431261930381389 8.265539874960137 1.537355911177591 0.9081599164230811 -1.7766651945690175
Ni 1.9050081044861353 1.495973952648863 9.481426712842131 1.204700670633151 0.5221316595741394 0.5366074845928114
Ni 5.363184787115178 9.142942834039843 2.719659803885194 0.25347683314106023 -1.011808283943367 0.4621197977968815
Ni 0.48983609859428984 0.7069458548681627 1.838585297836243 0.5419942028260214 3.0973580989997886 -0.2877817770705173
Ni 5.992623410841655 0.7109421281152251 10.169124394331485 0.7280302287156043 -0.9267119683936558 1.2255178644888185
Ni 3.13143133311312 5.459932748053372 2.053928133761764 -0.3694718951521572 0.7445038008905952 0.32753540281937144
Ni 1.0900568008995204 4.3770496995950285 3.509301997205606 0.16135677797534792 -0.014242368851627087 -0.18239662936478265
Ni 5.332433487740228 3.191575478093356 7.304405919488548 -3.4283107550308247 1.4833334342145486 3.19988572265207
Ni 3.049840366632352 6.138378056744407 9.165297772580919 -0.29940342046984564 0.4814172125739128 0.3265792095536892
Ni 3.0676770507176108 6.3060354435635375 4.117524550482836 -0.4963285824681065 0.09018170049241889 1.5493418798948735
Ni 6.169045615818487 7.33343589045673 12.418158124641913 -1.1882679789984243 0.06807381284978599 -1.7227830998385814
Ni 8.824283075796789 7.67708747627047 9.4040488139429 -0.37591148012991393 -0.42158378535604807 -1.2890598509065219
Ni 5.639323081472145 3.1602379966123166 12.523738826426293 -0.12758405240027706 -0.7529645300634388 -1.4107511919714477
Ni 8.213034706314797 3.0901752782179526 9.952134665822193 -0.9489597240482626 1.1325354613228107 -0.009953768778602212
Ni 3.106588377188425 4.491662258052105 5.4854707484752865 0.6102474786764651 -0.8944068285030468 -0.11999132765468368
Ni 0.6020071620571188 6.764401937090972 3.492252471948523 0.550860909188032 0.19592140332409483 -0.1392262646248957
Ni 8.483385615433876 6.458638185181861 6.825540730755983 -0.9212342331085359 -0.03304613182169147 1.5127661376533688
Ni 1.2510893994720658 2.5264820951521103 5.457240032156516 0.03613762626282164 1.4605681154935748 0.32367694830522964
Ni 6.76507185949793 4.7637531045336985 2.9198307581886898 1.022545467855213 0.059945013095064496 0.5070135729857784
Ni 0.5358160369062993 0.6791980409510746 6.843665853655349 0.6828482328623272 -2.2500903900763896 -1.1249777035802109
Ni 4.180604258232449 3.597836895524052 1.5497063819258372 1.6290208810837559 -0.8830055286446405 1.397581230248393
Ni 6.620229052426871 1.995903548841321 6.099808204611584 1.42752686876789 -3.2101002012912265 -2.0122214386759154
Ni 0.33450993630212456 2.2794202941527 11.55593169942317 2.095982837464287 0.4199123111908962 0.016639151218577796
P 8.830451944627526 8.542627226060294 3.0382674570521515 -0.05641308868240607 -2.1653851393175096 -0.01293033490842289
P 4.788810063449505 4.3616507887128675 3.8127526559151366 -0.8078735233964925 0.36095357326850097 -0.2411900453539072
P 4.427526492063744 9.056885718179354 11.700419075439425 -1.6001617907602184 -1.33803525236396 -0.36152872904568056
P 8.222413620012212 0.06179755069851942 8.068568730597653 -0.5190512208766028 -0.09645827752975002 -0.5640678947966091
P 5.918187587846314 0.3897413169646675 4.778952899589347 -0.4029294034796545 -0.1312211349322321 -0.9831641378441133
P 1.1645577552399822 6.044914576495882 5.7824938738691705 0.34931007549230164 1.263994937518094 -2.000905242332147
P 5.842393311081309 3.3278860789535734 9.740060492973956 -0.5764210170453233 0.013900926351808316 0.7695041795896748
P 1.8344336398086778 4.052676991937082 1.216808911639349 -0.009412037342519275 -0.33261795954860135 -0.2707926987116885
Ni 7.881488246215676 0.8218180082579352 3.8892317422517 -0.9245478708628013 1.3165248890960102 1.9676138272688692
Ni 2.03514053203774 8.4251116705064 9.836912664064345 0.2566140932184613 -0.44648414814215365 -0.9029423767778837
Ni 8.100785485237825 8.552378318872682 11.438830193134688 -2.5897639709201914 0.7738465157187705 1.3796166753501724
Ni 4.353983898944347 6.880661388131821 6.851319717154845 -0.5924546734694184 -1.6823789849899218 1.075047137298355
Ni 3.6985206506031245 7.2299328785817085 0.47329087603800046 0.11017819821900379 0.8537085794527363 0.14274096264637354
Ni 4.92860984351263 7.715542883325438 4.914439123709892 -0.8987957015993617 1.2330918201813343 -1.6103143058131877
Ni 2.3699156459592854 8.384460406673067 5.4281793564113485 0.35516756271434313 -0.051044368171324996 0.4818676698477701
Ni 6.072223219057298 0.5512949662981804 12.537697404133494 1.3241482099692228 1.0895664139604524 2.1631392807061265
Ni 6.222825497932622 4.147973454326867 5.604383836605919 0.7932490886150985 2.690560727924295 -2.65549859411384
Ni 1.754033646495835 4.7533506982701 7.389804278315527 -2.9626346073412524 -0.02943424610071705 0.7472908767174291
Ni 6.8376188734847645 5.167009175610957 12.107707707227458 0.3429656213315126 -0.21318944637592316 0.42628787569993687
Ni 6.9254438401413925 8.620766231249652 6.349031435821222 0.5814020151996826 -0.40819579408491635 0.36349947961880624
Ni 4.866576889523887 7.670667386537121 10.109654823997147 -0.7945341259751091 1.0631089910998723 0.9073608175605534
Ni 8.901463719765083 8.233997694965861 0.8293760356353246 -3.144316470027198 -2.0558839125608723 0.5360426132282768
Ni 2.2163173252083994 2.4026674080772352 2.801421972758851 0.35707326437748826 -0.3023589035537438 -0.24935972564889314
Ni 6.543271715927563 3.449793348064193 0.9866459033554557 1.1969523941462998 -0.43487510314831557 0.036256668339189176
Ni 0.7709448450317694 4.486247051929193 12.633595866241754 0.9009101768392033 0.5519978510059526 -0.6081024073090043
Ni 6.8202474132932265 1.9296556663754674 8.442832979066015 0.4589912794702289 -3.065441709907166 0.30353209792623853
Ni 2.11909483589861 0.3828699600544101 11.796562245315783 0.007243311825974623 -0.2677839937923517 -0.7709871918931045
Ni 0.970177907965524 0.7172431205317807 4.045253879488872 1.0354668039025714 -0.9271986782220869 1.2674708118818363
Ni 4.463581343827112 0.44494385374579976 6.389464044424503 -1.0417582933382379 0.5212924515022958 -0.36084764381825596
Ni 3.1955205767121084 7.0004007138977 11.61540126975751 -1.0742040725717694 0.1290313263697649 1.1099832870539075
Ni 8.777835122247696 6.53606074557489 12.798292568201244 -0.25200410525027567 0.28331757065157653 0.3552796628121752
Ni 3.633528872650317 3.7858617844102826 9.59568197934883 0.10194501167593409 -1.889413981728675 -0.36700183634510986
P 3.7817585096676645 4.7964955621737735 7.642841415005889 2.0095888861490745 0.01963140107768232 -0.8480590944764427
P 6.43222277249639 6.400345631298634 5.886385812919343 0.22718884597880873 -0.7668163483448664 0.1733311767284047
P 1.5157087502205024 1.296969779870819 -0.02477410278842432 0.10015372410346624 1.559132126512418 0.29514773051728527
P 6.768951826771563 6.704099615986872 10.36838350980329 2.0558114074517237 0.2602000107975067 0.17236392771912895
P 2.630282850319113 4.820743031514506 11.230691814427328 -1.6087204789635068 1.029011278085215 -2.5822890026993854
P 8.870414677098152 4.908586607126883 8.29893085470806 2.7325802668891908 2.427621720929071 3.641733914684109
P 8.402176132545959 3.041540772368372 5.244471745258847 -0.06131206864592021 0.29581313201542603 -0.10898520635216713
P 5.092089519766147 1.4871998300132871 1.1120730564459673 1.0640518146291158 0.8533108297936852 -0.3748701833495931
