# total energy = -340872.79253978666 ev
CRYSTAL
PRIMVEC
9.22483904620064 0.00000000000000 0.00000000000000
0.00000000000000 9.22483904620064 0.00000000000000
0.00000000000000 0.00000000000000 13.50148440513549
PRIMCOORD
 96 1
Ni 5.492662755798947 0.8972548704346339 12.66448694536213 -0.39931648931741553 0.012016307734585757 -0.5786519632583712
Ni 6.9966528027022195 6.6438672916604204 12.488292523875888 -0.21048695984309557 0.9462898905255833 -0.15217408303481536
Ni 7.08154899437436 4.930648675451941 9.227278791137456 -0.13491375329247088 1.3480360723304137 3.251932049725348
Ni 8.770524734160544 0.7423790514643448 9.88010218484104 -0.17045925449724839 -0.3881792417536734 -0.42758268325196036
Ni 5.48984917995846 2.9405096226677805 11.065290104436187 -0.8977379497588088 0.318527028673174 -0.32331185165632703
Ni 9.194784296389537 3.1360485311622246 10.635699507852381 1.4750079450679887 1.0087142183990758 -0.48752332547165067
Ni 1.2937375204889034 7.121169677111712 1.7865837593540335 -0.42397259730319886 1.0945972915161406 -2.3382889987005084
Ni 7.261894593330173 4.3712452244913536 11.791278462282898 0.4869972777648516 2.0111503170989233 -0.2906683545896929
Ni 1.8505580165795357 5.723283726330679 9.521517017632307 -0.370679028086381 -0.8493019657446084 -1.5985921322802532
Ni 6.5846530512666925 8.294596849693622 3.49850444074036 -1.5184220503875656 0.7404036626792926 -2.0088527793139983
Ni 7.81060645609691 3.8582611624793923 4.339944423886905 -1.5025179775627995 0.5851367996517663 0.42232143485302104
Ni 4.8877623997718604 7.052435403054434 2.036171920986176 -1.2812061591900579 0.46851490268994794 -0.03986264052289264
Ni 9.17489554389088 5.7302484796407365 10.990829050438663 -0.5684392843914274 -1.415116668028995 0.32248421354870915
Ni 1.0474712233163 0.10606350683142513 5.632197667809465 -0.7271596531851928 3.3207232003571323 0.28874671208694785
Ni 7.214469696950029 8.795588621237933 0.12237486683519337 -0.8500051624592201 -0.5787792328648548 -0.42909140658700295
Ni 4.0363282262463525 4.163252783588196 1.4226380383062627 0.04521182064994794 -0.4625358022883776 -0.7039672742291295
Ni 3.0060152031376135 0.6345397631598254 12.709811345942672 0.16942155726135338 0.07373641045220204 -0.19313561304884155
Ni 4.0525085935388585 1.7137167575048278 1.6146290737900466 0.6100549030496849 0.5588822368306116 -0.0808478246860027
Ni 4.002196322607657 8.695895788096475 8.634644703291013 0.5827675280886415 -0.7463686220134759 1.2221533188919598
Ni 3.156536898184263 8.790173640849847 1.6938012529735897 -0.15302049019551064 -0.4821695173589051 -0.05789224433109384
Ni 8.402628937129505 2.334170191784575 0.4927355407992748 0.8267922146778665 -0.41999535782300573 0.5027671390045987
Ni 0.8763412383429345 4.394593291547986 6.766242158495614 -0.0732018781049707 0.11042990921849369 0.47160228336602006
Ni 1.9454539335339323 0.599926322934659 8.018031569412559 -1.303001914908911 -0.31619735209873284 -0.15980228900403445
Ni 2.457497061986124 3.226691797420016 8.378102858155398 1.1914682311032772 0.809178358250845 -0.4908194797244192
P 3.5983236541736683 5.274190897994828 8.316603625185643 -0.19391954240271767 1.3718565717887792 -1.4081217247684006
P 1.8455489290995863 2.0045574758618043 10.014280232948046 -0.31048950308067813 -0.42337250182535474 0.5028622698215662
P 7.500310552665877 9.169831107378004 11.562616847516807 -0.08020299201315219 -0.23682919728205018 -1.5476614068686572
P 4.193574828793708 -0.146109454638437 11.017467617502843 0.277849862668786 1.3214575505109372 -0.650398596974054
P 6.0490681341426225 6.299384135557763 10.60363396810965 -1.4974397917089435 -0.8033290985589197 0.30849381280688803
P 5.414057904202912 -0.10159407242252018 1.3180292885569518 -0.907367759539089 -0.4456320845545035 -0.012196027845559641
P 3.123631898108796 5.978304395544667 0.9614080895332688 0.3569855897596884 1.4167783720021343 -0.7695879975527327
P 8.732546072733378 0.8741134397675979 4.1711621603935525 -1.5389451100415819 -0.16662471124250658 -0.7520047372533307
Ni 8.826777801292643 2.3180359486861755 5.6296737519079665 1.238571612348983 0.04279395523707469 1.5777525698270827
Ni 3.8328467315267956 7.04128257291952 10.702099897687878 -0.24002482140121245 -1.5531566256552733 -1.4906261112212198
Ni 4.811399184009393 5.167127418635177 12.574282781432231 -0.7069201862098664 -0.5839049841271944 -1.398384699986295
Ni 2.4192232057166776 3.153289754919177 2.9646556382824527 1.459912484187447 -1.4321661673121142 -0.5323101427690381
Ni 1.1566287410883789 0.6502063069299869 2.8591954359099385 1.4395452333850047 0.10755901542860187 0.6592053966324067
Ni 6.450911338035931 1.5029476401164685 2.289986903766224 0.6754370279999207 0.7014758752658434 -0.014166778418685277
Ni 1.6896307033424938 8.999033216602204 10.24977284086129 1.461064338403703 1.2922922418008906 -0.0716162787854057
Ni 3.775366760831467 7.613490100164029 6.681965875992262 -0.12241304972229886 -1.135364960351806 -1.508499649067531
Ni 8.925446677324938 5.95456888525754 0.20388185272439982 -0.345643682384308 -0.08844954829266058 -0.6575033263396355
Ni 8.827958580661766 7.971330822879884 3.9071675679742337 1.3341814258355085 -1.428183271404966 -0.024493614265990074
Ni 2.060810542993904 5.161878485345876 12.406014341461223 0.5934792580791908 1.2662063433471162 -1.0319575051977323
Ni 0.1663810379481761 2.9716803530448495 2.6997976009494633 -1.3962545410171694 -0.3504652721426674 0.05531779873569828
Ni 1.358892557083528 4.646957207181448 1.0821861367685004 0.6328791000330519 -1.4492380351927365 1.6691203202078029
Ni 8.469675065682491 0.22005945256525966 1.7994238125093582 0.09507630958055885 -0.45082185628555904 1.1065230964194492
Ni 9.40223247180224 2.375838788740248 8.189878324362338 -0.7041616496281228 0.37394227221868503 -0.13697012160086733
Ni 1.282621589709274 4.381706191714673 4.4479829687099635 -0.9198388954229063 0.7171909720082551 -0.09802587912718602
Ni 3.688505678490396 5.091815834498336 3.7212926006289515 -0.5389497595727428 1.2418770225731324 -2.2066261482451677
Ni 0.48082535139713406 1.0471852533128407 12.276346317053935 0.10959404358075962 0.9442088396268384 -0.19203363823391445
Ni 1.7054144025656857 1.8817564214730682 0.87361991089066 0.2580068598009298 2.9557101123072775 0.4451566875799817
Ni 5.795957006564638 5.360249419358449 5.857268052822439 0.07640804374709421 0.8659439451766635 -1.1061937381044884
Ni 3.1227463135819544 5.0362085060837245 5.7508899789872086 0.22413206143035594 0.0920236387971641 3.583843470125228
Ni 7.811897933531887 7.371338081105711 10.094776176502442 0.07863847573950973 1.7261003371372727 -0.7508711378695196
Ni 4.275555971398328 1.6035076081071244 9.342486880692407 -1.1359935950747402 1.4359426036354108 0.6977148655615145
Ni 3.7259677489435705 4.495319306637425 10.338734419001963 0.2369281847537597 -0.8600566331579511 0.70835511888418
P 9.169415989631046 4.519359236605652 8.849358361759347 1.4190576549546141 0.9934464936067279 -0.2737767210406769
P 7.193077295723505 3.6920203420813 1.8815128857281866 0.5850606949981924 0.3040252355125732 2.405204272465819
P 7.215862647612041 2.735865798256744 9.501818296813369 -0.40791040163401365 -1.165408815012064 -0.3115372276189022
P 0.5106981469520502 8.024428995135109 8.324096961760159 -0.27895955079319695 0.26100065232193115 -0.022076263073749075
P 1.176886487139886 -0.007357731443844339 0.5911544236995141 -0.8846021837077991 -2.7920344563907658 -0.4450229902155948
P 5.5364622905223335 3.3009333002535906 5.727897068225195 2.9414518026160503 -0.5561594385828099 1.2061669707660323
P 1.3921481010342036 6.543233524959194 3.6661520490586965 0.37147838405922473 -2.281743498205296 3.175239384858299
P 4.304983207238177 2.8928172059618182 12.998891042568669 -1.8815998850008953 -0.2956313550219231 -0.3477134204291431
Ni 7.93635023406963 6.676025079791365 7.238847256019114 1.7508500332781265 -0.41586539481503215 1.1065714331588812
Ni 6.507607197431452 5.857846450216533 3.2480113224198512 0.08413369452612607 -0.17606708760232903 1.0247918406872287
Ni 3.8162789210037964 1.4461226329774497 6.92707168844115 1.274731864319624 -0.8299819252597578 1.2538539924293504
Ni 4.624310227875232 9.274652950904088 5.007713901448707 0.4336774832957886 -0.8906579029835757 0.14637418852358663
Ni 6.622225819785722 1.3875264567847476 4.688795541171433 0.15859335629759783 0.6553456565666843 0.5360102173284447
Ni 1.1979006699747374 7.274698669614096 6.235741050045944 -0.06137968865906203 -2.272684216216505 0.6113592236834052
Ni 5.727287306379109 6.404639546508445 7.904255174842671 -1.5685243663605954 1.2545625884606006 1.3017675282811774
Ni 2.078771304178915 2.858196385865595 12.151214145895064 1.1781704855531063 -0.3115364562879538 -0.7189727464990262
Ni 2.3156743899479304 7.489019349948643 13.01024589667377 -1.6965717315505362 0.22747166732655016 0.519627405095047
Ni 4.468345877924033 7.582199446882284 -0.6884552561346157 3.0375766080657813 0.7941582306929291 1.863196442793043
Ni 7.565391790549931 2.1279212454186376 11.751665159416605 -0.766023677240242 -2.5043449819237384 0.5283796973663804
Ni 3.9109718915041247 2.494110447267741 4.975567183124347 -2.982004784337748 0.19590880491860455 -2.4174303822183654
Ni 7.127996057839451 8.145634152407766 5.672553570200873 -0.8205945705075868 0.4815568234755706 0.6426323227650739
Ni 8.469868787297736 9.441807030345485 7.229909309685187 -0.5523902013483647 -0.015348971652244534 0.6299634690481538
Ni 8.809103010111093 5.43206478958203 2.9246512022501365 0.6973613388768377 0.8085031865606914 -1.1159271633421686
Ni 6.35262990523413 0.5468659725186005 9.439670557674479 0.20827992488944774 -0.5063859667041085 0.27660801984188493
Ni 6.507561073237346 2.070349026335096 7.363507115430337 -0.1108330581941833 -1.5947419052962275 -0.06080761820567593
Ni 2.500549384764987 8.252254839503996 4.28885449904307 0.9170726455316786 -2.5320051668431685 0.17992065702046434
Ni 6.342445683175448 3.2011758932403853 0.05056872145043368 -1.435776510371192 -0.845824291608653 -0.07524616222850912
Ni 0.04455043660343763 8.048192179938699 12.320954870141946 -0.7903409138293678 -1.0022057278565966 -0.07795353385734316
Ni 6.122184206640003 5.4168161310104725 0.8965307205871643 1.7412765306570785 0.4302170355510139 0.8103685219042045
Ni 7.55542896462296 4.152515071200239 7.286494471014852 0.7943484923268642 -0.12573131546225444 -2.9766388920401443
Ni 5.358330652883625 3.6082864801006393 3.3588855826965687 1.5561126229598037 -1.122638256813757 -0.1745370241110478
Ni 5.183842826579317 3.923480772945766 8.309569685584425 -0.10435722066185253 -1.0691701096922877 -0.45966773671196315
P 1.8349680389715908 2.244237238116021 6.411449322526306 -0.5537341169707689 0.3082305318431724 -0.09392625513651566
P 0.2113207627498713 3.849128572046336 12.844744908349142 -0.4583266493030364 0.4722322036405351 -0.7858129440520273
P 1.5141558192843105 7.139490207010752 10.98370009499759 0.38520936049207205 -1.5277356144790077 1.6876872845767128
P 3.142450569304185 0.858182143123266 3.635004380778681 1.1222991283067831 2.252370444359818 -1.276985179130175
P 7.942779946728056 5.947013742262921 5.214786625921382 0.21858130681545584 0.03918772594305509 -0.3055241886556028
P 4.780735819767495 6.877209589644425 4.407222095894303 0.02507005559475037 1.144307257146758 0.29282371036979893
P 5.8194803455588735 8.837985980460486 7.369110282530375 -0.03836060205606942 0.15850516745916574 -0.10222809013399169
P 7.663036709473066 7.105367528210877 1.5338222531673744 -0.22140874896192192 -0.1605841614753815 0.7682001160662705
