# total energy = -340894.04821867874 ev
CRYSTAL
PRIMVEC
9.04185532623971 0.00000000000000 0.00000000000000
0.00000000000000 9.04185532623971 0.00000000000000
0.00000000000000 0.00000000000000 13.23366923469995
PRIMCOORD
 96 1
Ni 6.3563789707138 2.2628508406556493 11.495943049306053 0.8761512247269685 -1.0133571164877258 1.1869680292400784
Ni 4.60115596265129 0.4560865456042422 6.014609504128088 -0.5358268976730449 -0.43535949898390186 -0.028651859408737754
Ni 2.504186996826493 1.565841351661539 4.5053493695236195 0.631107609954926 -0.2785247772486235 1.397779205191812
Ni 3.5504562252238165 4.066285020450314 4.70656771851922 -0.9555281212943995 1.328961057976834 0.023903031869842703
Ni 4.992975714309426 4.72911629692613 2.79275418762976 -0.3811986966707822 -0.7123007337954894 -0.4420284263636452
Ni 7.169350252180694 6.2270985255850775 2.5952945378256556 0.5699086698481023 -0.531962015401 0.35792532796513843
Ni 5.0350926756613354 4.491496343227515 11.404524468489264 0.7081322042400966 1.061057250777166 0.05303543045942479
Ni 5.6294590248386 8.037377389738564 12.046092918362431 -0.6700256271763622 0.7283089362982876 1.4101876061584937
Ni 1.927976692817676 6.209177568650882 0.4537465134879104 -0.9148936356024889 0.8259069838594357 -0.003999608077696337
Ni 2.631848949880936 1.2816739275808655 0.32784591381933076 -0.09275537475686606 1.0736906232704606 -0.15119809227479122
Ni 0.35459081720765406 9.134443760444825 4.611166200502878 0.56057453693137 0.03086943588534684 -0.08746404445093968
Ni 8.775916119498952 2.2496587739720013 1.3443819056967714 -1.0672610655950328 -0.10620764360703 -0.7105516123148666
Ni 6.741959842309074 0.724907228915789 4.6487233542957975 -0.4720488839851354 -1.0101553217209764 0.6100284206871236
Ni 0.7901134716133894 7.479223670491397 2.6203992486873076 -0.4382208796920969 -0.95262586004594 -0.09701594980543292
Ni 7.61686783164642 3.7342228895682106 3.7407746178197336 -0.31471074025087736 0.6554029921671809 0.5673776758961325
Ni 7.707376801833756 3.999890677984221 12.949489080763637 -1.6076886952648826 -1.0565981865645482 -0.5959608868504639
Ni 8.06120267809457 8.939438070132113 6.616027596147421 -0.38135193441919485 0.3169565988622606 1.1456275186200786
Ni 6.711027655794501 0.8102288867957833 0.3419132320828128 0.14256664185203835 -0.6576897313188287 -0.42800897215610156
Ni 2.0663261186754585 6.351017150601803 9.229372389436111 -0.04446131563716858 0.25362724267599546 -0.8381881152196338
Ni 0.10567216129664105 4.742398782161415 1.5711009988101876 -0.8186765275492675 0.15941533797826093 -0.6954949750920603
Ni 6.319560536487743 1.9553554302529657 7.0384594526473405 0.7178751425594733 -0.2646799009457313 0.18084059773157243
Ni 3.2255190762106065 4.126784073349761 0.3903441208954421 0.499264782278295 0.17596758590998726 -0.07527238748075424
Ni 5.9243952984190855 5.611402440076952 4.945250090199556 0.33525462584050003 -0.4371577285349052 0.008342458427424343
Ni 5.50190557404612 2.778137124572333 9.442381317565006 -1.5661836340425608 1.313243904351893 -1.1836415359700065
P -0.003857255412778906 5.656240999833094 12.589202798988449 1.1035362458769833 0.6521430904689866 -0.34689143874847994
P 4.207347002857167 6.14818121371744 12.629538514873135 -1.5725694829642465 -0.119398174155375 -0.6260505071469928
P 2.272055449212164 8.315839403211026 1.252411771715004 0.8577644946896646 -0.37920891993426303 0.7559776058581497
P 6.34784345943939 7.776646454241864 5.644689125676117 -0.06397984528607047 0.16443361712845875 0.44658493538607597
P 4.649502762210898 0.9278480513200492 12.59861175347166 0.17850629317144096 0.23641627811434762 0.35233189303776097
P 4.157897096967604 6.195162693147349 8.003961405610559 -0.3083004658491593 -0.15310456526888472 1.680837094424099
P 4.589645681028066 0.9474688770249959 3.8198718626051265 -0.06295011846997546 -0.5217483080927917 -1.5889358401374118
P 0.23609368854700558 5.447717736050846 3.543288746635655 0.030789988797663103 1.5173658412089093 1.8554918750599334
Ni 1.4094353410421074 0.9504255636634832 2.4510082298674734 -0.18719019409868407 0.3416882972809857 0.35966236526090317
Ni 1.8424949941012865 6.700656647921886 4.798766611436626 -0.5064091066325601 -1.8386622050971047 0.09177527023178388
Ni 6.235959543645376 5.816209501386973 9.21774004276818 -0.6109324205586317 0.15954569290853815 0.42924027346004145
Ni 8.896769555615226 2.337825903671971 10.32054166220469 -0.19394473921369823 0.6002901103534372 -0.2527954908033195
Ni 2.4817089448898586 5.213795901114129 6.825463183115675 -0.034722748193166 0.06524431382079086 0.4111512771688145
Ni 0.7170842158282682 9.207501950166467 9.163958184069749 -0.46967858398074597 -0.48471876614332005 -0.2601629869119842
Ni 1.5239413948335563 0.8569924575162503 11.428808178902063 -0.5208036847913353 0.6230397453451271 0.1130920294316891
Ni 4.083148080330372 6.732357392125363 1.5562398056633442 -0.02759513600944925 0.466757553679209 0.3633891792931871
Ni 5.740818513033127 7.951968025863484 7.8318704888388835 -0.6263107027869149 0.9441841570364901 0.8763463714569102
Ni 5.246626877213052 2.634344501906081 4.846089872991717 0.7131024037611783 1.1409743361187834 0.39916736533406094
Ni 0.8407550940135116 7.415912600636081 6.956383820771067 -0.18867243507116538 -0.1818605543556545 0.7167042621798237
Ni 5.1283774953838845 4.374865453472626 7.308082148511895 0.6611478650707582 0.11431201788171926 -0.39799777050599194
Ni 8.483167974868051 7.143689467226483 9.283987907180622 -0.655015269810459 -0.12285913612078198 -0.17553692613047187
Ni 4.591146628985219 0.5109181636871626 10.290024496842126 0.6679533180283658 -1.166222826272927 0.5707872157983137
Ni 8.238612918258976 7.05655310901516 4.854692293994338 0.28978415221252674 -0.5547103648411091 -0.658358218140763
Ni 7.247019788035759 6.30551853541872 7.050422731214259 1.0365638936214923 -1.1163812201604515 -0.09955157174309306
Ni 2.3660455336374726 4.9228290019504515 2.606013657122068 0.6938679810115985 1.564992184837621 0.47506093133858185
Ni 2.4081715368445447 5.234393247176741 11.51478717965245 1.5100777921879285 0.35180610244127797 -0.550984836360406
Ni 1.0452474987638403 3.3950629023827052 3.831609998978473 -0.6493009930345012 -0.7249454191426934 0.3241384613226805
Ni 3.61745637198587 2.51909701599122 2.5094737695406324 0.3132254139546025 0.5292574719856433 -0.18079328943340475
Ni 1.141172540194153 3.427767292509337 8.035880962708994 0.011038517202348731 0.04712883516700271 0.6950031230573063
Ni 3.480309512864842 2.6598425334673483 7.303780938010585 0.5026825497105923 0.5908839865481889 -0.6346960986371327
Ni 4.177572173803532 7.026326187203346 6.021835754774813 -0.3851142296751045 0.4931679253519377 -0.561864202277071
Ni 0.9224771893528887 7.294371983527374 11.268098245224774 -0.7292047086396796 -0.05688874276724397 0.6908909006611457
P 0.3234027461919526 5.539682444919515 8.06436009391769 -0.15058154173671487 -0.10535095203368952 -0.1630156537350096
P 8.61515193469068 1.7034855128165634 7.947876586401969 -0.666390087306304 -0.24959806691194433 0.6057737591758277
P 1.980717833986779 3.2365230139446712 10.497026016400346 -0.6577612079867123 0.18592906799807335 -0.32926344125407164
P 3.9222573095498094 6.256195215501445 3.9798277055617755 -0.9891074999117417 -1.2972986938765463 -0.8271596253196142
P 6.969281122976383 4.057921304424012 10.460646112149723 1.0413065505128003 1.0148123608770137 -0.2057892972571101
P 6.47299177675836 8.018172489371143 10.033053164722437 -1.0262218882655358 -1.7819233576441635 -1.0267134831899736
P 2.228509874744411 8.631508650681578 5.713477751389524 0.7572387319587605 0.04165778475010245 0.5679358623924476
P 6.769944384040322 4.1267298222187785 1.7972649220165609 0.2564937655905131 -0.8225069570389512 -1.5156444876424284
Ni 5.2392577652547425 2.8992256489228607 0.4571363049887327 0.5292014219367273 0.08047475761730011 0.19276845951740992
Ni 1.4342009823351256 1.203416671140168 6.925496843532312 0.30144899014496473 -0.11625705742323204 -0.20071651071989305
Ni 6.948186474879775 0.9903363123554806 9.29816101514952 0.6512730291592074 -0.7885902496868482 -0.9245126467494916
Ni 2.7509211405299876 1.5665737419297883 9.277556435602776 -0.6589351736901554 0.3193353835070823 0.274884609392875
Ni 6.349181654003599 1.8478658560684469 2.448282110535657 -0.6439767526081103 1.0598349483342908 0.4525362678735045
Ni 4.154813824356827 6.798679399750148 10.455869300066809 0.5342125019980736 0.10106466595350981 -0.6475127907858267
Ni 8.046157031102391 7.294299648686066 0.38486294829528606 -1.2346884752444929 -1.1348286282323616 0.7010763258345797
Ni 7.737775518893677 3.8532679546517716 8.273279390956102 -0.21373426313579963 0.09106153199421091 -0.09785850031138629
Ni 3.0387505159519073 8.111493476514347 12.355813529320868 0.8820657904391906 0.014735249327645592 0.5031569182438496
Ni 0.2845706908209691 4.881860356204316 10.419688316629783 -1.2663834923549286 0.026619659470057382 -0.8319488191781415
Ni 8.45730826910024 2.345601899112641 5.735154694958666 0.8129871904739742 -0.053093280280553726 -0.11440457759552557
Ni 3.745615627074309 2.6363156263317395 11.672850562323363 -0.9750726190852305 -0.4422004331651352 -0.6130468957984733
Ni 0.968129516073753 3.6956232098749306 12.499491320426543 0.37042860263847166 -2.131658693599342 0.8601530495264993
Ni 3.128870686367208 8.409630566822736 7.9553144164595215 0.056506419727160744 -0.09684779965868483 -0.06314089432454287
Ni 5.422418625303177 7.801692393044953 3.4720651493266987 0.2697043507435161 0.5516034437810113 1.3083660074343018
Ni 2.957744535541485 8.32687046651058 3.610171349280581 1.0241984300776037 0.5938042455187774 -0.7657233723910039
Ni 3.568512809985466 4.3205962387808805 9.318699589153567 -0.11081043248636399 0.23650523828372813 -0.17158154102714965
Ni 7.131609548727954 6.388459472834146 11.696061908713764 1.0350176321802949 -1.8627143609503014 -2.6893937041993876
Ni 0.39873677085826764 -0.18007035395352666 0.3947113369394463 0.9803801473410728 2.3101547023581372 -0.8050509663460328
Ni 4.344014643654527 0.22881137839826637 1.6199866929375446 0.9051998053534928 -0.1984642243506066 0.018239405826162135
Ni 5.995581824121872 5.646656633359711 0.32981613405947263 0.17560223215076853 0.04086177121136834 1.3194765155251662
Ni 7.953902982868488 8.825194230140408 11.19892624485243 1.5082052577555638 0.23431697238315777 1.1616452342045736
Ni -0.002708035621489176 4.846352990976977 5.929041003602128 0.06229628693606046 -0.22487511024396759 -0.3776516027494722
Ni 7.840879793323864 8.868911599856268 2.553423514934196 0.8120932179047949 -0.8017800089042451 -0.1767512581535472
P 8.325233890725976 1.6481312755051885 3.4987042630096084 1.218748921196101 0.9773974105636651 0.23109769411491168
P 1.6775625140626085 3.1400192937838893 1.5713659251664804 0.9376926357748754 -0.9840681377156213 -0.5607557997042408
P 4.699549430541257 1.1194449622360947 8.193520282372736 0.12126145261635891 -0.808074326553389 -0.18555240138494497
P 8.433121306537691 1.5516004297789165 12.348018545984354 0.48105751524164897 0.880786923726767 0.8063866544383209
P 6.28209108868991 7.959445640083756 1.4911827535759428 -1.2701997807772254 -0.8098514730584697 -1.1400567094005205
P 1.9536826870477053 3.213836999339274 5.909786373031306 -1.2574869611962471 0.27789794229790205 -0.2700200822117221
P 6.84604967895209 3.800716692441104 6.04823706766692 0.19357347191720858 1.580026967683556 -0.6698739320898464
P 2.5616299026806524 8.365072304576664 10.193141018764475 -0.3541938859471642 0.44138925011774954 -0.5079096024374865
