# total energy = -340860.7142165716 ev
CRYSTAL
PRIMVEC
9.39816105484244 0.00000000000000 0.00000000000000

0.00000000000000 9.39816105484244 0.00000000000000

0.00000000000000 0.00000000000000 13.75515868444204

PRIMCOORD
 96 1
Ni 3.943637422418467 5.596003251183606 0.6706038815045714 -1.9829445440886688 0.8734795914320763 0.2638689750086617
Ni 8.26574817686324 2.0661198562901095 8.106314018440875 0.8794527782963757 -0.009394039620390274 -0.9625824570380197
Ni 6.129461652327783 1.3964539112295355 8.521857455774834 -0.5422664826508017 -0.18322375325176832 0.02649778918021243
Ni 4.5171883773711965 0.8398422012333313 5.491787986315426 0.46859409266731555 -0.10568416700339217 -0.10818199372458141
Ni 5.011353068371548 0.7946191914650769 10.407180194415616 -0.37490900700732854 -0.003487187217652059 1.8205500688774259
Ni 8.022147849925199 8.442856516413679 9.469972107877085 1.9798576776332288 -0.2636722856168233 -0.7808810539680487
Ni 3.6131135065973274 6.65019494380089 3.275584201744567 -1.0496796050678439 -0.8058336101483283 -0.6856738752365804
Ni 4.361150714248037 7.674848217144786 5.495983325279359 -0.32410298009905475 -0.2200481211689694 0.3175487239203047
Ni 5.818645679623505 4.067561570219587 8.051925922298008 -0.06281153600958214 -0.29988601653321906 -0.0717386632958829
Ni 8.16014104438628 2.5396649825797333 3.602572529487231 -0.016377927137391148 -0.32167534449416857 -0.82695136596355
Ni 3.7819514646776478 4.041801211572318 2.3411278966770017 0.41161844661322017 -0.4505200087744241 0.8846538628813408
Ni 2.1560226621346037 7.75917791365771 13.378886145730045 -2.197838117639892 -1.4375711403777693 0.6204262189816799
Ni 7.308930827895842 7.978202050204432 13.290110179360855 -0.4822530782116469 1.8183360919452425 -0.5789895491034479
Ni 5.807555849924937 4.306002306899564 1.0773553394461495 2.2135670983393747 1.1692181614558248 2.0045376968784123
Ni 1.7866655460469523 8.836489081748281 9.515584201500866 0.30647446838401415 1.9416621404001142 -0.13003379949235025
Ni 1.3894240869799346 4.483082451967719 12.854773275647101 0.05986479467643239 0.8180023843003783 0.08699147568989535
Ni 1.734778300482719 0.5906368112171332 12.650055019411534 0.6475750114823299 1.4228250924168464 -0.7777440510009638
Ni 4.229783223123811 7.683908044118869 -0.2057990447231413 2.4122750632696714 1.6096388770127181 2.901727487443235
Ni 3.4451495774678267 1.2034062910275953 8.672998677141253 0.6272368141456102 -1.0777552802581374 -1.2954192174656463
Ni 5.056530027152071 5.508590957940909 10.106849749672943 -0.2668558255511275 -0.6155922879281462 -0.4806605369135465
Ni 9.640351364322292 8.697856812355417 0.24847609274110588 -1.9888480540572975 2.7388491306170377 0.61941474699803
Ni 1.526439872721821 2.465015391651151 7.868569685473324 -1.1616148951872705 -1.6210494328425047 -0.12540838490519693
Ni 0.6994007858938789 6.9465847397362674 9.37022002955454 -0.4900910861988269 -1.8695041301786253 -0.5025488523462055
Ni 3.1636276718571397 3.731661906442869 8.572929880801045 1.5698420567307547 1.752690171810659 1.0726349283124366
P 6.6999676031937865 7.270520544863598 5.728789864582819 -0.10000562856137615 -0.9176886818491228 -0.3360730079767374
P 3.922923876100125 8.76278870505661 7.413259810509237 -0.6250554902235751 -0.325946975286329 -0.17588479638819388
P 6.8210441082841715 6.736423068787639 9.678624434207418 -0.48503604027342273 -1.580016169050279 1.416690697384334
P 8.131570635671327 9.3164061610342 7.407689520625897 0.42474804201664274 0.9410114157354633 -0.585385682437779
P 1.2248998846891423 1.0197380352656307 4.282365932584396 1.0158104631242248 0.160781107977536 -0.5144803136764687
P 5.378097495767503 3.198419662996207 9.976863788180658 -0.03144767698632003 -0.7683332992100251 0.536710842939895
P 2.5407363729065437 0.28115819678921683 0.9216710471676225 0.2233712720049314 -0.19670276157480962 0.8522677332411516
P 8.991257993168638 3.9286379578431156 11.61763416619826 -0.04594484216123055 1.2342318473230485 -1.1247835852915338
Ni 0.9623810601382055 8.311639395861636 4.769064724675812 -1.121908577736584 0.5360734664662122 -1.911124633932889
Ni 9.265571509475254 1.797708384941713 10.201361413554876 2.0292989629834923 1.1912975098533676 0.14585893945006492
Ni 5.138792128297467 7.348591066309365 11.70775782882065 2.382761884301903 -0.8947495565544461 -3.1481145036170495
Ni 3.4434673066915185 2.8046367270894215 11.900770675827774 -0.04571807086240513 0.8614774247648775 -0.8231978124583887
Ni 7.4816126337276145 0.6355261862783546 10.811677973406587 -2.6065715293958336 0.719654088836767 1.1400870484178236
Ni 6.42848293327638 7.743586364954385 7.902325059480398 -1.5033641276131784 1.4337882762965695 -1.7908407147384513
Ni 7.627547274032163 3.795879538926188 9.939009876265494 -0.14190998210464592 0.4485587712829952 -0.1807056148156049
Ni 7.4695265989883275 6.334341556928449 11.855735629274747 0.6965812661777036 -1.479067716959659 -3.0464736534450956
Ni 0.15678763635192677 4.301575773180899 8.152241890266241 -0.33991089366558874 -0.22126091053014796 1.1545027096225213
Ni 7.9388613492568 5.833833107414087 7.997744585691893 -1.2228053506536618 -0.3897391300416256 0.3179099639144654
Ni 7.971341392848538 5.412964672192662 2.337523702024967 -0.32725463835415897 -2.9655157855437895 -0.9251993884038712
Ni 4.101169393102705 0.8810315204027507 13.086780971285835 -0.1649352393552256 -0.2351726355152337 0.4061605088224424
Ni 0.1303947814854106 2.312953150530105 12.734801054446192 0.44285503602999865 -1.1437472708782304 1.367328859121755
Ni 9.06114271659114 6.746422711837873 6.179931655249183 -0.31008532566372404 0.3306166128478564 -0.6090040931876674
Ni 0.986637713063633 3.564026912940021 3.794552518626665 0.7838661047383017 -0.9313021588674993 -0.8752659939085378
Ni 8.575408175793854 4.944203209730642 4.600123386827115 0.2063963347134897 0.6612681926987064 -0.2271803613383765
Ni 3.1016468016350576 1.9226757285873584 2.905378431740152 -0.8867729661068728 -1.018482610639749 1.0814741238706214
Ni 2.0118360797316943 7.309184578236402 6.450082726154532 1.1771489862671274 -1.4747320656987826 1.9980042666352686
Ni 6.1235972000126075 4.8094711770537995 5.739436101093443 0.2867289103259707 1.3268434974131988 -0.2291624247654118
Ni 4.959710174987113 3.1362038387550872 4.295474487214533 -0.26286315945196664 -1.145498192131066 0.2114729779054487
Ni 3.140555187187661 8.57457173948608 11.449738843642319 0.35811353271654456 0.015319918186522003 -0.42519258575322905
Ni 1.2599080335257242 4.336978644769463 6.2272626724762405 0.8415796573996862 0.946217385416435 -1.3344750458165275
Ni 4.900341993456728 1.6473754054007832 1.406134956629955 -0.5280721934282905 1.1393123750353282 1.0024774934607443
Ni 4.019837709872697 7.783284196010954 9.465832218061644 0.47126058375588514 -0.30307572711511027 -1.484182412478405
P 1.1105712590255132 6.968341481899136 11.519807771015746 1.009722347948616 -0.41871289156615626 0.46467727411141263
P 8.419182549455464 2.229309519752769 1.3132783088581217 -0.43287118534440927 -2.1230151589917305 1.0416433650269286
P 5.177644124885502 7.718465081238898 1.8660931619066805 -0.04114253567658076 -0.6450386182137213 0.34194463626616595
P 5.75720990272559 1.1434178308869505 3.4906601709553833 0.15535145232153247 0.5112193835370099 0.4739792682386289
P 9.15878960690311 0.24799396709404103 11.966808732050595 -0.5710882919785003 -0.41036554804272557 0.7207023275956232
P 7.180063247534175 5.754042722548965 0.03721483698338167 -0.028022710465171092 -0.04280912474572627 2.1254862462400426
P 5.7747092780635 9.281473197483711 12.332737399092451 0.8929870653373846 0.3003675841553279 -0.43142982491219245
P 9.036096618161746 6.9513214127600635 3.3478541783683378 0.9572201642848418 1.401455882712451 0.7122709089988185
Ni 5.93132022899311 8.444642166958364 3.9557911239152372 0.2878648237026268 1.546273525382195 -0.5721702121887695
Ni 1.4559630651713438 5.871096814833428 4.011843634328967 -0.3226803887199153 0.4789584666207751 0.28554337465830176
Ni 6.290452146172252 2.646625450206347 11.943562381407027 -1.9133843765013434 1.6175236790774334 -1.92041968608157
Ni 3.197526837723865 8.897595923019544 3.535089036139291 0.5142018632041014 1.4538788763988575 0.46374653476702715
Ni 0.2514891430812423 2.1148023290346716 5.791279175302098 -1.3253849105898012 0.34343973275445366 0.361333582315739
Ni 8.460581447609865 0.05841426821309377 2.7496838014847875 -1.1916615780610058 -0.912834439080615 1.0207145852940616
Ni 5.177926069708346 4.9502650234218075 12.511086295863407 1.2967351080635927 -0.4253399099643707 -0.3397244886863956
Ni 7.184743531593401 1.315845886378163 13.331815457556079 1.7623510919391905 -1.6610288014489203 1.1255330618630486
Ni 6.497878952339285 9.511126653851687 1.3812927982890861 -0.0105921736935495 -1.6410970955219994 1.2831522271728353
Ni 2.746847436566967 2.4934448279546837 5.327785381946897 -0.8106076344982039 0.2678657548728806 0.00014501021829652446
Ni 1.6574690300586326 7.769591075781451 2.2302061042894157 -1.0435932896644478 -0.47593227819994166 -0.7385316424675604
Ni 4.61210040290157 6.161706741900484 7.379243167632993 -1.0228084917086124 -0.3142795662507297 0.45482120725293934
Ni 1.7054654370676052 3.8810832643899333 10.615061871563507 -0.7858178291480337 0.09400621644483166 -1.068481054045063
Ni 7.62696458806495 0.5739409786243311 4.955777044708427 -0.137941227264885 -0.05548029245549154 1.145508219433395
Ni 6.457476259225603 2.321787421645914 6.410591654634715 -0.1498001834860001 0.3109965246240837 -1.1283553618031923
Ni 2.3545212155782127 2.659651301021784 0.5433828589083188 0.8389913278472195 -0.5984152619282275 -0.18240357134331814
Ni 5.745715952114277 6.241243376425046 3.5985698528189087 1.882114105633152 -1.8452131188417447 -0.28962680069905605
Ni 0.1091427205554341 6.536824930534935 0.296738467699629 -0.11639949653836729 -2.7100216648623845 -0.4013391761743991
Ni 0.821225384580879 1.0701497695903084 2.087001629686083 1.8608904203676855 1.4725841661178445 -0.7477354204540154
Ni 0.38000429241435324 3.8489603509071317 1.2204056842129938 0.3822371652376256 0.7792124080163741 0.7440926814951057
Ni 3.1955156313209043 6.028638183678427 11.971279437124839 -1.4891942638706999 -0.31447214187751 -0.8614578843808519
Ni 7.782353778095566 7.462111450147504 1.6554606431039005 -0.895882898827941 1.4295513553970864 0.5026208432347216
Ni 7.802155702820043 3.6268536176306383 13.617675554174273 -0.5255519981095981 1.7024395031852229 -0.8762134454234717
Ni 1.2396362007631718 0.09727096388150921 6.9050204339524655 -0.622775693050463 0.45294610171741345 0.6599641291753021
P 4.652014391655653 3.1353674024473137 13.693645586689847 -1.605931346254144 -0.5459830122704404 -1.5323972816207352
P 8.04767325455343 3.8838745181360985 6.292929501348982 0.6730793264010215 -0.961633719971505 2.844240706080676
P 6.6886804121192265 4.175856576674334 3.6107423506372016 -0.5836468453698013 0.3231892100355337 -0.6030327060955808
P 1.9952953167914569 5.089912294176914 1.9833427359349831 0.003937387381193218 0.7471535798086164 -0.1472635331070754
P 4.130689016054571 2.67047798221903 6.953645577916381 1.2896686881351143 -0.511805337947467 -0.3577322381177258
P 2.1622066519156697 1.7155308672431704 10.281926206866746 -0.3234344932771204 0.21841109978617868 0.14712340798478535
P 2.536253450223309 5.882816321303017 8.520646972668754 0.03966543691042201 0.17823067091255113 0.04385479240142124
P 3.0525038190131815 5.585026199414176 5.525226642304837 0.8765713429835226 0.1685502103999936 0.05895899503271136
