# total energy = -340888.429293765 ev
CRYSTAL
PRIMVEC
9.10597738079148 0.00000000000000 0.00000000000000

0.00000000000000 9.10597738079148 0.00000000000000

0.00000000000000 0.00000000000000 13.32751834308680

PRIMCOORD
 96 1
Ni 6.510391213667505 2.1145171667540734 11.360642593364894 0.6260034559591412 -1.0913911258740172 0.06181317665205483
Ni 5.0385557024487575 0.22757749161643015 5.680654575446263 -2.7880888414794565 1.214164387149212 1.024718821357448
Ni 2.919849786204103 2.056147853200538 4.705773214387801 -0.10796396417650438 -0.6704578296177744 0.5510797100670574
Ni 3.394717388778725 4.698219806339024 4.9429629754874 -0.3333926329310968 0.5568150698889378 -0.7241594329062884
Ni 3.82011221747872 2.8580930491494883 2.518980996369177 -0.14513697368237585 0.6331760624481805 -0.25416280346449127
Ni 5.34672928725255 4.834700191914748 2.556338267641155 -0.21740991221517397 -1.4800123402611156 -1.7193159672255875
Ni 5.459761781658171 4.146361166932086 11.605802816266896 -1.2605463168478614 1.970640787020651 1.154186206823367
Ni 6.138512212698264 7.9811613255593015 12.297633983487902 -1.4171730363373916 1.1623700281857399 0.09728437297547117
Ni 2.3309025018512135 6.669764025806972 0.24172089533114957 -3.096884244687163 -1.896569876047166 0.5526383128034289
Ni 2.9310410321256777 1.579541008989609 0.06918084022781218 0.055496747515723775 -1.1560962793618865 1.3125425074094945
Ni 7.9647341427745 9.012850325089484 6.732582519797677 -0.558279056028974 0.21707746857641966 1.1703687301205004
Ni 8.72635807188803 2.427644403129335 1.2055703650682223 1.1925504084238623 0.6377238297198631 0.8005577064613696
Ni 7.051896357050985 0.7627075403947876 4.750940682264282 -0.11251687365450945 0.6054821960773378 -1.6648126939713843
Ni 1.0039521931208124 7.4958855910982995 2.250964770812045 -0.7206532195252427 -0.2077515631898035 0.24814899317024364
Ni 7.479740693605255 4.1663578927610345 3.6328150158005217 1.7796286480727155 -0.6830459506954302 -1.2061877967016388
Ni 8.051951191950126 3.8127727998930494 12.576992614187356 -0.08885861080562116 0.7884642656319453 -1.3752653403600121
Ni 8.395419544200642 7.209393337896843 8.873435083077208 -0.5128268372334459 1.1878000382230705 1.2922639596661163
Ni 7.0525884113146455 0.9536871992338364 0.4369958435934748 -0.556177693415255 -1.7774421819443582 -1.3933489373346004
Ni 1.9242477741329929 6.674881584967204 9.148848093876076 0.5220900077029267 0.7090238628164305 0.7121009590798575
Ni 0.08662425006293742 5.006602828617345 1.285180280929867 0.5874747037563237 -0.19825570788422628 0.4033086411959441
Ni 6.449144411333483 2.197290499078822 6.699943055288895 0.43063329715282606 0.6025969041097429 0.570207946256076
Ni 3.4593880385224396 4.0800423353236 13.511703867631143 0.7062229030325258 0.6458855395950489 -0.26125879107932426
Ni 6.068924335291692 5.94622129314912 4.435424948081674 -0.09323257150360073 -0.37020028867774957 2.4050978287949416
Ni 5.323782224825886 3.0611108097853816 9.195054553745765 -1.1152316799370408 -0.9325221473175295 -0.942722227778983
P 0.6502031926640649 5.460080490858542 12.498745863105581 -1.0884847508604996 0.45613015587234984 -0.21353371708921937
P 4.135525054119495 5.991760284893462 12.586068541616187 1.351147364265886 -0.6874967873779321 1.3169079834670416
P 2.5271545214621027 8.749104802817316 1.317322559086071 0.2476525131497993 0.05584333222186512 -0.9553463443008966
P 6.331595352259757 7.732495301453225 5.7633914838623985 0.17680576554056648 0.001985148750828839 -0.5015985726177943
P 4.856782186511834 1.01538930042553 12.433574384618428 0.2894630214276821 -0.11824760549069958 0.096816175089801
P 4.028821213835513 6.203738327048338 8.266326837889501 0.9816407592210513 0.791056966059786 -0.09072780280387602
P 4.7849542387255175 1.3085107049946894 3.6823269453769085 0.789675255220911 -0.4470832151787333 1.2218537853736697
P 0.11958697676066653 5.836594434198883 3.4818943716548763 1.3980602267673408 -1.217723308145064 -1.298083394561371
Ni 0.2799942279047635 0.34667001381766505 4.91145720513422 1.4960675939517654 -0.8548169820255666 -0.4825135309618851
Ni 1.4146135507865454 7.350007837100227 4.759482999431922 0.43945706609204316 -1.5335799890749267 -1.115440967734369
Ni 6.174444398545729 5.921926546103748 8.973164655459373 -0.495371874981792 -0.8011560021670009 0.5860384855304294
Ni 8.888134861996003 2.266004202678663 10.11148100506545 -0.6230281753809012 0.8221254053298164 -0.02474249705200255
Ni 2.3422212314529363 5.86826502273854 6.92035414288557 -0.8488486802572737 -1.6186063706186513 -0.4687524726220508
Ni 0.8534695464762472 0.0033318770404428518 8.843235109847832 -0.6243029283282667 0.2855693428002308 1.1053689282103478
Ni 1.3075181534849647 0.8380458423737545 11.334014894972812 1.0345993136959537 1.0944044587790442 -0.06962007429098332
Ni 4.4043699235975895 7.037317687628331 1.3002415671416527 1.062490383679267 0.535093104830814 0.8210879652042374
Ni 5.986697361596151 8.14311112923319 7.983556197550655 -0.8447878799243387 -0.35457749453882803 -0.5512373186908442
Ni 5.259184422899399 3.2945243221594502 4.752246479388085 0.6390762299826993 -0.7974695544543492 -0.5924557019106829
Ni 0.758170942576945 7.772743720471419 6.954072665687034 0.4732143650481463 -0.6424896265396226 0.23873027095950503
Ni 5.043973758855054 4.784371456187698 6.784119618692989 0.9619484229984464 0.24491608805524273 0.5097492267493867
Ni 0.9190298501878525 7.434074218180765 11.481509870513333 0.24827780543862404 -0.760167218459465 -0.1837217759341094
Ni 4.725382936187728 0.09366499159797544 10.206040203619892 -0.4772232290972232 0.3452916983615279 0.856571245712512
Ni 8.048035621774147 7.149357630524229 4.543137730634257 0.7000134317877041 2.4960937976585402 0.40743320488727897
Ni 7.482454274796979 6.285182186708685 6.8395486122236795 -0.5268869148709378 -0.6188583602739277 -0.027330312383836805
Ni 2.8160325406777598 5.38481958968538 2.2686103333399767 -0.6795361377699587 -0.34180451114387583 0.32752614684799075
Ni 2.4629755944846736 5.272451831611958 11.24867823007937 -0.2480772593920437 -0.5017135009291037 1.2733311273173555
Ni 1.4017559110458915 3.8094309062777376 3.5606200971349216 -1.149988880912568 0.20145930242318855 0.7036466576649172
Ni 1.6139889205610638 1.3341804545902305 2.5962005932280436 -0.6066919001147228 0.29521380786853024 -0.34333174642167963
Ni 1.0710905626731084 3.225655816948001 8.272083636645906 0.5941657426232542 0.08682821063915369 -1.009525144336145
Ni 3.9430884389358964 2.6835405730952413 7.044232766678652 -0.6816732387176195 -0.17044048544417095 -0.2744071555358242
Ni 4.102060588080612 6.983838283806191 5.95770666213275 0.7533921045191606 0.7891677194568733 -0.7353679000275981
Ni 0.5973329787134903 0.32623620108535084 0.2427198210248817 0.4460079798366835 -0.7181697909817567 1.0068062027430853
P 0.37181070614059114 5.703774651438841 7.846882765259278 0.22779074122886578 -0.03006493770618048 0.08652944845181226
P 8.3056437154449 1.7569254439385753 7.856558776582521 1.5816135954443857 0.3799650813739972 0.07730021654406041
P 1.8964836497921613 3.3300012091492435 10.308981454144075 -1.5062504480220382 -1.5369363071416693 0.6021880987070983
P 4.208609626752986 6.370905855631147 3.578225593363378 -1.5903036670192159 0.7640809516915744 -0.13330167161034462
P 6.855352946171186 4.056749245765106 10.090063746800563 3.1353039821159423 1.086966000223128 0.28140724100274117
P 6.620646385041329 7.908113176834425 10.167576556123771 -0.547782013152392 -1.3210731705883247 -0.5717169267014347
P 2.5712365568618942 8.679617091159432 5.986267559474508 0.2211326124823998 0.7023438796930936 -0.4161520728175156
P 7.076072726393361 4.029367572464718 1.1448562623976766 -0.5043838486724151 1.0432587891431644 1.16756417079217
Ni 5.475323896613396 2.6534180006716697 0.5645487291679686 -1.9016722302707378 1.2649642434098987 -2.491923982551566
Ni 1.5114009819504346 1.3056787460999701 6.83373808820207 0.2806343673924586 -0.3365512331647365 -0.2429877606842783
Ni 6.937397800323659 0.7966464278433653 9.293518395303602 0.3981134701482499 0.7021960412613197 -0.2487280056021652
Ni 2.6553939977139653 1.5181029811353648 8.958344677642152 1.191691917078309 1.0286844908734154 1.6406227269887421
Ni 6.4993365574032325 2.1790148029318726 2.425861452802692 1.0649126199675143 -0.35754711869011324 2.83873417444015
Ni 4.247218969883561 6.703091902188554 10.665319283905546 0.7656835202920039 1.089237312755808 -2.1943357609135887
Ni 8.401793728208048 7.35536215166645 0.034047248576703534 0.38014505859528724 -0.41117236021473696 0.5611849168218593
Ni 8.038101000699747 4.084322144585715 7.975893517776037 -1.8940100857397897 -0.23430180287450617 -0.17011241268079091
Ni 3.5304692961821744 8.214884441156586 12.628463239449447 1.1337130265706798 2.633773800842238 -1.6849919971327367
Ni 0.3342166794626236 5.05567493949722 10.095807797188954 -0.44705621859553973 -1.1728896967701414 -0.35687837475786277
Ni 9.062341310918418 2.6301158051360223 5.531399414521982 -0.5938340703154482 0.594413596968002 0.3744176691932068
Ni 3.6051656267718233 2.652470979047712 11.404370406253417 0.5212333161295861 -0.25959605866492064 -0.8637122276326674
Ni 1.3793552072484347 3.103262378028645 12.595770960273175 -1.2606987832653256 0.7829075974797742 -0.5974469844776872
Ni 3.4398739294826224 8.553535731492934 8.128826582872593 -0.09665625247316902 -1.2692564430273496 -0.6503466606901961
Ni 5.5971800828806995 8.089567983570976 3.3596803204854426 0.45712131614102564 0.6314523948888544 0.1533112819630521
Ni 3.033774666370762 8.611358686417264 3.4360876641822236 0.9466321043563503 -0.16753745286476307 0.90788172306103
Ni 3.2318114575037247 4.335993141152426 9.111837760333644 1.2650107803771182 0.3692009008789577 -1.3262410879425095
Ni 7.685235280026883 6.187329356217843 11.1746038377293 -0.6567029419255271 -0.3677176314652119 0.3620128677709507
Ni 8.159328874543462 9.17900709020826 2.453436172818732 0.2543656635039167 -1.3569128059947533 -0.28681067140649963
Ni 4.598645946166182 0.5891503476434112 1.6850647146345064 0.23601132936644514 -0.8836292782715687 -0.9123749829456932
Ni 6.283042282077627 5.943243638619946 0.0169307433213867 0.0033426912199877915 -1.7976988753108654 0.4492979634418649
Ni 8.16138682538014 8.840337587917608 11.33930546769896 0.20771685329712614 0.47264280881539245 -0.3669249603605874
Ni 0.07334773537322527 5.070089701331113 5.618162075437651 1.2771206762667748 -0.0596706763877553 -0.010542551402536682
Ni 7.312664224793981 6.354451354914885 2.242101923248604 0.9231332499034618 -1.301171032347759 1.0266846868345674
P 8.649895181730612 1.7890877552445172 3.5220899760055806 -0.13346570799203467 1.7541587859363854 -0.039583932940209246
P 1.928454735577881 3.329263624999815 1.5156052116021768 -0.7183330560324983 -0.3364352764121625 -0.4712857805668657
P 5.011656645937503 1.0869895987830107 8.141194321042393 -0.7259738604072077 0.09960093692378975 -0.29593731629811615
P 8.55720544028577 1.6229674140343533 12.261596168305458 -0.19294458008395804 1.116718548895212 0.4250339486881777
P 6.662397290289841 7.997688674092791 1.2766443379462342 -1.509964920759148 1.4714107146350337 -1.0620203860213837
P 2.0191866919347343 3.567539729173819 6.200681450517929 -0.3772247996246987 -0.37075744673280014 -0.38087885143751826
P 7.123050462527947 4.295881311791533 5.698886562902875 -1.3831185178558438 -0.7162075250490633 1.8531506285212664
P 2.459114660171616 8.503589446806329 10.386374975166575 1.603972165645244 -0.4851018605143516 -1.3813010050311307
