# total energy = -381163.9895070348 ev
CRYSTAL
PRIMVEC
9.28299919479539 0.00000000000000 0.00000000000000

0.00000000000000 9.28299919479539 0.00000000000000

0.00000000000000 0.00000000000000 13.58660766151927

PRIMCOORD
 96 1
Ni 2.7150173129821957 0.7737936730385947 1.048334658242386 1.1295354981542225 -1.3099832313227504 0.1160318287863034
Ni 6.928273548822218 7.403182499815325 4.48526481888914 0.8135407489845989 -1.1599033118128026 1.7425785372979539
Ni 2.2140695495116027 9.195748192160192 9.516970594941712 1.22625294288263 0.8305969331359372 2.283873400064105
Ni 5.275584086926815 7.030312274937198 6.7100859379591835 -0.039704003457841294 1.2613014498463309 0.5872751861510079
Ni 2.598394995280004 5.321293574498701 5.596839908505098 -1.735083514472489 1.1062269053352691 -0.1684298827720454
Ni 8.600930741783243 8.992441228855592 6.876630368225161 0.7394811508650233 2.0521558129770074 -0.4193644091072262
Ni 8.577565433046763 1.264873608465135 1.643802846856295 0.3171196068026861 0.04251344788217839 -0.819229314728944
Ni 9.207045602065753 2.3040403767956623 3.4828048856026323 -0.44908481898979424 0.09859255026393343 1.8991960008161033
Ni -0.08567001380070156 1.8949478894265728 5.945418381336494 -1.2359992236361166 0.17343042131043032 0.02151242015047908
Ni 9.010905114066901 8.305443597408615 4.423799296943624 -0.32408498237692573 1.752716397062904 1.1262282881578602
Ni 5.825982386606878 3.2652392356793447 9.5467244636593 0.9886578139688329 1.7142269827384542 0.3997052401154019
Ni 1.4550358450431333 2.0096764753122196 7.678906139104547 1.0870271924783665 -0.4620735179399784 0.8262548541171575
Ni 3.9052463256785397 2.0800230424973827 10.147728104636963 1.1676736997868407 -0.652075984676477 0.05137321226565346
Ni 3.3290691374958112 8.457740480654826 12.664593303715181 -0.5144057516847914 -0.21917317476318382 -0.3192929603049211
Ni 1.6190571561535385 5.659909532695217 13.018307131649088 1.189300791138313 -0.5920672082230126 -1.347174752771383
Ni 6.289101928742087 3.982972877148766 0.8207452258901544 -0.39419073805507593 0.133766269951589 -0.971662564962417
Ni 1.9137181136082038 7.21463550508085 3.5409415240706346 -1.968517055809429 -4.084969216871661 1.834434797279318
Ni 0.33453886499148555 7.77063145321864 8.821838271382786 -1.0905791714956832 -0.13871332954421917 -0.375241964866715
Ni 2.610509309106428 6.743931752680363 8.24347029541229 0.7986915997869083 0.034220868856083005 0.20695092166537907
Ni 6.5697455575546835 6.8362511787369025 11.176764336048887 -1.0201432861716238 0.2915908664039623 -0.42308968047761325
Ni 4.444570007431458 -0.2857446368184354 8.110198918822979 -0.5128733742006651 -0.16472929399200664 0.3883954715295376
Ni 5.338597084822419 4.269130607427183 11.99643087744354 1.2071473324014308 0.13888662189728984 -1.1863951874557437
Ni 5.85315372497465 0.2400797076422339 2.787700411041007 0.6130430391437313 1.1660981277696045 0.1842820193129536
Ni 6.916465573966118 8.411780352107222 8.639669625330406 -0.5462275241810787 -1.3837962606491587 -0.8477587896272045
P 5.137425211310982 6.5696712935618775 9.206013332565755 -0.6678224488774563 0.46747669123342067 -0.2532886283896541
Ni 6.368963570005476 3.014115544006999 7.198456165948227 -0.5075501622155388 0.4691245112494889 0.12012168258496085
P 2.9365560865205858 1.2022969115272641 3.2424986727823413 0.054563951288809254 0.8008680386129369 0.2697537159242129
Ni 3.0315861483145308 3.881936714936663 3.4434579656143725 -0.14435407276976428 1.784575964775662 0.6477606451305747
P 8.218601140821495 2.5772204743312894 13.670029366513376 -0.7533129145417929 0.6985391612350228 -1.6643444960857146
P 4.524385233699343 2.0160260466971036 8.06930359458472 0.30000557283021884 -0.591931968196729 -0.9758933152143129
P 1.664079701791971 4.638352613658733 10.467163530091595 0.31001770565058223 2.0711027863931557 1.7220197393099956
Ni 3.4935360325630502 1.05035278224688 6.009152668262224 2.041895825811896 0.8633263050481582 1.8466220833741296
Ni 3.947409707593954 4.319667254531436 0.08613509205564703 -0.19787492750603985 2.2724481889462993 1.1158171201268654
Ni 0.693250659641214 7.791676012179945 12.61868423166263 0.2029654546550698 0.2983631521307894 1.3500610731802425
Ni 6.307872152923718 2.035678155793302 11.938280314476886 -0.9271169171415581 0.01574286465655353 1.1724340972899614
Ni 3.757516677989877 6.236114569875247 11.686303515187186 0.13884111337133506 0.20052059265900304 0.2763113145370725
Ni 6.723490588660606 5.146717493410791 8.214951993875005 -2.8785531062093006 1.5429760855778458 2.082712602717942
Ni 1.914080150573131 2.6956993918536227 5.006093981533719 -0.878565490595416 -5.013651164507494e-05 0.4534050436317031
Ni 5.915563327928708 1.5906604619044735 0.9889680223935399 0.9784124820917408 -0.7102325384125511 -2.016358343662424
Ni 8.23101251061914 2.4495421047001553 11.010668274639473 1.9182293632984704 0.3357415927792476 0.15557745228940947
Ni 4.216393889536062 5.031905360533237 7.310695051475064 -0.9052962217220408 0.07378217608847293 3.3577100619941267
Ni 5.805606203580825 4.905294535798684 5.886900211605453 2.876682628659465 0.9160058948300611 -0.45281574678713626
Ni 4.660789622485143 6.346424448188957 4.289726797531923 -1.4243088760512244 -0.16265569929242954 0.36321588694011636
Ni 1.8092750907261408 4.85578830159461 1.7126325719884028 1.9925411866381684 0.6451694873646309 -0.6677846536609854
Ni 6.281768359452528 0.8161566394346745 6.974100930482682 0.31180102280325006 -1.304395709932644 -1.2603555409932938
Ni 8.914473319408748 4.373954233272374 1.2920338072339859 -1.102502148185514 -0.7708105571059242 -1.4137012757387073
Ni 8.853613977304507 5.560553593320342 9.063626050859549 1.455745497293951 -0.5524395665290615 -1.2270461282078868
Ni 7.872688745331821 6.891150835418488 0.22021037636707905 0.7163389084206051 0.6800467588577901 0.39471601443092663
Ni 9.10285322015941 0.7357872181204771 9.05065027471658 -0.5124709965559239 0.46466801814003195 -1.0020332068344744
Ni 1.5735426115627682 2.5276214101362084 1.9285644140699656 -0.4204928662847145 0.07941957687990839 -0.23880354739960163
Ni 2.415065046040127 2.923597019775998 13.006500085092897 1.017228169407358 -0.8724766040888587 0.5754465689471961
Ni 1.60779687824438 6.910264530566844 10.5166725491954 1.2970223002867083 -0.6517610245392195 0.46881572175981834
Ni 1.0493130863476006 -0.25499470229734106 2.6728929196630036 -0.3127037371231776 1.4585474855191205 -1.704215364138723
Ni 0.9393652449988181 1.1245239450615347 -0.4006755920844779 -0.8002756564445765 0.33663890778253636 0.9756081798737262
Ni 8.812434593293768 6.220435584394152 11.269112539402638 1.1382088575585043 0.9754194609016877 0.26150715964470445
Ni 8.818960541661566 6.73326558671365 2.81843270786381 0.40921909314310817 1.523403562762557 -1.5615947291202976
P 1.046565318613791 6.804568302806187 1.0763201156312896 -2.7804146127636504 0.7518155040606601 0.8252485243398303
Ni 7.782318749086431 8.499012694656573 1.9099640687718775 0.19253911711542324 0.703582380085885 -0.19867942568520622
P 0.9480262831597783 3.9243971528232997 6.747449081039623 1.1243063885447993 -1.1071699859748287 -1.7578115521976245
Ni 3.926671487602973 3.6481072505889354 5.60065800603522 1.8614961722724843 -2.9360293460488984 -0.06515046855540392
P 7.730380369117971 8.72158188109514 10.523819530203037 0.5060982602603606 0.2603275375143065 1.4461984770354641
P 2.557995383193724 1.1598921716352313 11.57095296836179 0.6567960158599656 -2.2121131395016675 1.5373026893421524
P 8.037127791401758 5.440450150955384 5.006705731174455 -0.19981611039281072 1.2008599567308222 -1.1595497851281253
Ni 5.430071757960794 6.510844928260693 13.51703068853515 -0.2763966751620272 0.09200692662661575 0.3252849162222978
Ni 7.09054965610169 5.330307366625488 2.5458587901694587 0.4614772791168762 0.12772186352972198 -0.16659128690140987
Ni 5.643794246256388 4.2517249841133555 3.785907802439481 -3.2141736000296515 -0.22665559918315803 -0.6059444804257371
Ni 8.31024290794368 4.576899159612047 6.924251225311882 0.6033114136782641 -0.4849758764594486 -1.424937767884475
Ni 4.051964126465226 4.595660100794578 10.036821329481077 -1.4383658683649228 1.0733612649554998 -0.7817583143666794
Ni 1.6235686937164824 2.527240807173079 10.357994532367364 -2.057809154608043 -0.03747305724479352 -1.6924075728705175
Ni 3.558619139258113 8.387180404490348 3.1612640759519577 1.9030829945753356 2.612448299891584 -0.9955679108251049
Ni 2.9984458415250046 7.254329609235477 1.2768273264071164 1.947228064523666 -0.4217172256101189 -0.8229892959920084
Ni 6.695669440355784 1.2776377322286083 9.68392254886821 -0.054492474620925505 -1.8762298789382332 -0.621246143779814
Ni 1.7360043788242547 0.2744472269128741 5.020169793070123 -1.2612348582744537 -1.0011353776105532 -1.0145562790021496
Ni 5.105500977403649 1.8892017129832346 4.198887081532037 -0.46707431358867946 0.3693909054025767 0.4758422895892967
Ni 0.4768231054076734 0.2812358841552217 11.137757173827714 -0.563513564955036 -0.5884458094203414 -0.04380619855167294
Ni 5.014954604175345 8.73256366903128 4.773178892597412 0.2544875337937617 0.4015975720421084 2.498643303553271
Ni 0.5738007404129472 3.757098943030345 12.215243234146051 -2.0900914116805165 0.449204118176478 -0.0996767844670477
Ni 1.9155654304292447 8.824353964139076 7.451819845303573 0.2014047950361693 1.5553957993984373 -2.3120115530612186
Ni 8.026183135462023 9.32635070650805 12.970006759028196 -1.126855123108582 0.05916571172687874 -0.261596119814085
Ni 7.8507530184568495 7.012154728696213 6.8016729353866765 -0.4406523719517249 -2.3491118003476252 -0.2606754077720285
Ni 4.927824374616102 8.955364930447365 10.602065001322991 -0.17699525584355325 -0.3772471682222019 -0.011748913005812024
Ni 2.032624049089169 4.386653376042142 8.443207017262758 0.7054906528521915 -0.032432923717724785 -0.10922200495332157
Ni 4.071792612544337 2.833449815509025 1.85215326357231 1.130946776679452 -1.2814033628025285 -0.5272399273349823
Ni 8.470467472421896 2.93399397876879 8.678187573498974 0.0884696028973186 0.6878060910882348 -0.19482714181865154
Ni 1.1378079167746475 7.185291944923514 6.1067856830040075 -1.1175482438853592 -0.474137648193364 -0.3120025972910949
Ni 7.632741784576727 5.019104104773361 12.687377496707958 -1.041856252368683 -2.453645655796658 0.08959934562638762
Ni 6.905455937032679 2.7855031251538698 2.6772271519431246 1.1032336270349 -1.2112212453604883 0.1118823253943041
Ni 0.3215370964510343 4.902500353069372 3.471718199776657 0.8111768767381128 -2.6444500496091616 2.6929443976651233
P 7.637420416123485 4.506069876473647 10.438576534360967 -1.1378884981046082 -0.720453701919927 0.2790659944640742
Ni 7.350334385934996 3.3317983392314194 4.920268013348126 1.086010321178078 -0.9822416260298438 0.6305669069601075
P 7.4318112690419085 0.8690901569067303 4.800664924634698 -0.13822199173009742 -0.032717544837679136 0.32858518424012445
Ni 4.321718797332692 1.286567977363489 12.886612008307077 -0.08001555859269445 0.2511543556554707 -0.34115916425039305
P 5.960195987604911 8.631258299845255 0.46066326057316137 0.3910398511309201 -0.07480753202919374 0.29260593793203804
P 4.486584861361262 5.31460053214709 2.148926103322386 -0.04943614314394066 0.13572956432554686 -0.6260214536812703
P 3.221144989950983 7.629399904900473 5.727054393490546 0.46471044134219325 0.19263527637365532 0.016969537974803037
Ni 5.900134983423332 7.335435172378361 2.6073243121149745 -1.9535516927488483 -1.3843804152874029 -3.1053963959232327
