# total energy = -340892.3894282288 ev
CRYSTAL
PRIMVEC
9.08500623364363 0.00000000000000 0.00000000000000
0.00000000000000 9.08500623364363 0.00000000000000
0.00000000000000 0.00000000000000 13.29682494944381
PRIMCOORD
 96 1
Ni 6.570549171329662 1.9597630683796394 11.22895615227335 -1.0517421440238273 -0.43004040076383354 1.3862033274287546
Ni 4.654212433493495 0.19848286010092298 6.093376472215044 -0.7345232926391156 1.4943359559726395 -0.6007943036833653
Ni 2.81719688644709 1.5858968854246207 4.69698373507626 -0.8124400597212523 0.06853815408071422 1.1108101538305772
Ni 3.5446424330885975 4.140464407153989 4.650046049563111 0.15877487618078465 0.5113646508656225 1.166222826272927
Ni 4.916950818287895 4.64259271032088 2.3484323607462763 1.380318072292571 0.6855373496587162 1.5343713746279706
Ni 7.456573504505964 6.06491405569629 2.585514687495746 -0.6448378150568249 0.2401189237769155 -0.157851850145883
Ni 5.164072077098146 4.145633775789812 11.780468733174175 0.6400383367856526 1.0044469584822895 -0.7803043555289723
Ni 5.523175124669662 7.925323494196554 12.21972879212332 0.4682225682605098 0.0606366398454504 1.3197675644030238
Ni 2.2060666766148045 6.456950251431004 0.5059721693704354 -1.023624816962321 -0.15455929543754027 0.257855164714414
Ni 2.662170337410726 1.375469967422965 0.3155358994290006 0.21066205196837912 0.9816641562598191 0.24592524604604749
Ni 0.47372948169286533 9.042897385230907 4.547540830967097 -0.09158012350184228 -0.29824590982663474 0.5322474078519027
Ni 8.692479603768085 2.4211451178880625 1.4046900734746326 -0.07059143706531715 0.5246094316906706 0.7741859013360602
Ni 6.84948612251716 0.8656893633739051 4.868699440850774 -0.4391099671652695 -0.9589808557296904 0.08961245825251017
Ni 0.8488802845514087 7.354594307779921 2.5186844719913863 0.32959074268650335 0.4003683276206976 -0.1476484272503199
Ni 8.057791972366925 3.80841650861144 3.6030672006810693 -0.8183739087071841 -0.0060942858231959555 0.23388039906637142
Ni 7.5138362997811745 3.6051576606513738 12.85138112288963 0.05679952548754734 0.6070893926634576 -0.047378232173647436
Ni 7.831538973234154 0.06396026198580684 6.965062848306888 0.16315629307793192 -0.08278000871170904 0.024449648401932086
Ni 6.919649626865955 0.5833627963023542 0.3986019298526576 -1.5187722346381327 0.44938358117713567 -1.176212333385471
Ni 1.979850017507593 6.369488894915939 9.295425131343757 -0.1624939769035847 1.250756327340633 -0.2198761143674794
Ni 0.2878048259246291 4.920003380434884 1.5452369393268566 0.22171856689285682 -0.22915856811066987 -0.6633798397250704
Ni 6.418475249369998 2.0644405120034666 6.999222472332716 -1.422276419002228 0.07383976879928573 0.7305565946818837
Ni 3.5214938368072652 4.300714834864515 0.4491790689255795 -0.39434243314159184 0.2142600537322826 -0.8532632643852014
Ni 6.207448720946612 5.5053049171008315 4.757031993310598 -0.5764012195509816 0.3605943901568693 -0.2510111452093871
Ni 5.309768324572136 2.9666452415600872 9.247343643526126 -0.047144776006602676 -0.9672551799233405 -0.2926804999237153
P 0.2851710825722122 5.859402126151542 12.662300335901563 -0.38391275316783563 -0.6100420475338784 0.4976493581620591
P 4.111764871968459 6.119614879169564 12.513907658531066 -0.4306780343478324 0.24012432309355417 0.024953327511227995
P 2.552314440144686 8.60858865476423 1.4338229634649575 -0.9018882244817564 -1.300163417018851 0.6358476957430726
P 6.366082017519746 7.9427031114203315 5.894549290371946 0.9000082338502242 -0.9096907512453106 0.1902706327962207
P 4.874805473645391 1.048945752765443 12.677458669063022 -0.31894946092257326 -1.6050625704959454 -0.966310299511568
P 3.9690939316222886 6.203714783320385 8.230030066008855 -0.39496309744472624 -0.5641571120763057 -0.8265065651166474
P 4.735768535855159 1.1696673176737413 3.895677086485289 0.9549663352536586 -0.35904350072998165 0.3395506821126926
P 0.3204636068948541 5.649184163296852 3.731235745327126 0.3084948412481526 -0.530026488941184 -0.9114005348475659
Ni 1.2864005647768963 1.0750106360979166 2.4926895432081144 0.8005569351304213 -0.5290772376540372 -0.203927561458023
Ni 1.8369519520016762 6.714864497832394 4.9655265304531335 0.2733347484072518 -0.24299804509692347 -0.0146714859692457
Ni 5.803102341553655 5.482983056400975 9.0558962123735 1.557156490843286 0.3273060604173847 0.6262034877850893
Ni 8.734361483225284 2.6784052438293844 10.52140586112497 0.6601628754496696 -0.08642043367777374 0.0024615741666151156
Ni 2.311361900673141 5.302727444620004 7.123734301906858 -0.23497054680675664 0.5825998921625257 -1.305031800854746
Ni 0.3069887254174318 0.4647880184039771 9.798828969407783 -1.3967461359416073 -1.6741648246102456 -2.224188068388331
Ni 1.4406094632381738 1.0537789761648422 11.500450666226286 0.8213553599330112 0.8225750912727252 2.0604867014402064
Ni 4.158198339626972 6.890232376175629 1.829975575594912 0.41583968378341934 1.040504880547111 -0.07229582135093356
Ni 5.566683220270644 7.807518216339395 8.011151366562723 0.6379089491474755 0.5759371354303694 0.37624906597499075
Ni 5.741206193019622 3.127249984519817 4.464156825319795 -0.5944166822917957 -0.5737946351660699 -0.41951867529690334
Ni 0.6076533778868904 7.824897833563175 7.1119664931300886 0.6415221204200305 -1.1296092888149514 0.06414105345428309
Ni 4.975194794253209 4.5142397400451095 6.867291826540623 0.5858906470986555 0.3579867773306931 -0.06650723969361448
Ni 8.189742605173075 7.478513794937446 8.996153210353862 0.06652780851890477 -0.2943802562236414 0.5298909918045842
Ni 4.664614765809871 0.36581868429489156 10.342230456603751 -0.3476576274905432 0.4254018735505577 -0.18998266924215668
Ni 8.159852934150475 7.061012326291988 4.890306311547749 -0.08428538961264194 0.7630219142994409 0.1777215924866165
Ni 7.224969436609572 6.039948458136988 7.101076295970578 0.11688569214616643 -0.05733945715141738 -0.6578519679283058
Ni 2.5913981376338118 5.062528960678817 2.681291550359439 -1.0683373293783471 1.3626059997247888 -0.38646123062130217
Ni 2.1971633703527536 5.379859148869812 11.584088143551863 0.17770590875733266 -0.42690159802453576 -0.5012471028156464
Ni 1.3433090448029033 3.2786243609874623 3.607109120023913 -0.8486566188511255 0.05653855851667682 0.4457015043398582
Ni 3.7512809034256867 2.7290814094719553 2.6242213572196924 -0.6837743442210225 -0.7265526157288132 -0.1807740061596951
Ni 0.9735765397552653 3.5225931225804366 8.234763354337966 0.41477704684685984 -0.32981185755837394 0.009183980492113216
Ni 3.2729462319938074 3.133554978954372 7.497295228647178 0.6577280407559318 -0.9585090582995943 0.044094419216053095
Ni 4.371069124347497 6.9494121077990965 5.991748865236289 -0.6787493802026052 -1.1465325469328511 0.37715203740523434
Ni 0.6585921002141285 7.403498897176473 11.18149971289534 0.42059930995559175 0.14007421444748777 -0.12920976092915812
P 0.17925626107808795 5.74368639976405 7.869100932152979 0.46418747895918766 0.29928772082758776 0.05080808379080282
P 8.765223249931598 1.6675801778757426 8.18672184054845 -1.111416934176641 0.6832812066346877 0.3611782876847973
P 1.9019097476890885 3.3277015655054205 10.519065563478945 -0.893135932210423 0.5412719799480162 -0.5418885304860925
P 4.095484540517852 6.212690769633555 4.00303551549476 -0.8964580546051207 -1.0860589150278264 -1.0049773770644628
P 6.912454301805195 4.033997217271362 10.388942833958431 0.31568493123868857 -0.616385473253403 0.9133990533348334
P 6.330096307209559 7.631241837357178 10.09401899702672 0.5829449342067702 0.5426860866867236 0.5461907574058722
P 2.1316150492500014 8.741320598119907 5.916794837018127 1.7600916064810526 -0.15214245846593152 -0.7874669347156825
P 6.846260945248764 3.9588460444145404 1.7013682251402258 0.9451804595114883 -0.0011377131488690083 -0.25827965384634227
Ni 5.315128478342147 2.75328386649451 0.5142731397088394 0.45121189263512607 0.04438598231454291 0.7801763145915402
Ni 1.5462044925073755 1.410856067311422 7.063858658793927 0.25383395937016284 -0.6054662552377379 -0.4006472923136971
Ni 6.890277801207577 0.7218473657040831 9.234379339407813 0.19387994741403383 -0.24010503981984455 -0.6345330906967072
Ni 2.6147829440812798 1.5682356330027565 9.254763368244715 0.2656353228804651 -0.07248454032297194 0.4891680601639252
Ni 6.595687384010371 1.5886768973799141 2.605512603561079 -0.9873912885515833 1.8501802330390331 -0.17879579938740173
Ni 4.310562981791111 6.988959140614105 10.424232632779157 -1.736031223097739 -0.44486383892991127 -0.33013401678448306
Ni 7.78643191650856 7.306589134015965 0.3079281150781421 -0.10418649941194315 -1.0254770396797113 -0.32178050261346514
Ni 7.636065975750187 3.7743931596814595 8.39701157495362 -0.3247267297259827 -0.566754697600153 -1.3383442989639465
Ni 3.091164339139342 8.287342828819211 12.596547602155038 0.4660828962096876 0.2514698300133605 -1.4886733583702234
Ni 0.03436221966832153 4.991702250863564 9.860207272577595 0.11385873239438454 0.9478847458165289 1.8571906029185952
Ni 8.635534783716519 2.3070010976060145 6.032038143073348 0.19331327627728642 0.788379676337939 -1.1009592291784263
Ni 3.5877507884084254 2.501193109189012 11.60267697512613 -0.10298785111815166 -0.2281866911157038 -0.39472578462293956
Ni 0.9581047738733545 3.436957852349731 12.61586777674369 0.3666148853193364 0.07846852582054874 0.48123337869788096
Ni 3.1562311549034323 8.233232530761278 7.957538018354315 -0.7210188303947777 1.1488789356778408 0.1274611536691676
Ni 5.638373005692933 7.751327451818186 3.7897813435045835 0.361313527711081 0.7348187123923473 0.2168928633694394
Ni 3.1497717153602505 8.420874252737194 3.7357028429690144 -0.0003437564926639241 0.13368682286390524 -0.15328299982827795
Ni 3.698678716428468 4.567468792483227 9.680926481982254 -1.5424873188668855 -0.49430332450796166 0.4369129595139508
Ni 7.2890187316579995 5.826723358167259 11.500357999161109 0.32098860283978914 1.0743758222629431 0.12485534061520434
Ni 0.6142627200355049 8.548109767227013 0.1482273302542016 0.7679766872015548 1.0819682898982204 0.15656064213828522
Ni 4.4836686935432715 0.5795552701243691 1.7726128452494128 0.8694442450204382 -1.5063090691741157 -0.49294218249437677
Ni 5.907443639941056 5.568400286478325 0.3341056524898497 0.42517638780331285 0.79947450069952 0.32741404675015867
Ni 7.7282969606199226 8.666614590576188 11.4728195277922 0.341016982245574 0.5161373896639175 -0.038163655553914926
Ni 0.09659905594197424 4.827790565577929 5.741090813438469 -0.23789569087335158 -0.2909915422570666 0.7087099311204376
Ni 8.073745243587497 8.92804473445045 2.229797621805726 1.135223549677935 -0.9789971509506172 1.3652694054895649
P 8.53043034479237 1.6492557199874196 3.7107581409244093 0.5231891543043764 -0.01348672163252516 -0.6775828706983298
P 1.926820835210051 3.150607535948116 1.4096895524909656 -1.0361882554496282 0.05047229771793888 0.2918163521512071
P 4.495633646958701 1.2504966195242175 8.032930852381106 0.4770594498258494 -0.08955537976232963 0.45668757103771673
P 8.62120772863973 1.563892999948409 12.751468765117279 0.36063681335903053 -0.5581319889281484 -1.9237518357785965
P 6.197355278847492 7.814731711412936 1.687925141185168 0.3107468705071229 -0.10809457621709771 -0.8250227814822694
P 1.8231154872699378 3.3868812971288893 5.845856381624278 0.22039187766163335 -0.4957094608268689 0.4756317162403873
P 6.982999376422365 3.9149472935387952 6.010098761142504 0.7700446254741771 0.6254637814055873 0.5218364969312238
P 2.301568263784885 8.611741151981509 10.071228349997146 0.5740784849550757 -1.0587586845509767 0.6411973900907603
