# total energy = -340868.5871015002 ev
CRYSTAL
PRIMVEC
9.25982857738575 0.00000000000000 0.00000000000000

0.00000000000000 9.25982857738575 0.00000000000000

0.00000000000000 0.00000000000000 13.55269512081635

PRIMCOORD
 96 1
Ni 6.622990510458728 1.5300570298685592 10.294694948150104 -0.3615451841059128 -0.36433071727085 -0.6666996481269228
Ni 7.839268990167964 2.688156006814086 2.7100240179117745 -0.16532964658016688 -0.5619403069306451 0.26191390816481985
Ni 6.1273026284844985 4.082926941604215 6.378833833199213 -0.4435872862103328 0.8108922556181584 -0.7370164913746146
Ni 5.210968515084677 2.9259576637414777 2.0742534496715277 0.9540847039796536 -0.4533752188350321 -0.7149965354600977
Ni 5.424861294702519 7.824934775576493 4.781526372521851 0.6938265862507018 -0.21929067417765458 -0.243775032472264
Ni 3.743081974083783 0.706512880394298 5.744526317869466 1.8286228185832314 2.5891103964965927 -0.4719370409976194
Ni 5.46227100203427 9.174841841054162 0.05396628077461306 -0.3885854760531566 0.02898198905464686 -0.717482535106745
Ni 7.386065201569493 3.864274610112976 0.9218085240370815 0.19361769489158268 1.5217889099772695 -1.2923104966333356
Ni 4.82479662534129 4.878605489030596 10.545229795313112 -0.9268202118367458 -0.43975608538970073 0.8538535896710328
Ni 8.265711874264268 8.126731107595399 10.388452564158875 1.899389604884148 1.309012896989681 0.26541806466333645
Ni 0.8823875819448229 7.971240066626404 3.9565876928683417 1.7815559470024158 0.7197911286352636 0.6884889760878724
Ni 0.6441757146127787 2.8017741030914545 12.216778857352612 -0.36598907880987935 0.15780017097234114 0.03245246410175056
Ni 8.334401282429345 0.29436809755813215 8.35068283896435 -0.36020615357951513 0.8655155993899932 0.7889062382653703
Ni 2.422973036871847 1.2096762219548947 13.218173755789428 -0.2956321263528715 0.23976848241603224 -0.4541097830082115
Ni 1.415253675537116 6.811511359856523 11.467938374685007 0.9110948306816891 0.32412637713782244 -0.8813780203435466
Ni 3.7488971464115894 7.254927509680325 9.108684995996814 2.054470320042797 0.007445143424135565 1.9803253612982672
Ni 0.9303905331348699 0.08080311587086968 11.501481177615336 1.348720242881632 0.4545144746457979 0.5050358804341173
Ni 3.1945760300748254 3.4760748179176937 0.8157705234086662 -0.34187675914270804 -0.25301840544740295 -0.38259300591514755
Ni 3.6550765635686973 5.116999774985025 2.9497035680685917 -1.9091034897378025 0.7084934442342572 -0.7368020613709634
Ni 0.6975401065318066 2.1073332611744835 1.822430560357568 -0.7359628532991196 -1.951639306217484 -1.7042899261304003
Ni 7.1977480683997435 3.7726115673216416 10.539131272231753 -0.12395674006033489 1.3920096496978864 1.3668848296058007
Ni 5.229164078180442 3.9803095216412316 4.079740634601032 1.8559163641918617 0.7693157177279525 1.6013699521357065
Ni 2.9940266633938766 3.2671545662298387 4.586001388810756 1.367918670186954 -0.41556483285547785 2.7296049863109504
Ni 6.443822087893872 4.990325320455734 12.463586623525266 -0.5473050735159736 -0.10525839231988325 0.5020343746036321
P 3.1671113786030514 8.749806450897074 12.028315418891813 -0.6403761797410455 -0.8949341617614265 -0.4095757051515785
P -0.08238099065535733 1.5854678438965766 4.18885382429006 -0.3617596141095641 -1.6122994545640168 -1.5923608066585608
P 5.468734362360398 5.619067678828457 8.70389344301019 -0.09294692194238185 1.6793039456090237 -0.9511256213513297
P 2.882103115740694 7.441318598512204 2.8987587693490156 -0.24830531624244973 -0.2830481190402738 0.8348042863490656
P 8.322900575373398 6.251560267762902 0.7433114390419152 0.38883641572169814 -0.3358878885491247 -0.9207390386396723
P 8.885083286146958 6.044769776640963 10.017189924359757 1.233216775794973 0.8668451168346942 0.4376166704491947
P 4.653452757899039 1.7009008665692473 9.092977548831755 -0.31871086254920594 0.062016550912112556 0.9199779921039317
P 0.9572347760939645 4.200980495755817 0.8481021407649872 0.5950664000606526 -0.5395369995347805 -0.47165344831892964
Ni 3.119988111125013 7.72391930595222 5.137623265125934 -1.0964289454082408 -0.7916580899788948 -0.9680375666153199
Ni 6.293859164567712 6.481778125109921 6.61666975149223 -0.6065031811426844 -0.2605329686568933 1.3393298028056675
Ni 7.812526605322892 5.081932804275784 8.449779672113587 -2.041549755326387 0.038459846638095055 0.3853582273651105
Ni 2.1463078795307546 5.614178489355396 9.350288738525794 -0.1702399393975907 0.27184325146338995 0.8539615760038066
Ni 0.4722457000234731 4.054647425220264 9.833577710074971 0.5605709373869443 -1.1428574120741093 0.7183327989221823
Ni 1.3042931500528694 4.314774528775588 7.417362496077063 -1.5883213464818644 0.11508797681579536 -0.4617117637251855
Ni 3.560496674784912 4.805462103334188 7.059558091088827 1.4293094145896095 -0.8790480866587894 0.20070494075566725
Ni 0.7247491867356712 8.79179051353127 6.735743738749764 0.8961276678488954 0.4706599740574088 0.45887172317322905
Ni 5.031809352348368 9.321591603874353 2.7726102730812205 -0.22551351515891485 -1.154803528692392 -1.0205289516458165
Ni 7.51129512284538 2.9071231724759388 4.875663641501068 -3.316441028042011 0.71570898814609 0.40762912294816894
Ni 1.7331528494000603 0.8081996875882607 5.004265066351085 -1.366035594231628 0.9619301681660015 -0.9150054785900049
Ni 2.5070059809400718 1.0362951922322017 9.82253258658356 1.1525085620106281 0.6802182514386478 0.5992583266548132
Ni 1.122439377209248 1.8374185188444911 7.880932662734418 -0.5084690744853824 -0.7301706720973747 1.1407424226136353
Ni 7.275150975227985 1.222084392208495 0.7867854080893982 0.4269725604717872 0.7319958982315716 0.42126548278468096
Ni 1.6198681069504008 5.622401217105543 4.382508322634568 0.8635229944399968 0.28164532515547624 0.6834802100193713
Ni 9.369001926037361 5.0183826009545465 2.7183458258273796 -2.8639410127230804 -1.4754146935881043 0.0023458745243572503
Ni 4.5031379610880755 8.339577526587378 7.040109673190592 1.6564370683131797 -0.6969795300573868 0.6552878067455554
Ni 3.3825412897597724 2.6896838785244177 11.563009960364662 0.8709635098784418 -1.7453944094801939 0.17413567490757106
Ni 8.823560985277615 9.20412141892124 2.3508232307785817 2.3562119017275163 1.2788535997974813 -0.8721480171048464
Ni 0.4051026832258205 3.5583669142189955 4.719509596808074 1.5890289140718503 0.2108775104132949 1.5003960461237902
Ni 8.54051580606732 1.575670945293361 6.316423514772168 0.1688003787375867 -0.8677509164784152 0.8200168436272457
Ni 1.1795910390041882 6.542013309811166 1.6443622054241491 0.7900915168227232 2.1150018017689507 -0.8262132022459449
Ni 5.51606134606648 6.316443886394974 2.5274424225443224 -0.283566196327273 1.9625739508521167 -0.6161527884173066
Ni 8.98427456954738 7.774052017708184 12.727187088768744 -0.808146574552221 -0.5357703334034967 1.81521554403839
P 5.300057325539816 1.7878784361155653 4.02394461170544 -0.2615333848969496 0.20397949774188096 0.9745913085734376
P 2.494940424342728 4.424401638948999 11.238517788575924 -1.3275909171021845 2.366198323516267 -0.7565553327384906
P 6.964530026603345 8.368681167712053 2.2006056621673666 -2.833469583607101 0.18479726838647526 -1.4968782627785189
P 7.4318920930508865 2.753039625446158 12.457921460419929 0.2266445434395645 0.5176574258528698 0.14503027290118248
P 4.413382442977518 5.793383951234443 5.378360287702871 0.6585752192475754 0.41352183428352013 -1.033913857593155
P 6.410431146151721 8.447945300078334 11.655372120211329 -0.6988772613007319 -0.7924355915748674 0.2457558103477187
P 0.7944655098866638 6.835133182481101 6.040544516874756 -1.0434824751181964 -0.8660858700711666 -1.142871038920864
P 6.8082056010650795 8.801420735220631 6.933829991037087 -0.49594548809707495 0.6303704746785853 -0.5832868909272213
Ni 3.857274179731094 7.326543023666402 1.0082555054076296 -0.0518591507631365 -0.4293572586538799 -0.6424762568031839
Ni 3.2474033519381007 3.457027350595563 9.141171252489878 -0.48058520359092066 -0.4290631244522288 -0.2681382918079769
Ni 2.4345385627276284 6.840439064238796 7.3842947223512185 -1.351209584962389 0.4214022654728613 -1.1660829582609529
Ni 2.3300136180838686 5.503208704042603 13.293567279822868 0.6397997384122853 -0.1206716415511599 -0.9032123426098186
Ni 1.8135374210205846 3.5353655001070985 2.8808697065781725 0.5555074068211078 1.7231463967152711 -1.1060793240138111
Ni 5.32091971925725 2.7351218572068174 13.025901749847055 0.25780631375434954 0.12435474682970195 0.49667850960835747
Ni 8.247368153911744 7.120465539342618 3.2941043712343743 -1.3009072371634112 -1.2094438417450912 -1.292058785633846
Ni 3.1336000590897832 1.5415021779532234 2.812645141806176 0.2649935755314082 0.8374147273887191 0.7346305076409413
Ni 5.729139260772146 3.508011966577893 8.493135115355662 -0.4651981796118892 0.31479455821393526 2.2233028375699
Ni 6.305906201507961 7.0851022541198585 0.2509524654304982 1.5430467909147811 -0.47310663582568846 0.8892507382234041
Ni 8.120314046412007 5.361088855496144 4.9174328761129615 0.2023954410842127 0.16272614751904876 1.6696808206969633
Ni 2.1998759876778267 9.104263427865401 1.6117814986799017 -1.047055022960803 -0.7349236134013278 0.24869329570948784
Ni 7.998667678783988 2.7989683750415733 8.694311372429276 1.331289191889378 -2.3333133998627877 -1.6328754789431557
Ni 8.743556066627537 5.393433436612431 12.046747107615538 0.3491174998655213 -0.8506389393884769 0.9411793087718953
Ni 7.151624862404831 0.42226299748997853 3.9936946038065897 -0.15562836013200293 0.8188994421933511 0.8476760001054111
Ni 4.741847081213118 0.021141114556712266 10.550813471927231 -0.7672976588566591 -0.4088581102592636 0.25075660599641975
Ni 8.52895028021154 7.171913146752321 8.09590606434375 0.9035944085395857 1.0638019034018389 -0.9605170898685589
Ni 6.376364236925605 8.136537266027162 8.928746155696809 -1.3187357807043998 0.8194617424547243 -1.083085177111483
Ni 7.894003836712017 7.785728661506534 5.434400770072116 1.2515124887803672 0.43687593562842825 0.845868514583027
Ni 1.163062245046967 8.47368762344028 9.264175110982956 -0.5967805545382819 -1.1943779485509043 -0.3538509007854487
Ni 7.895142795623355 0.589992753850155 12.073147804787208 0.8194697128745242 1.243355921111504 0.5850588952259795
Ni 4.675407811385072 6.827586422214919 12.179901590162341 -1.3306700702481407 0.675669712836017 -0.7930194891027955
Ni 5.769086161125901 1.626053672420106 7.251409700815144 0.6970654049029736 -1.8927661860303597 -0.970495027016877
Ni 6.670234155707884 6.613397328083558 10.493838672857548 -1.2099899440565485 -3.411433776769828 0.9148514695106437
P 0.2871463572739659 0.7709696209303318 0.10997064981252268 -0.5792590007147508 -0.9966709140812964 0.30287055308283967
P 4.749245684222541 4.966916473887749 0.2701758694950309 -0.5848190113010315 1.0941352642780575 0.36930863010141557
P 2.8002740108667656 9.044824588419239 8.065642166702078 -0.25186732256209526 -0.0656574900988095 -0.8572500169470914
P 8.289092941346611 3.9793279798152006 6.771319074046261 0.953013582402662 -1.6669369394032387 -1.7518201105008797
P 4.167996986469755 1.376001262324421 0.8599426835286278 -0.03840508214075966 0.13908433973039272 0.7699057859034676
P 7.086685684801474 5.22960854995072 3.0971978211039977 0.6341816208945593 -2.8947094042541885 -0.09715556070709074
P 0.243354776107305 1.5150746272787647 10.042424809117302 -0.5133246028054709 0.508614084703679 -0.5291677404853145
P 2.5546570586453154 2.6559873624402006 6.640671227087254 1.0527507877939999 0.4388610843792571 -0.9506764496290531
