# total energy = -340863.7766334678 ev
CRYSTAL
PRIMVEC
9.30060981520450 0.00000000000000 0.00000000000000
0.00000000000000 9.30060981520450 0.00000000000000
0.00000000000000 0.00000000000000 13.61238258460173
PRIMCOORD
 96 1
Ni 6.096279867927506 5.993749947818099 11.526230582702773 -1.928551571160085 -2.509629627361446 0.09327319493354903
Ni 3.9796564382668898 5.401989362106824 9.706962522578614 0.19283016599328082 1.1558941906534093 0.7630280849470278
Ni 7.476899557760666 4.813976922059926 4.326464079049149 -0.5662841857216377 -0.34349809679621485 0.22736162411124716
Ni 4.658359122416367 2.792108102892291 10.568163628205848 0.601845627766015 0.33737475750729634 0.23336669265474647
Ni 6.012778995037244 0.3530697412185497 3.536633061225212 -0.14505187016773727 0.8082113663518855 -0.4752357663535493
Ni 6.89438377798088 1.6876700148052155 1.5280036598075546 -0.7719685819697673 0.669817110709982 2.3084336059019726
Ni 6.469513330735061 4.871305879566672 9.295963934534825 0.9005844180686684 0.5067137823571726 -0.3063466845568982
Ni 2.1416699712838594 8.944210229573121 8.460707809417134 1.0031061281836788 0.942888321043202 -0.1165074828711413
Ni 3.062700038275371 1.564595048113654 4.64382319968968 2.4637781162449697 0.6003158213850499 0.33022297695386355
Ni 8.727143302374879 3.780102558924779 6.582934264673215 2.222208576064457 -0.40631708900496477 -0.15281814437671748
Ni 2.702022398412999 7.026498937192974 6.760153660148243 0.5174244839064572 0.2847995545137418 1.2379879719313711
Ni 6.024051333859141 6.70026145463876 7.265350682231589 1.0064128239594086 0.20318605530630815 0.9936429258882501
Ni 0.8613601460512066 9.433050269572252 1.3494635777708859 -0.5558010268021266 -1.2485737178670175 -0.051200434133215046
Ni 4.697644897320407 3.737821987733074 8.446387660832912 -0.8751294683306734 -1.0778136442998985 -2.450003945279013
Ni 1.8218313081268944 4.290361902807432 3.972936747838819 0.5815094873118243 0.49744341279884 1.4915241975554572
Ni 4.170746762882988 0.27385086898307426 7.190359867115285 -0.5896300595364297 0.047002851112099696 0.16805167349702024
Ni 9.742109526215536 5.163400824319577 13.477333853690398 -0.9019170208371627 -0.6631805792300707 0.6528483440661272
Ni 6.774936049029038 2.4644755288997233 8.346391226775557 0.22249324027535233 1.3999355894131824 1.2529703042728162
Ni 6.918258442795906 8.516000863484843 5.370683510230168 -0.866164802938218 -1.006559633949918 -1.2212218082166257
Ni 7.70949850297258 3.0858864579808087 13.664381203318147 1.987563788028235 -0.9239282350009315 -0.44181990989726494
Ni 8.896646912134852 1.5384417339493166 7.371295786182086 0.059594314623865115 0.16160231832725072 1.199377715758341
Ni 0.3955381847239536 7.784517219917652 9.152679673267272 -1.802823083911308 -1.051959402240956 -0.664540692802391
Ni 0.008388219788341235 7.308846843096581 3.0313002502418653 -0.36510487643271317 0.39866034379065535 0.31924642333770176
Ni 3.1964149023367767 3.747541124753604 -0.12658036644566512 0.018030375139149592 -0.5805586933627808 0.01089839208005865
P 2.9105606666181076 7.953881320533789 0.997721963601649 -0.8893934344488554 -0.07750950434138909 3.1299170067724162
P 2.5975393502898974 0.6394522515618757 10.585519495759927 -1.1186587033407187 0.061793379157712935 -0.6777906158337618
P 9.17905062169599 7.237232149261092 0.6693602218173019 -0.04943897135741808 -0.037296679567929314 1.4712417931573372
P 2.471413783653136 4.64574749581365 7.936086464207108 1.886854705641931 -1.2049539242945377 -0.9778391260867739
P 8.522548492635517 3.815063550369922 9.106465874280367 -1.6259990635382964 0.4984415150460513 0.3100639855074854
P 0.669653191019356 6.856400088419305 11.095289627578197 0.3569084566648498 0.10077618817881354 0.2811814981451803
P 7.464120520185345 5.005020743628078 13.189568342701183 -1.1401726661530944 2.0755155707488706 -1.237185530634734
P 4.14698370538303 4.616571483532879 4.496577808798161 -0.5929017883091661 -0.28386650117651113 -0.8480166712742815
Ni 2.8298313753853743 7.419040465507344 10.608469679981804 0.26322208545328213 2.389378361177156 -1.3633480200971357
Ni 8.618409875669592 5.711541551058327 7.847320516228499 -0.4504539314231791 0.9017599264340083 1.36895096810621
Ni 5.542251855318903 4.06737048730098 0.8948860534367634 0.34597586891274607 -0.43723743273290505 -0.18892774561508105
Ni 4.305094068396447 8.247966595738745 5.019198592885587 -0.6673766195892893 1.4526691723614724 -0.08917202828098192
Ni 0.9840044945187967 2.7786780226457393 8.927258938536166 -0.23484379142090522 0.7984200912930766 0.07610799600817214
Ni 3.9845392583011274 5.9691870378934855 0.9780632651133276 -1.223563568975925 -0.6368270289372064 -0.3547207049849117
Ni 6.78044200990574 0.5855812607003277 7.17789053983928 -0.749531850232806 -0.6836105649496484 0.5992318442922518
Ni 4.963279607792536 7.647937768102826 2.389395427931364 3.906311999944653 -0.682481850661844 -0.8191652942602279
Ni 8.461517892512337 3.0609980267205796 3.0053143470501307 -3.514991127238205 -3.034381755277568 1.2290526171149543
Ni 1.3886368152988984 7.9509330272940675 12.832201719852504 0.5183302835501782 -4.027613561770328 1.4026889837886036
Ni 7.460697895856585 5.525268942209345 1.8066489930337708 1.0281551007325067 0.060685490805514844 -0.4278289949348115
Ni 5.66355970618855 6.515328133570596 4.980525728153464 0.34182970795485645 -1.4244837110661919 -1.2846997741656132
Ni 1.5926642878533297 5.721567608195296 9.370083282532638 -1.0988702078598818 -0.167359275415686 0.9026682971808906
Ni 2.3344437062355716 3.6137239539867188 11.05404421423375 0.3165642485198483 -0.6674408971683214 -0.2580138017794653
Ni 5.837713620743034 7.470203118856568 9.58733715198362 1.8352248972807814 -1.6506178905282411 1.0809246791250546
Ni 7.946905863342021 8.486517931087635 10.871610897023116 -0.4094957438432625 1.3178515783272338 0.131968811731534
Ni 5.324310670819291 3.2976799395420757 5.893345216999785 0.29608129807514816 -1.067796883493845 0.8622919502463731
Ni 8.05417909434183 1.4899204537233757 11.742367448942115 0.09903066624261656 -1.0826578597660772 0.8153256087991636
Ni 3.0396438271041792 2.042897497448419 8.743545857446081 1.1265159946016081 -0.6465005474712285 -0.14958703903392948
Ni 4.605559561779474 0.006084458793139855 9.516674840570047 -0.6846618890322983 2.594109649483397 0.72169143098177
Ni 7.523988544109896 8.504319297841027 1.8683129646699623 0.5906227624670022 -0.9011711438100738 -0.027853531877158482
Ni 0.9603623449434963 0.5085182697675881 12.306029032963028 -1.3167370051068163 5.18402094461473 -1.5885445182362643
Ni 9.119647628250892 9.27822302174376 5.707304193329568 -0.7354180365392432 -0.6332380260343675 -0.4280269698782305
Ni 5.557030523955863 2.2142612291261963 12.833998597625104 2.036561815193493 1.687259710120991 0.4745122579239635
P 4.203354700102108 4.673119189834149 11.815846915000202 0.6513694455277556 -0.08072544017552549 -0.37009075968307875
P 4.137804003718663 7.583335733897462 8.348419689726922 -0.9911502413733834 -0.7095100584242297 -0.5644589595874407
P 4.529136452786459 1.8856055880788358 1.0431945040043078 -0.2290780925817216 1.2653920749759369 1.38259941212758
P 1.2681753199018526 2.6619367710843034 -0.03648629141774328 -0.14310734484685675 -0.5377711658836093 0.03879948936570092
P 8.21073625555388 0.9130194519524846 3.8692377411040724 -0.1699820577505137 -0.2551873880742637 -0.9671333096334956
P 0.4618403703621917 4.266691851403365 2.3857198270217816 2.487345619152265 3.2144258252497737 -2.413790214362617
P 5.271883134565959 0.8986174580038802 5.547141185779854 0.733326444117537 1.199169713512593 -1.266752445658573
P 6.5171510530500445 1.0950444724021606 10.227173518721523 -0.07373666756251818 0.6505328085590733 -0.42776086070103747
Ni 0.7968018247109105 2.182043917509815 4.988679572580162 -0.8997894329711987 0.298132524177222 -0.6240411900264479
Ni 2.8571379651387505 0.69391941149808 0.14814755002165414 0.4384394234608063 1.0677326059148127 0.18212434954000248
Ni 4.283665463903335 5.416954042935564 6.500525283348704 -0.9256333906174962 -1.4597510189089182 0.7079956786622322
Ni 7.197992877404998 3.50140049198007 11.294697487349762 -0.8918871474049865 1.3890626512544206 -0.7873725752296633
Ni 5.416702926476661 3.0069056813508124 3.5463252264779346 0.35009529039775833 -0.6431663408916729 -0.7162435204933213
Ni 5.61617310033247 -0.010573863041762001 0.7521579686226338 -1.1491730698794917 -0.5159810665917114 -1.6604443897003596
Ni 0.07902820973890044 4.455215207772892 11.011001923116703 0.8850572689673468 -0.5723391336664659 0.6401496655525363
Ni 3.7730247950275313 7.656633838068564 12.85387307025589 2.151102147035934 0.7133122057791392 -2.483473794901684
Ni 1.4059080473057168 2.214586750461812 2.3518925798855403 0.6255118610347034 0.5710975479498811 -0.37326864319042813
Ni 3.7730526968562983 0.1248690542812846 2.522278817495511 -1.5654719526875167 2.323841970037243 0.02408095220860369
Ni 2.357490616797174 5.873307053640231 12.196885449374868 0.12509651009173295 -2.0058677285437456 0.31906284657198597
Ni 2.7775340476662898 3.340862669863917 6.235845745481368 0.026259705027477355 0.4380717557087423 0.16178846619612783
Ni 4.369128765416882 0.8330379297307091 11.828560848308399 -0.8356213829337222 -3.0662588064918226 -0.8286243827905987
Ni 5.343507129011037 5.3542493330863605 2.7930297933025634 0.16811183731099433 -0.06697492335865239 1.257310326409067
Ni 1.2676916882032232 5.375185005271255 6.1899993205732295 -0.7818860981937954 -0.8921301166537281 -0.060323222370089656
Ni 7.574676866370081 2.354970151598548 5.271027478483769 -1.5570461905176667 -0.6482008179917869 -0.03715115512900054
Ni 2.0303230732840576 8.909314342395103 5.845728886086856 0.5254506966450434 0.9440414608110387 -0.9236783237736543
Ni 1.6608005537025237 6.094373242961756 1.870708801700095 0.049528959968063085 -0.6503803421416089 -0.762962264706099
Ni 3.355046099487179 3.8607481446712106 2.2733089392849952 0.7272326725149734 -0.35646082760447 -0.2779563063396633
Ni 0.2749622918289627 0.6255050574221744 9.846094991725627 0.7713067800160524 1.3386556595567785 0.3453829725237536
Ni 8.535188021067 6.5501217140431365 5.610983360181795 0.528493083015793 0.6116973237491143 -1.2802535654688016
Ni 5.893545180105949 6.923355176850691 0.004348965043827876 1.3491624726253733 -0.5615191602328266 2.098634159044205
Ni 3.305018120507816 6.805023521049532 3.397867966156966 -1.9701962432840652 -1.8629745565902238 1.5078764136612355
Ni 8.03356894349255 6.279650686584714 10.613587805438645 0.18346183740450342 -0.5363208065903279 -1.7370959169168279
P 6.911338789261672 4.604573697163038 6.743683210627038 -2.5048350341862795 1.1841447008586703 -0.27363145371206427
P 7.16736597002834 7.089584972035327 3.5619251389416053 -0.174857383564944 -0.6850969196871879 0.1088183417569997
P 1.4178593306276135 7.02301120859709 4.7211280064717345 0.2626297032849219 -0.4448296432578661 0.32914439917770405
P 1.6656554719079943 1.5276344256068701 6.859646931226832 1.0008818668388506 -0.31954544263535933 1.1236479290251937
P 7.888535237561302 7.917469433992757 7.185254762511868 1.0867294587322898 0.3756191457004757 1.5597373641965848
P 1.7941340927707794 0.3517471945349904 3.578844807905959 -1.0715686918314513 -0.6478094960906392 -0.8997760632347601
P 8.065879261204822 0.527578008998376 0.22868524869685328 0.7141223603852606 0.6861610992856441 -1.2157065348253513
P 6.051264917516627 8.086907939485608 11.879253820873378 -0.7603320261721035 1.270247089075393 -0.3748010206745545
