# total energy = -340871.7676443743 ev
CRYSTAL
PRIMVEC
9.24454563203852 0.00000000000000 0.00000000000000
0.00000000000000 9.24454563203852 0.00000000000000
0.00000000000000 0.00000000000000 13.53032698548241
PRIMCOORD
 96 1
Ni 3.6691970397052733 9.010926474197493 3.0356101041431414 2.86061246257048 0.5113404824959065 0.46715633177952454
Ni 1.925842182758254 0.7115720714830244 1.9212661327949025 0.351070252716518 0.6639418828761275 -0.1124435972144128
Ni 3.320076783410377 7.026991568268125 12.05422249336999 -0.018336850635974875 -0.9513439080097229 1.04097050732962
Ni 1.5638257856575482 2.350176060268966 6.266800583719931 -0.6543447261059957 0.1490072552710595 -0.1652712825384057
Ni 4.768789489989835 5.780928540974789 10.411626709888743 -0.15739290823159346 -0.043225900568170716 1.0780954372063756
Ni 3.422866883496249 4.15962941668662 6.4114804922885 1.1196976861281942 -0.36962307601804084 1.4759469119424904
Ni 2.3325559567737177 4.8165930341524446 11.260898133723515 0.5064733842115923 0.9132316745190336 0.5733104964407997
Ni 8.227220139564901 8.615712914635381 5.182359018859485 -1.1848129305702886 -0.2029543989114763 -0.44058320927668637
Ni 7.82985260092913 4.205149558140243 2.884313874445742 -1.0601136559169742 1.1539427233539934 1.2882556098376716
Ni 4.290661602909945 3.3229056142968125 10.491415456613373 -0.3918780307614993 -0.3360730079767374 0.05014705316803622
Ni 5.4180524011536955 1.2782710233990269 1.9952363626570397 -0.43819362599858724 0.3666159137606009 0.675205628715405
Ni 3.7967347877747666 8.140885330256333 10.171612427083684 0.5009825363003502 -1.0093739634702616 -3.210334685899536
Ni 2.7922964430917765 4.840397738507253 8.867587024709097 0.41388307427768073 -0.5748122777973068 -0.7234593215154702
Ni 7.596002580983792 5.296782454852187 10.643293168215205 -1.2045903703075318 0.891696114440103 -0.09182720651564186
Ni 1.3585783891195027 4.195304117310002 13.51530809948672 1.4151909729103564 1.6841077947555705 -0.09258722461011797
Ni 0.12912688542040215 6.343514594651003 11.934207956331155 0.38209061235743225 -0.5877379847200394 0.7059668211576616
Ni 7.1764943561617045 4.05160690391538 6.782373501863571 -0.6265685844339919 -2.3209016564619964 -0.6401967167403878
Ni 6.366302399013956 1.011316286446088 6.544591776767901 0.5723075090975821 1.111445473421731 -1.544946064820023
Ni 0.3314779658907346 8.930008968481904 11.75667663129841 0.27101895578988167 -0.939383393213737 0.7100409912270352
Ni 5.516580765819154 3.705398679415344 2.190262065367857 -0.9729167490844921 0.6988003853162094 0.10049953747865918
Ni 4.432537640864607 5.630834102176856 0.4345860783376961 -0.2083611717493444 1.4396110536259337 1.2109818756561725
Ni 3.647195021699664 2.14273770647574 0.2982188649752798 -1.128068940911025 -0.7563529869196973 1.470103822898152
Ni 0.10150603273251939 5.5894924952352225 1.607944454031486 0.8280093749144192 0.3468587857383317 -0.9113324006137918
Ni 6.857825632350203 0.19051713792874375 9.978968119262884 0.17384668291224253 0.25774717838163996 -0.013987315418027522
P 3.656689169805446 2.4953061781975663 2.914757086838294 -0.42127216765290026 -0.08851871096769917 0.04820587028126536
P 2.0137115865999853 7.498629784490898 4.086902578178162 1.4911974103436576 0.6025526811353688 1.1964242895569717
P 1.6519170585884118 3.1044570069554007 9.65480813549536 0.01794732850704006 0.08821609212561582 -0.669455356495189
P 2.1985285378471078 6.210485586625488 0.16262819342482626 -1.394361694869831 -0.6712304461177409 0.07655613928918428
P 7.615258969011391 7.9662836016546725 1.4796763868769331 0.7575050982462695 0.3345072061515142 -0.3176189150366079
P 7.883138160502381 3.863850187237257 9.0242404684545 0.5572310743804338 -1.136586491463733 -0.622103863794419
P 8.206235021551146 4.5242342864938685 13.263927648136324 1.9566683840009593 0.4784810127637244 -1.1741875896459586
P 8.320922851541733 7.997271317770136 7.346155799712022 0.6626879558643683 -0.2418544184107835 1.4616690618672374
Ni 1.8767536467877548 8.037836382899807 8.397610977745739 0.5046664129098405 0.714101534449654 0.7650489720317986
Ni 4.7686877999906505 9.083782736341279 8.131861729510419 -0.926780873958378 0.6466926088773766 0.2845486148452003
Ni 0.32669298920178347 3.205749490689631 1.884030028456753 0.7089570141342372 -1.020923615981074 -0.8382935304492465
Ni 5.533923532952987 5.874335427499444 6.431099266495015 -1.354277168144119 -0.24485952378569445 -0.01211786630945655
Ni 2.959594980842836 0.08024542726642636 11.796239587708833 0.1017020424271926 1.2087468156780667 1.9634656094284506
Ni 7.790840619423386 6.664854992077472 3.2260625302542216 -0.873808949747037 -0.3388729393193777 1.0858270015226783
Ni 0.3570946011401231 4.31456799726394 7.500590552566105 0.43624318714043575 -1.4110360702017182 0.3558440199560775
Ni 2.658037910530654 4.61445180486225 2.5025418838668902 1.2407583355876566 -0.4362457582435971 -1.3020778604327445
Ni 2.135323581080572 0.2910182885784019 4.526570383111523 -1.0150363039623616 1.82188601408003 0.39859246666719744
Ni 1.0618654605867075 5.6827792026699315 3.7534481284850743 -0.9990018762073183 -0.6275042088743839 0.796737561384331
Ni 0.7747409745225757 6.552653944794243 7.027448248809922 -0.21185890048995773 -0.6185855662285152 -0.6128579197161188
Ni 2.265274155494378 0.874207660544155 9.692787501282103 0.02044027013222286 0.46109855562121876 -0.3925269771994079
Ni 9.00359554971075 0.7647568655116268 1.0503486059516702 -1.2674073056337527 -0.9690438963926471 0.546608304559265
Ni 6.168801931504776 2.147443180074419 8.5285978656967 0.16689750528791902 -0.21460483866621105 0.7562851097962394
Ni 6.322390808456541 8.033214110209553 6.75912901695882 0.0758071769383017 -0.6121179562263007 -0.7345567169802124
Ni 5.184535184842056 1.647664567713378 12.15285809476186 0.1299864911941826 1.3644191416741274 -0.8446960915414807
Ni 3.5591314824049416 5.971440132176305 4.749104155056582 -0.3279547497449771 -0.1543350952418761 -1.0277925751867654
Ni 5.470820266185638 8.595994299338757 11.841200434166936 -1.5853900317676823 -0.1326388412153651 0.29874238984707907
Ni 9.131355166869374 3.7064895357702445 11.183126546800914 0.9766954994006339 1.0091327939937331 -0.4554218169514157
Ni 0.044125139555704254 2.4733781165550006 13.09045560298016 -1.2486274539230882 -1.5891726387385663 -0.08238354460423876
Ni 7.239939671108134 0.11727445378805243 3.335482818286994 -1.2871927157907959 -0.9352847976643311 -2.28760947006777
Ni 7.651950569626628 5.760174536595548 8.15429454333076 1.3256556477526846 1.495106515590077 -0.6906384183307073
Ni 0.5886390314675628 5.584139903459908 9.497586152209053 0.5409727035400426 -0.8976212216752864 0.3108926520563678
Ni 3.590812539423944 8.06827867083782 5.9152018648085205 0.4504336197082049 -0.580966984544793 0.561212427625685
P 1.6064708734978332 0.7769698344138164 13.247393778723284 -0.1728868901021345 0.6413136039536504 1.1376200749345697
P 7.603804977284941 2.1687888353580127 2.308923200962986 -1.2019889281289429 -0.44624195022436053 -0.8512045820839599
P 4.508490825710863 8.28161504458381 0.27608649887980485 0.09357838487879368 0.2704350582619536 0.1066850974640808
P 5.4909733751151455 0.26258668926064854 4.569204377497352 -0.3920461809082474 0.5282560273043225 0.05597857224814876
P 7.243045838355985 5.5181708276246 5.1783533573461105 -0.0185466526539358 -0.11655067740425089 -1.7776491557488416
P 8.630273073609683 1.6882851001153318 5.964776663866035 -0.17581460527189074 0.17031784382337764 -1.37024603276855
P 4.060121130210829 3.904304317822361 12.823664494480457 -0.37435107762132946 -0.6518936934623418 -2.137515923711067
P 3.4009850445805863 6.62516815875895 7.759629185309713 1.4074555519393117 -0.026782153189850652 -0.1363378873335071
Ni 5.632803190342905 7.4216134769258835 4.483544420001562 0.22698495749811878 -1.0016022899446426 -0.8157830080515563
Ni 7.044121710858207 5.753204149378644 0.9515336603794168 -1.4890752217943322 0.3439565244898722 0.8298559412048547
Ni 6.0702828113847 4.702755702336865 12.37926070894866 -0.6229952652604367 0.9426939456442087 -1.201453624450763
Ni 1.4372402257622479 2.9072708539891585 3.8221951902072244 2.5124120752025894 0.4837134648072573 0.6271447686524361
Ni 2.626893037143722 7.30370854514288 2.0338924291656353 0.1731807671934695 -1.4629116760250869 -1.2771582143729294
Ni 6.793307950139635 2.889817152310759 10.591593972629251 -0.23670218478588267 0.4801686848787924 0.9670824017909021
Ni 6.727847324300256 3.0610076436670117 0.21409997319442045 0.44601826424932867 -2.2464255396302923 1.1564642042242663
Ni 8.945539804721157 3.983372914461849 5.072343382104207 -0.026362292043612665 -0.24721182606795492 0.4506254240040368
Ni 0.5602120544224997 7.711226594606448 0.5370960686985387 0.012298614861694947 0.4635331332046404 -0.572951313329168
Ni 8.877324304358387 1.3033514750163457 8.06043467408246 -0.6196080939557587 -0.1267679842568849 0.20659225277437968
Ni 4.03685260948809 1.871484255920865 5.326889165792889 -0.22064127466827807 -0.9305575673919909 -0.8183849644507777
Ni 6.518550816885547 0.4864146975589779 0.11241921855420947 1.2347396401974027 -0.5135292626171091 0.8246402013318701
Ni 0.7690426367500304 8.958814971887566 6.362013854411938 0.735555847668688 0.789431514641221 1.5263500469853906
Ni 5.9746110112418185 6.977570228663928 8.798365717808927 -1.652665517085889 1.3943467824714955 0.35886840860469804
Ni 9.246209398676811 1.215334158448526 3.445713852949637 0.12882692366844264 0.007983018205476575 1.3296028053258908
Ni 8.752855745355223 7.524533000647082 9.755176164691537 -1.536541899916728 1.978185946357761 -0.6725424800609449
Ni 9.249537435013792 1.4912653489659384 10.453138416465379 -0.3811079367291888 0.4561728361848273 -1.1003133680643116
Ni 5.217797059121125 4.567073509787144 8.442991526564116 0.40471889127990945 -0.4483433128380795 -0.1994384153384178
Ni 7.42355483145579 7.623671505307654 12.845529693214436 0.8850716671450499 -0.21322081383449085 -0.0437779164168988
Ni 0.36849127668521375 8.071431060812575 2.92253729623053 -0.29542592387933636 0.9161030825295577 -0.1733273200736628
Ni 6.9034659528937725 2.3777802727751642 4.429288183163358 0.2128325772571367 -0.21866718166104276 0.5101683165646762
Ni 3.5661850705302696 2.1445311482795586 8.014458776541577 -0.4517901337360993 0.38171368863398775 0.6680659323468301
Ni 2.091301055978592 2.517345174384698 11.671367966527079 0.6324723515129366 -1.1411139470204412 1.2154599660321843
Ni 5.028034276095431 4.0104779215174995 4.6428371814531 0.8629239274034171 0.3296748177598774 -0.5166804066515811
P 2.6877406348382276 0.5511893781311236 6.779830327429392 0.5716061121551833 0.3883149960005893 1.0761216013094563
P 1.713282350824226 4.900588973479742 5.711489062803639 -2.5895978776559723 -0.09075351383548885 -0.6614934213356349
P 1.563169422935532 7.374651186392901 10.574721752855286 0.9191315849432364 0.2218322096525857 0.11603619966167758
P 5.198411247458199 2.9462920800402843 6.840743561396099 0.7406872553579824 0.890358626575602 -1.1282813140321473
P 4.761070294597111 5.741870336742141 2.659588220790966 0.04021333899409203 0.1040620580189369 1.0241693766118813
P 7.658375528666081 1.4997241079891037 11.930541569633244 -0.652611802575289 -1.2993437493310331 0.9018018354155373
P 6.612466153406132 7.1925521314876475 10.842906014343832 0.38639078239468294 -0.398297818244914 -0.6990248426221897
P 4.636805115592319 1.0319316226446216 10.114460798632305 -0.07542716789106364 -0.0018540224896032584 -0.6778024429083037
