# total energy = -340859.47538988525 ev
CRYSTAL
PRIMVEC
9.30219702603246 0.00000000000000 0.00000000000000

0.00000000000000 9.30219702603246 0.00000000000000

0.00000000000000 0.00000000000000 13.61470562808554

PRIMCOORD
 96 1
Ni 8.483064246599442 1.9358151273985447 1.999360296369126 0.23833303552108634 1.0491335027563868 0.35333539460161084
Ni 2.134565871078344 8.576504816676366 12.13511427792417 -0.47161565310245873 0.32466193792631826 1.3817604611660526
Ni 3.8253146153333746 3.441896654414439 11.772173243526922 -1.344893155826058 -0.15008326194405763 3.279363920684055
Ni 5.754022864131742 0.3843835289800588 10.984657607270137 0.3231799540641531 -1.6573968611232877 0.19630732590860384
Ni 1.2401224091394019 3.7086929700317905 3.71260733458016 -0.7079900222352775 -2.180319906250471 -1.2947319615906348
Ni 5.256894845609986 0.5290792051917633 6.315440227393732 0.04067356645996221 -0.26609966411139335 -2.0202643635850492
Ni 8.632466834554194 4.583257636723904 10.007190175589972 -0.9199101149804738 0.6081029215296365 0.4942925258746842
Ni 0.5736171947857216 5.755818188176027 3.569108851137883 -2.4194402135595428 2.649511266182153 1.3297817541059163
Ni 5.71575362517739 6.275317990772947 11.752336308167136 -0.6636919716488505 -0.22898604708854756 1.0457656147254182
Ni 7.607634475575106 2.1176358723187616 10.38853746742985 -0.8086476825583557 0.7099612870290354 0.6987512772458289
Ni 6.914648696678073 4.225978849713995 4.513942314879384 1.9184939298137669 -1.1186921276818151 -0.4285920983530812
Ni 3.900811247164567 5.414129883540326 6.1993878765559325 -0.5087156432785497 -3.740471732276655 0.8407849294125327
Ni 7.838310359772976 8.714075009893653 0.5871072410500877 -0.9892337410769609 -0.13747405782047936 3.4115111669749827
Ni 0.88324361660568 7.919872024126831 0.9976383159165805 0.07433264927530424 -0.29971606661425804 -1.2390830047677628
Ni 7.140989757017719 6.654615078367435 2.979551411366216 1.5601004039629585 -1.5055225687170781 0.7427274257164629
Ni 4.4549152230503015 6.5791835619160866 8.406114611578003 -0.5736982187975216 1.0355812179932486 0.2931512689125467
Ni 7.690637980482664 6.819422104753984 10.281090579148364 1.896853982946488 0.2168877211631168 0.62653284610005
Ni 2.709004449869819 8.82530138086526 9.845052879777048 -0.5706069814667076 -0.9917264255918274 0.8479608783356815
Ni 2.9028529356670356 3.136003204298998 5.1826688939054755 2.243731023517265 1.9950850361059447 -0.6987147675809385
Ni 9.179343003277184 6.8239150659632575 7.372907484531194 0.9464801521595184 1.035569648029023 -0.8536466158665492
Ni 3.807296259510676 2.6539540473098144 0.42894663450624276 -1.3401646400021372 -0.5532993434261955 -0.9333212461800571
Ni 4.7599807776220056 1.289526378047172 2.035099337706662 -0.7967478457969761 -0.8721714141436141 0.917585323502039
Ni 3.817956577410941 7.43183225219195 6.230184660563267 -0.8241794596453675 4.802535055720832 0.5342284428376735
Ni 4.642810302690303 -0.03346930524009727 8.608700651130647 -0.20654083071115395 -0.8592673044874364 -0.11602642946966468
P 8.672019776711196 3.4623800924741097 11.802397942411337 0.14299190231491501 -0.26572916814585207 0.21126728965254585
P 6.5355655596173605 0.8260155696997314 8.907570942419998 0.878135859257165 1.063126731711685 -0.17381377279177807
P 6.679303109525638 6.9468249965184 8.330034731987347 -0.41679459149752085 -1.0460754326563533 -0.11062454172780303
P -0.09590844297303361 8.868082185423127 12.765175344398571 2.536705400532315 -0.48006301253886363 -2.233020579078296
P 5.432036612997577 4.041153495123807 0.21707979288632742 2.550062281455195 -1.8283708504734253 -0.24659450419893017
P 8.220407408700778 4.182277127641182 2.6835536385477217 0.2596721633184947 -0.29511739149998206 -0.5642329596195638
P 4.813142834166518 9.080665296221333 4.293520242567607 -1.1331808082162935 -0.3625430292428079 0.06460565179552745
P 1.7799568146420603 3.9415920793414947 0.9491999150699338 0.050891644643544606 -1.1507139320040505 -0.29298646119990834
Ni 2.2813731460364357 5.651921948535493 2.063539875183336 -0.05425259069597753 0.43251123090182925 -0.804483266768021
Ni 1.2555361497683184 2.9755589083620335 12.656761027616536 0.10995528357492032 -1.2150511606295398 2.356909956235805
Ni 5.979982534389443 3.114933727820726 2.486399151893826 1.526783020757751 1.0955748249380617 -0.3557422042708906
Ni 8.01150796796235 3.8425422844008175 0.1586192048618929 -1.4076535268827306 -0.13384880236306626 0.49271232587175795
Ni 1.6614003123393812 4.456561711940656 11.166073706615606 0.271587426698842 2.0319759955950234 -1.3561129358012773
Ni 3.359628023079414 3.6163593614122225 2.5057867911326834 0.7870846116755993 -0.5967273327028433 0.8911764944912071
Ni 8.104102038101296 8.541565764291207 8.781648960437188 1.5613499600993432 1.082511306885884 0.7548188096633581
Ni 6.065125544634748 5.44252018915255 9.68445323714817 -0.2601511598374423 -0.7940060213857809 -0.46370076913075625
Ni 8.336136043078781 1.4371429441547605 13.170008823528665 -1.1601254551259377 2.0298306671172464 -1.423370166287039
Ni 6.903244203008157 8.174296417573718 11.930389663253491 1.4185920281721052 1.3299540180177223 -0.008594940757862617
Ni 3.942801364967179 5.4403713816176795 -0.04530821151554803 -1.828036607062458 -0.9176436875438002 -1.8526526058389257
Ni 5.7334464041008655 6.962415478892608 5.328142233796466 2.0787957841620393 -0.43258527867287433 -1.184069881756677
Ni 1.6263403313916527 7.342875341127177 5.4209400220523545 -0.14908207437305293 -0.3570429253601851 -0.21413458389801188
Ni 8.815813139802199 0.2904071523489841 10.745624629179074 0.6393420820495763 -1.5771560738936643 0.9508739103518399
Ni 7.449004108076669 6.738372061241763 -0.18332584041433828 1.8758524409941564 -3.716520106557064 1.0762342156279208
Ni 1.0232416832714564 1.0727758829389156 0.5464891973227711 1.5077923385878613 -0.3210397677926987 0.5949257607177302
Ni 7.799166714289282 2.8031426847307928 6.308877527325114 -0.3020858523980152 0.9773755561867942 0.7518044483170665
Ni 6.475966382665359 4.023702573325469 11.560083149176112 0.29518372596154324 -0.1781154854909255 0.768442828204696
Ni 6.816584934632186 0.5732004563547165 4.139428417044335 0.18046933043508276 0.41981409505013506 -0.45615072469764023
Ni 2.292842755086197 8.208165717290004 2.9310692901931024 -2.990584298476643 1.0351947811881075 1.1440419193005134
Ni 0.38879184019553464 9.217388989500641 7.025215541873826 0.2698308490190514 0.4636069238653693 -1.1770602832080632
Ni 2.7521294357211503 1.2392852113985435 3.193874033025983 -1.3238877572189847 1.1325102645118301 1.1406807161377646
Ni 3.2292205216450274 7.316847793583601 1.02985182454539 1.8385141095550144 2.8800692857435113 -1.7618610396766494
Ni 5.063595189442888 2.185076801443471 10.283840308617226 -1.2997978061493163 2.917387305467679 -2.479188537262769
P 7.850226474284527 0.7394558348329506 6.01892525241533 0.9922223913916396 -0.1146909984876928 -0.47359848786044245
P 6.707228305281829 1.0127767115107256 1.400449497392646 0.05191700058426543 0.5600821706759839 -0.5753013016185834
P 4.7884082920227105 7.896449091777035 10.46622290624353 0.034028036118986554 0.1849448497079331 -0.913632252391562
P 1.308288909639522 1.880532169910524 4.980926563631675 -1.6238244244844808 -0.681196299081201 -0.05263330992499968
P 4.301484783742307 4.466580178239596 10.191247168697993 -0.4641273151452136 1.7684482059758642 -2.9621581819254663
P 0.516717515438132 3.901071708683945 8.509708529812118 1.49866800768909 -0.353311740452527 -2.25312274914481
P 3.8205890991960847 1.3053959263350003 12.133003609397496 -0.27508952631482947 -1.0420025481385602 -0.44039808984907375
P 2.905215693735681 0.35114398800884156 1.3242765958307827 0.22299460539180305 -1.5195636201911764 -1.4435337857191075
Ni 6.732548885844237 3.5848342153703414 8.711928062798206 -1.0524162872727165 -3.0155180856038455 -1.056182182073052
Ni 5.980010440980804 1.91541540911296 12.758109395465725 -0.40122707607656705 0.7024708921892612 1.0635327089008522
Ni 8.429744052703876 7.78510179224286 5.017468384580722 0.0006157792071279718 0.6353666423415961 -0.2523517183976815
Ni 4.739450828576732 2.14825870523994 4.45938771942591 1.5269959080995057 -0.7122876211693668 -0.2481803606288113
Ni -0.08754948864041788 5.956522393251164 12.002820290913718 0.510829604297759 -0.07483709971554853 0.5944238813806472
Ni 4.130724351198542 1.9606519937106788 7.443635810118343 -1.0818870430383236 1.4117498084392912 1.1230360064728078
Ni -0.014103061054616865 0.5007158759511907 3.874241381528855 0.862210189165844 -0.264171593850745 0.2623584519014062
Ni 6.754641604005779 8.488571147294865 7.010566441848227 0.17849343765563455 -0.48600714593744043 -1.1790873409404212
Ni 7.76161374451322 5.229518479483915 7.6756986519069 0.0735939713370668 -1.3727759982792551 -1.1301067972766603
Ni 5.27899686596865 5.468389599345077 1.8715592705679451 -0.030177294914328672 0.19805824716143955 1.1613523855545032
Ni 2.68925588538268 3.187397843390587 9.35260851750554 0.20524139517344006 0.45560487949649925 0.27326584284252936
Ni 4.854109710285859 4.574569384613218 4.276896286093294 -1.608417603011107 0.6042354681544304 -0.6124329163635582
Ni 9.222356362763069 1.613456788379553 8.682533119896954 0.18513665400376503 0.9702780259100644 -0.33254005512281437
Ni 1.9484568132855073 2.7482504195218396 7.071028862693026 -2.197939419104447 -1.198670405278671 1.9065884366254326
Ni 9.215491341288029 5.626415324030672 1.1400447214168932 0.22622673917585556 0.019235451190844292 0.3538133626792939
Ni 2.130398486768293 5.647028992850031 8.837958880487328 -0.39162683398264164 -1.7866816982647553 0.5264611401874287
Ni 5.1990723883080285 8.96692733202715 0.17996309615522343 -0.697273921369354 1.53491464872595 -1.1270461560734655
Ni 1.9991165788045648 7.654043137010028 7.90059973213227 1.90012468327796 1.2657355743582845 -1.8894756882045458
Ni 4.059032317989696 7.125120208729891 3.4418789802399097 1.792228082004281 -0.9292383343599352 0.9414970971226301
Ni 1.5554482871351822 1.480063281669438 10.829082081306119 0.6432640428118019 -0.17642267116953486 0.14382313996695875
Ni 2.8744812344490547 0.47035908586766273 5.481783832979099 0.296536897555328 -0.7814703508126154 0.5246600824229479
Ni 1.0332415451761547 4.582662296108182 6.042478415524815 -0.9563074226625854 1.6037839608938378 0.15330228310198757
Ni 5.867211998695807 8.350982349683337 2.3780806477421335 -0.3811645009987371 0.659644026831722 -0.13655411710937126
Ni 3.3858230101711633 6.617908608529351 11.211792145024173 -1.7071114547395954 -1.9479472020778774 -0.42740656268541233
P 7.824357064092002 5.826059078634054 5.432049636073546 0.5956017037388324 0.38485917624150495 1.3262274610957547
P 1.9729588005012983 6.311912834245582 12.9606284591991 -0.8386712255036396 0.8570265880823756 -0.2740942522810957
P 0.7472101463527242 7.309759519377665 9.528333532652596 -0.9889555477149097 0.06353812976296154 0.9325856535656132
P 2.1163707735103534 1.1903556545439264 8.646318736286554 -0.06599173350977668 -0.8423011089467429 -0.5202609249139879
P 9.075809549324354 7.748106954294037 2.7878015012394175 -0.36293383692332337 0.3467579984944093 0.8920429562565605
P 5.270392333632049 3.6179779437112156 6.707420860762226 0.8498177290387623 0.3841096996699901 -0.7067276105830861
P 5.489868372496656 6.922006734600506 0.2538513781042553 -1.4378693883444784 0.2408144071820433 0.9709364854296697
P 2.820184309855823 5.449431721613192 4.063608068753344 -0.6337985265235277 -0.6414598997235276 2.407357571363396
