# total energy = -340890.8624113542 ev
CRYSTAL
PRIMVEC
9.08662782849410 0.00000000000000 0.00000000000000
0.00000000000000 9.08662782849410 0.00000000000000
0.00000000000000 0.00000000000000 13.29919831741791
PRIMCOORD
 96 1
Ni 6.559990979228768 1.7804883687069963 11.39862300276069 0.42267624708927853 0.9349366702962931 0.25264868081281006
Ni 4.531737530604174 0.36257553069204496 6.032463168298041 0.0632283118320266 -1.6592228585884328 -1.4488539123804403
Ni 2.6398107586951594 1.6834340972946713 4.7165477272125305 -0.036387537490098626 -1.0957280626864743 0.778468330761498
Ni 3.680493152720266 4.312268209620943 4.817115797590789 -0.7943952864043997 0.23848344505602154 1.1164010176547936
Ni 5.030311710748622 4.670154131711182 2.562250029878178 0.635288480805493 0.2535411107200924 -0.252798576127113
Ni 7.254282035316487 6.009332248598835 3.034943676754526 0.5812600903051797 0.4740265765367965 -2.4382259788074783
Ni 4.7358595372520975 4.547711822256909 11.189000860312198 0.6232166372426236 0.5708298961107912 0.6170863559751695
Ni 5.598534892894333 7.747331545765337 12.791381329067868 -0.11611333275651617 2.1841055985451483 -1.14145538952026
Ni 1.9747150376929006 6.707894019747298 0.3526429378560921 -1.0699802642984086 -1.287292474593454 -0.5838828726400074
Ni 2.930673714215103 1.7357094669637196 0.39158549857061326 0.03528042046884892 -0.46586460955129444 0.39863386142809415
Ni 0.5552656509188609 9.158593880901654 4.703154946514597 0.8860409730368547 -0.22228472380897202 0.9929862661408576
Ni 8.681654961522373 2.3536001566030884 1.3088415013519197 0.9433619182455107 0.1863173045754275 -0.5667462129597207
Ni 6.889581142384638 0.8661818853059392 4.878970290274806 -0.5985615576981046 -0.7238681269181146 0.03409565613212837
Ni 0.7672521339180028 7.357842332225603 2.451361367657383 -0.22179235755358576 -0.1233918686958004 1.110589810289655
Ni 7.721053018200086 3.61755008202715 3.3669581522044516 0.8054795692430192 0.5188748431997386 1.065831789347674
Ni 7.9298818980426145 3.8586728370311247 12.859872694688834 -1.3955472305374996 0.6274219335732226 -1.4346254274858843
Ni 7.940922150806024 -0.06699661534970631 6.964524013735662 0.14912629734742705 -0.3071288141385614 -0.39161937778347394
Ni 7.087069910746727 0.44863043916601025 0.521209878629164 -0.7015332108663401 0.35031794793152576 -1.6004597816166115
Ni 2.032215218340517 6.777861053721168 9.2936656943196 -1.0661827449291896 -1.053081174550225 -0.3332352814176261
Ni 0.1988544885187476 5.0934274273697255 1.4690160326992427 -0.00857797147699813 -1.015115236829413 -0.5295171534049331
Ni 6.402937704526903 1.892326583531722 7.0120152738739 0.45875910885476473 1.032190961364777 0.16968329556317227
Ni 3.3153561016545545 4.532010129437838 0.09650271310554392 -0.016270712135565527 0.17703433661160478 0.47710110169706227
Ni 5.959301275993624 5.770771922631306 4.829737123589453 -0.4483340568666988 -0.716198783298315 1.0484076803339555
Ni 5.330570239402201 2.781625758595183 9.246414321154987 0.4530664293453616 0.11424336942731295 0.36767983624874095
P 9.242645187948186 5.772316649355405 12.537978905270089 -0.02252260658254831 -0.8060081880529796 0.09183980492113215
P 3.8768915257476975 6.481782373850443 12.494662950600812 -0.780471734344772 -1.4373358844385116 0.03497883006803008
P 2.389764935202569 8.450427544180416 1.5228642976385347 0.3269800445365336 1.547508940451193 0.5633341019543782
P 6.356323303970285 7.781533612762433 5.739162270542359 -0.8436416821350373 1.174300718185055 -0.03730259310520027
P 5.148401525492052 1.0644802722040112 12.753571870838611 -1.4167236075047989 -0.8670487482050682 1.5103791254784311
P 3.8833248582221778 5.904290831360143 8.317464737072255 1.4505266720971728 1.2786121732106366 0.2779437079341729
P 4.548193413529717 1.2116563824994355 3.6799016132512143 0.9387899826041123 -0.5993316030949097 0.4191888027613104
P 0.242102293479609 5.459945645859338 3.6478903322140006 -0.29689633777727575 0.6495915276917265 0.4259415481041116
Ni 1.3114639021317713 1.1761458411007495 2.6113505317978145 0.8026642112814112 -0.4412164719853111 -0.6664129701244393
Ni 1.8738262093536964 6.319722367236942 4.838474824871176 0.2569809896395768 0.6948689114722871 0.1767386597480569
Ni 6.004979753887993 5.637416573202668 9.070120112110308 -0.0007240226502181079 -0.2660240736784515 1.1889647479551329
Ni 8.524401781009153 2.44454821414133 10.317238876881149 0.9254421005422965 0.02377293404988164 -0.18905218700808732
Ni 2.2184365682444764 5.271670718075106 7.102170977468957 1.0961705495405314 -0.22172268065791492 0.37989617580927476
Ni 0.5245873781782663 -0.18701461250992263 9.269834195617875 0.9390882305708212 0.8290707262993979 -0.08308468443632143
Ni 1.4860725417216258 1.0635806960529186 11.547082144899894 -0.4865918147963168 0.9143663023441091 -0.5179402472006112
Ni 4.122284995812414 6.940875156252495 1.3839143114803238 0.1279128964946055 -0.09731188377929692 1.1778647813872296
Ni 5.5896209110335064 7.904121308261327 7.917026137047 -0.23265141175527673 0.3586226111424791 0.22485634119089015
Ni 5.594836635384285 2.9831217298121393 4.567835976820796 0.2873729716678728 -0.18169806063586127 0.4539501175018956
Ni 0.5901801095346009 7.472506488292649 6.910808413562087 0.44198960270590976 -1.1474311474877208 0.5417949423310218
Ni 5.121968525254392 4.4064420200242145 7.133942371532546 0.8540610776961486 0.43037721527796197 -0.46727845917968563
Ni 8.012797376615545 7.226576907188392 8.970308957826855 0.785968495793285 -1.064664251402134 0.29821145704427354
Ni 4.803409528234142 0.4089800301467404 10.513162927938003 -0.679536651990591 -1.1140384309598879 -0.4866365519913232
Ni 8.258536138536238 7.3158439385857035 4.805758421517551 0.0041664726728637925 -0.7184608398596143 0.07343816248549288
Ni 7.150894384335358 6.265475199337721 6.977796850946783 1.0809002536450223 -1.6584486994265695 -0.43781541672356217
Ni 2.5526790848282195 5.363800037225895 2.595072746776933 -0.5259903711985974 -0.2931939492250241 -0.6606369868726106
Ni 2.162599240482213 5.304637003692925 11.370282719350158 0.8240655597753227 0.5092833428565616 0.03144793409663616
Ni 1.2670030323611032 3.49754298882028 3.6560165034455374 -0.9839156712981572 0.0616077455094681 0.4216712028635318
Ni 3.4828408250579788 2.92809311192308 2.860351393094691 0.8046673577543689 -0.6236827782457646 -0.9039355939290884
Ni 1.11238497390664 3.383723889137593 8.420228136724292 -0.610203255702091 -0.4512612578158229 0.1083923099631746
Ni 3.903424478891035 2.468427871970334 6.871868578835903 -0.7782425879039371 0.746376849543592 0.2527121870608938
Ni 3.986349044091754 6.660007491300246 6.331322356272142 0.5100603302319021 1.2543209047634396 -1.203875089408062
Ni 0.8118665676983019 7.549506572175062 11.549342897893752 0.2867638773289642 0.24559203107634478 -0.7702269166883122
P 0.43869784633005743 5.509158821963555 8.271489126449191 -1.806379690914315 0.6989317686877511 0.4090167473243149
P 8.531443917545484 1.5638268157105093 8.301598576290207 2.056967375433038 1.9745378080822122 -2.04382286763128
P 1.9848011945384845 3.1625462821300654 10.657232320192433 -1.4423161112619225 0.2183169974104756 0.01969516443608221
P 4.072871913896843 6.218588199947439 3.8905205587681397 -0.4103192681858224 0.8688685750226263 -0.24816184868604999
P 6.799623527275377 3.940606959802863 10.834684165617405 0.014486366541633114 0.5553636821543919 -1.5806928834023295
P 6.283139603759175 7.78247862205247 10.163286868243606 -0.22329645290293798 -1.4386520321467742 1.0674523556702327
P 2.279598659890985 8.484702304199823 6.016038179906981 0.48369006776848955 0.1252921710423068 -1.2065382380625223
P 6.773417692732436 3.970074893721988 1.3829965620736537 1.3219799986733103 0.10227822664563675 1.4996607106196624
Ni 5.147356563296339 3.170124529705937 0.3492036492380259 -0.024945099981111878 -1.6776949492506914 -0.30498682809489414
Ni 1.5443541723590803 1.2831681431974038 7.099484061631805 -0.09626261657917615 -0.39515670151277105 -0.012004223549727714
Ni 7.1728476770731335 0.44203173006577334 9.2837049329375 -2.0272500508742635 0.2927411779583216 0.8565388498126797
Ni 2.8345099323260827 1.6545931406929748 9.282135672318374 0.1982204837709167 -0.5980558217062797 0.07941134934979226
Ni 6.609295021610874 1.839042598178115 2.2418991498579737 -2.1792732101535113 0.12348031464454863 1.5235786548878407
Ni 4.16393809759634 6.841322062198246 10.387871052009158 0.9196200945438807 1.2025046914230968 -0.12580639167456398
Ni 8.199082332914026 7.291718941806402 0.4506567571629158 -1.2408758350021276 -1.5064489371860894 0.23276839694911527
Ni 7.689967664534552 3.8499678476094408 8.144681601005173 0.11414618172781632 0.1077114818460661 0.3737620378870789
Ni 2.9966153720785282 8.65309569038213 12.643547346920531 1.6177010851955622 -0.27504221801666184 -0.4508370257942107
Ni 0.008459650471386063 4.770543195522001 10.510782231457334 -0.5701827494450955 0.4415111204075945 -0.6126113509229514
Ni 8.798290915819592 2.340797098048649 6.024164351138517 -0.6478015256708393 0.22198544740099835 -0.5558851018755007
Ni 3.8252431333960772 2.384949022474497 11.564543917521659 0.08757074523213305 0.2879627827330718 -0.48204456174526655
Ni 1.1468868996207677 3.4982971789267516 12.760155132671606 0.09326882405817485 -0.5537338598604529 -0.7664473950412218
Ni 2.9885555332298503 8.6431276596978 8.06986049046652 0.9182738649286314 -0.5066860144430305 -0.06395696246793502
Ni 5.654490346817851 8.279953320234473 3.552322633107926 -0.5077170268107062 -0.7309281190886895 0.9372324083090051
Ni 3.030572100125327 8.218445936731989 3.7201844515645854 0.3128706017183451 0.5880853407571291 0.1056286311751084
Ni 3.282662414870401 4.155314887824755 9.266495768568266 0.5051929748372719 -0.40400746703518164 -0.30902988781601615
Ni 7.046161912441486 6.119071452404345 11.513874154982894 0.774483377971821 -0.23801678983224817 -0.6319887270082987
Ni 0.5764393109923559 9.009682224698567 0.3746943661739865 0.6055271903826605 1.328639670081673 -0.00670055194862717
Ni 4.542923169412203 0.274992251424001 1.6331014486468713 0.14011458076711997 0.38578580182083233 -0.60669807076231
Ni 5.8008486606122815 5.552774635349864 0.12380893827370962 0.2973097711656106 -0.9263995793595594 1.1357313425522892
Ni 7.767640158873337 8.633341361569247 11.70524944016867 0.051770190593755996 0.16147864826519287 -1.0995973158338932
Ni 0.3182164311526115 4.78372789244357 5.981593499947922 -2.013242423741262 -0.21046099170116656 -0.753075087499374
Ni 7.90124993388006 8.77309369696121 2.5069124666442986 0.6461364792635905 -0.4983857221074514 1.1134159668845405
P 8.453380698211781 1.4602574321736046 3.634484830237163 0.5806268275965548 2.0182671306493627 -1.0035527288027943
P 2.0021566536151196 3.305796969220722 1.4067762669969806 -1.5195245394231252 0.7625575730685126 1.438780073084206
P 4.8220825483401555 0.928062729210543 8.124480210105082 -0.17813502587495128 0.1863810679338274 1.270709116313476
P 8.612133172310156 1.585216737525378 12.390224885447296 -0.07307306583659028 -0.34452936627420666 1.2439035660848576
P 6.2415046752308285 7.497240289133802 1.5887623396885735 0.8826540588424927 -0.036073862904421744 -0.30821870476863045
P 2.0489346134719355 3.3337656095546926 6.036852009520039 -1.1335551608365768 -0.5901573927948095 0.10657351158688097
P 7.195927711656721 4.019369849476305 5.946231070582194 -0.8497076858234591 0.15432532504986327 -0.06565054812027403
P 2.5653185840824606 8.600093390489976 10.37094084711304 -0.3483212292164711 0.4008825482529548 -0.11309151521105684
