# total energy = -381175.21100622206 ev
CRYSTAL
PRIMVEC
9.18222854977714 0.00000000000000 0.00000000000000

0.00000000000000 9.18222854977714 0.00000000000000

0.00000000000000 0.00000000000000 13.43911963648390

PRIMCOORD
 96 1
Ni 3.4386068076535605 6.1185962681911565 5.1691290581566856 -0.7568098719514579 0.07957949949654038 0.40485156020303176
Ni 5.21108908734059 5.029078955716336 3.3508155217863678 -1.7316420928911083 -0.7286753184987709 0.6740848848474004
Ni 8.278302302329122 3.3354536536495814 4.907334543842333 0.4905659689527164 0.5943837721713312 0.510024077677328
Ni 2.571675894164894 6.453591507422701 9.013818999200897 1.5156300894647252 0.18340784423811637 0.7578491118492497
Ni 4.513882483858114 0.48160604387376715 8.186842716210496 -1.766516793281106 0.8585319689833084 1.7591269285749382
Ni 0.40003571775712593 2.3796571335692724 12.590573351567405 -0.5688257211965687 -0.07451648315133617 1.5386064957552406
Ni 7.609826891554359 4.328291283152362 2.373160706966298 0.3377743069385602 -0.43040986828811034 0.7038865415898652
Ni 6.608486518540123 4.112086532914006 6.516117891808502 -1.9449865767876566 -0.04223139786538534 -0.928784020431336
Ni 8.29138697781921 0.7100222396800323 9.134649779347697 0.47050879319152517 -1.1639150040753568 0.4826019769106334
Ni 0.9755658578558621 2.0011656783401452 8.58871304320476 0.5068616207889464 -0.5942655014259121 -0.8495896721883561
Ni 6.907423146789504 6.011503938197529 10.648459502381167 -0.968249682626126 0.7907967704198638 0.41024444908382895
Ni 7.261159314214223 5.696847334903213 13.199164105071103 -1.2473858682065033 -0.014480453004362159 0.7702042909804928
Ni 8.86530380038559 1.5101368316678305 3.4780711071545127 1.0550496111305054 0.2500577801571822 -0.9324231598458199
Ni 1.0024330581955134 8.056468846072923 9.345671161646296 -2.117520454425747 0.09184726112029988 0.8677632577735894
Ni 4.054991436635143 1.5142321055405181 4.890790922908652 -0.48870011938857116 -0.8829168255855763 0.8124917388947943
Ni 4.188537766689787 3.826124393413746 5.521072854594973 -0.04972899179401113 0.35374008623919717 0.42987482172024677
Ni 4.576973575291383 3.4745368674379264 8.011569585573666 -0.8924381348124503 -1.4239358089825218 -1.5554875877812953
Ni 0.744893588528253 0.5082363427203348 11.26816442515729 -0.8535124042815301 -1.3923379795715827 -1.9339634862042754
Ni 8.53602908945603 3.442784721581975 9.234489067117028 -0.5337977830581581 0.6123817514106485 0.4170391034081592
Ni 0.3706415681579148 5.732612114576125 9.738550250577473 -0.311748829409076 -0.05175167865099474 0.49391920169566544
Ni 4.057966478641312 6.575669234188137 2.1917189552808765 0.08351971509121099 0.9643858287953456 -1.5482177935927595
Ni 0.10502173748624803 5.559830122508039 4.851965706505321 0.184982644924404 0.4391570183531211 0.3260513620746772
Ni 4.586605732897772 1.9396906591077576 0.32259647620398746 0.6538811562060157 -1.449745313846458 0.39633452387095613
Ni 0.08317997075763268 6.409746366745382 12.47665036185653 2.139258874544103 -0.2527759504192937 -0.46912553969075343
P 3.048509015709013 4.301084340361389 3.6768626794283734 -0.7592963858187375 0.5556552452528818 0.4738373433441259
Ni 1.5421552621477908 3.8699052584921665 5.447614109059345 1.190572715872201 -0.5036287156739455 0.4159021615902385
P 3.2843545525251248 0.5043752156722064 2.1116352319444776 -0.2661055776486643 0.13456922546885855 0.5781451988252817
Ni 3.598744871195433 5.782820539544414 12.95372497600794 0.050239098661210256 0.19110932664743216 1.821893727389514
P 6.363991322557931 3.9335197369450383 10.25302683572803 0.6099114354932851 -1.458226611844592 0.6122349414201391
P 6.218434637737646 2.231777344960221 1.9252075302302007 1.492951159809971 -0.6927876034632263 -0.2250725709667543
P 5.464123755747894 7.007647169929386 -0.06675020945628678 0.038947327797474854 0.45522744155242245 0.3874351644987973
Ni 2.6562166711734956 4.602546081424647 1.5123313842587998 -0.43932311161734017 0.060646410037463294 0.3471578050359892
Ni 0.3483967016019205 5.930176941133861 1.2206147422114246 -0.8403462992132172 -0.9990733528752019 1.626384214791857
Ni 5.184993194187723 7.327657012389121 4.12929035607066 0.6250737450560202 1.3485896308410388 0.12842917400939172
Ni 5.615584613438443 1.7455783504337221 6.617542950424948 0.11111690798318928 0.9865399962948816 -1.0325550295724153
Ni 5.73576161892216 0.7626749738521542 3.5263310632533305 -0.4732927836945655 -0.5264904507634675 -1.0412469009194583
Ni 3.898461988860012 4.174286948191107 10.672326868697933 -1.242230292147493 -0.1977468865686078 1.4546872312327659
Ni 6.60256398121303 6.437476696555959 2.023380243542373 -1.7118250581651808 -0.6261710918852571 0.44600977960889643
Ni 5.517637782945258 0.11845166476470805 12.359716519448673 1.1840881365891223 -1.3016631414928292 -0.3826809376432635
Ni 0.8366111952653141 1.6200848346982422 5.757560229177229 -0.15497015772271375 -0.021357896850485798 0.015033497294354752
Ni 1.5458832468839148 2.0092552215729658 1.3987297725424186 0.4364429618560677 0.1893982574935964 0.22342706494353134
Ni 4.1233806738633465 2.509594847857176 2.76486997999752 -1.226968480892416 0.1713894796210016 -0.595669066641658
Ni 6.1888678622442495 -0.03432776092610608 1.233323864559378 -1.6130221916626544 0.7181525645905761 -0.33769768806435385
Ni 6.582050882935935 8.999355153003009 7.6928204630751855 1.5930634891525401 -1.364125778803425 -1.4100366824029265
Ni 7.90916753785396 2.1104158320110855 7.240473590042941 0.9851940237899485 0.5209250408605479 -0.18691868560485228
Ni 0.5447366188892164 8.563447223500527 2.3898521617774455 2.159945970579809 -0.32516510281498195 -0.6511431884495625
Ni 5.334966530875189 4.000660191108925 1.2916805990223377 -0.28025590100711734 2.038509425838167 -0.28625377046176503
Ni 6.945602852535324 5.788642072358952 4.461182920321081 1.0162236394022433 -0.15999666440302768 0.7163149971612051
Ni 7.931039605936341 7.750103795036537 0.8899810614765772 2.3371759681419877 0.2494265743310866 -2.2585441772706973
Ni 2.1109024901170326 9.233557070932997 7.917925547315327 2.0412700193024396 0.9625153512455101 -0.9401850631794259
Ni 5.57423703888976 4.033036728497034 12.497252527749243 0.625725005486774 0.015515322026779728 -2.3693309556079774
Ni 8.340888371199615 4.413548273977264 11.543464161023099 -0.07912235735446374 -1.733413582969234 0.09377456004999979
Ni 5.622333551322805 6.735035990543224 6.609654497994396 0.23114680218529224 -0.8833698539625947 -0.2407221045785532
Ni 4.610415251175529 6.860575417420774 11.260100592164028 0.5961274943353153 0.9315582407423635 -1.0522507082291295
Ni 1.420233633265395 3.6609911976146043 11.016543819925756 0.40571827907870134 1.1190906486718146 -1.1764612161714838
Ni 4.659025968399765 1.8310006213700776 11.149335370804762 0.32453029744446044 0.3394182702998864 0.7413053485579556
P 0.43115337162966333 3.849410524671899 0.7918276308440745 0.3503647420090611 -0.3331684327354327 0.6680883009443332
Ni 7.509859970810071 8.435483688321654 3.0885517956000537 -1.2009856836754091 0.7503715725252819 0.8634368624840936
P 1.865920636028893 7.925071157467177 6.175356213132904 -1.3297226187332065 -0.249871375177989 -0.8787791492681188
Ni 2.0613368211377305 1.3527075255081171 3.6846841015915017 -0.920456217291931 0.8560886496491386 0.06528468014042305
P 2.2849057185641932 5.830173291475918 11.209274203223469 -0.5861564991655325 -1.3419973223355017 -1.1310156822441748
P 7.865460130602853 7.463930464282752 8.906306123145903 0.13018780857171128 0.9073474478241148 -0.3354916815519706
P 8.54746096383158 4.409094893196427 7.158535056566895 2.6104526096177945 -0.6257851693007481 -1.0551979637829116
Ni 2.3003318622998785 7.74858872734821 12.018617852990277 -0.5442896837284175 0.0031776263970332373 -0.3213544708196401
Ni 8.408322656672752 7.7327034721918215 11.01580465053842 -0.2266481429839903 2.2612415215972024 0.0017200680149002635
Ni 3.9582933892062755 8.380922887085083 6.415620238261881 -0.13644227412185533 0.34693180506811216 -0.8101440645982241
Ni 0.027456699403836406 8.352494707915035 4.591609129160615 1.7004980631881357 -0.2216172654283022 2.3748007204732975
Ni 5.011614357272721 5.174011249004462 9.151220946966621 0.6438787935776653 2.753294616618407 -0.3901618194013409
Ni 4.868399140698031 7.392841651900804 8.8328877794153 -0.4589485991577515 0.40897380990152143 -0.6562193174208891
Ni 3.6408453884740726 8.738680870555175 0.297660298499821 1.3821594963766841 0.2514477185261734 -0.2969225630295209
Ni 1.9122817072916747 6.436879851709042 3.2430345246616827 -1.1811231404235272 -1.395879674176254 -0.09308164774803324
Ni 7.266751291318408 5.452003214241284 8.406196052572046 -0.4279295250684178 0.9954984910397501 -0.0232384017026503
Ni 6.216083987263637 8.734659054509802 10.043806088421436 0.12738762011875482 0.6184372135761091 0.8646920750474335
Ni 8.060398839834157 6.981551276776519 6.408726221168576 -0.02987313341034855 -0.13315280473730615 0.9868140758918745
Ni 2.1535263944152763 7.174277068960024 0.933463504131539 -0.46122428256580567 -0.1764941478374186 0.11728601290837866
Ni 7.567368267367568 1.0222115781994807 5.158014888884262 -0.03252805453469237 -0.4414406721809752 1.0297638399805233
Ni 1.2709214170237444 5.811845563561378 7.044235595491043 -0.314166180601317 0.5070364558039139 -0.48712506159196745
Ni 0.8202760109166335 3.8011579143558127 3.1688237546189417 0.31200465417362394 -0.09137752057273295 -0.7894680243061113
Ni 2.054349145314602 4.141873681889341 8.725536510580394 0.30816265471971444 -0.30949782859137015 -0.7541315537883464
Ni 9.134848115481441 -0.08026369501331508 7.027933467164653 -0.36150610333786126 -0.6567584777538109 0.012256705880165988
Ni 3.206498437801986 2.107284692121878 9.458599716019924 -1.0767242678904616 -0.4407433890036345 -0.48294136252792313
Ni 7.704192652966046 1.8268043429848346 10.98845538320703 -0.8493024799652404 0.3119509181175531 1.6872931344620876
Ni 8.487822390282012 0.994159870394411 1.2542676093490945 -1.1601010296459051 0.969886961119233 -0.5722555728137242
Ni 6.174112021182794 1.9972265023504971 8.960613494878245 0.40501276837124445 0.5812166386617539 1.2440781439895092
Ni 3.313554038881957 3.547232569792342 12.930878673490822 -1.816813227542813 -1.4579661590943536 -0.6366784191744841
Ni 7.601103774560966 3.2340267585874525 0.25809040337210626 -0.7085682633362507 -0.572437349807227 -0.07198651764063087
Ni 2.8484741697078837 8.351429569418999 4.014721855702274 0.6304051845712627 0.38940180130686486 0.33860065949459756
Ni 3.1910539296094727 8.786529462821042 10.178358790710265 0.769106944151256 0.7814623803928155 -0.42860855341331344
P 3.539501133467671 5.409406856628283 7.281919414435658 0.5467134626785617 -0.5936317244966551 -0.021710137983581967
Ni 1.1765372911552292 -0.021034648851016132 0.05570949801117512 -0.4444462917765184 0.1746367829137057 0.49545492161390153
P 7.9142085812533 0.11876018763942174 12.781503099873115 -0.05287987871816699 0.608659565364055 -1.521874013491908
Ni 2.933896440644239 2.2605177198963484 6.836049685326718 -0.5881475614536322 -0.741492267757781 0.6630666793600258
P 2.3239118248672823 1.7537872626359259 11.633989914512009 2.495338407549754 0.7499622529020051 -0.10254510715377824
P 8.663845708980276 6.6390082457885855 3.162305290667773 -0.04805288964316886 -0.23550713603651696 -0.327856533604216
P 5.930691145925051 8.963379182076572 5.436365879252076 -1.0870238500442568 -1.4474935416978039 1.0717147304910124
Ni 6.014359611234314 3.078360440283246 4.170737098686217 1.4575103025038576 -0.6720429147167072 0.27186741983310597
