# total energy = -381166.5945552631 ev
CRYSTAL
PRIMVEC
9.24003483292065 0.00000000000000 0.00000000000000
0.00000000000000 9.24003483292065 0.00000000000000
0.00000000000000 0.00000000000000 13.52372497501056
PRIMCOORD
 96 1
Ni 7.279964598661367 6.021499596168726 6.7555057745868226 -0.5038984243955644 0.22466068024031632 1.0281486729746037
Ni 7.070123411215184 8.317814533277959 6.1895518027983485 -1.4096960112340562 0.5240931541758844 2.5508423541543297
Ni 4.959764171919885 4.616025642012994 0.6445219866213625 0.8921103191593861 0.6469330070229569 -0.5078790063098673
Ni 1.8195476280009908 2.579300239034677 3.8812007965227835 -1.7845003743427201 1.9028860480731808 0.590430443950538
Ni 4.224377532321495 6.8619731501143395 12.468184931881645 0.10937112893667617 0.8013076972535168 1.2225765224723073
Ni 2.1022557288862145 1.82228267826449 11.81213507800102 1.0041793066431994 -1.1463577119178838 0.8884033026214443
Ni 6.606975913216393 0.9404045289447533 11.563163267713978 2.6945202267926756 -0.3842660227421963 -2.0554008022768664
Ni 7.657262934504169 3.6849812681929874 12.864132429706949 -0.37858362764543835 1.0705027124607822 1.2960277975839227
Ni 6.42051201349539 3.5002360149213447 7.423483589228094 -0.9947148187961901 -0.33191733393715095 0.9962500244937939
Ni 2.379438289036396 7.930740240750083 1.7747861280298083 0.9444083572321542 0.20192698608822643 1.5351193085375883
Ni 1.8854567953305208 6.11589579039815 8.982809664726469 -1.4886836427828685 0.21108602687967518 -0.6353401599790349
Ni 8.041666857011265 7.625625055780447 8.284444148052865 0.43686950787052503 -1.1811192837687852 0.9583522210067559
Ni 6.870668022742558 6.647983187099537 12.610616370367243 -0.33738966990563185 -2.2918965274788983 1.552799756536487
Ni 2.5476438802416066 4.209953838195406 7.988640146024204 -1.4727703139867216 0.43357798160344685 -0.5817496283470884
Ni 0.7449842636142568 5.223918283179748 6.429516427285188 0.7441551593019249 0.136785516393887 0.4352965069564503
Ni 6.009044029428195 2.7033292244635683 5.133714292681911 0.0016807301365325896 -0.2577584912355496 -1.5793142578872479
Ni 4.89317124202448 6.364674483960503 7.29661791315429 -1.057803776836875 0.1952241201467541 1.20275948774638
Ni 9.134254757036539 5.7888724832164975 1.6415771681523135 1.1502233655208771 -1.6768745102319251 -1.2858457148445983
Ni 4.440261702444465 4.364382537701705 3.6002991224163234 -0.1395401963208887 -0.691431346545648 0.635650492130602
Ni 8.148296857149044 2.3776734424136654 8.845936107097272 0.27435419081070167 -0.784388810010991 -0.42291278858011677
Ni 2.1879940106261153 5.053541283826152 3.2149000481748398 0.4597456411377501 -0.010435079290394934 -0.9493459037430876
Ni 0.8612784160175561 0.8830109775707672 0.9114758283874432 0.6721287895622939 -0.7220608985060468 0.7510164051981323
Ni 3.579321471695977 6.276589233413412 4.741512704913441 -0.4782938364535827 0.7936892614763106 -0.2160775665569956
Ni 1.001259397307614 8.91322388760016 10.324931169146963 0.9936658087063854 -0.025786622045800747 -0.37554715481195966
P 2.5316678602902876 8.755145374397637 12.184199858204476 -0.1433721684724692 0.6451244930593082 0.2694613814947746
Ni 6.0531374748924485 6.565691438293032 4.530866710447153 2.032955071678841 1.8864196749870417 0.09045732275130873
P 3.04505342681153 5.102984709366642 11.269698842464772 -0.7643246922712643 -2.107113657270126 0.12772186352972198
Ni 8.566944348157923 8.367553639928017 4.704781719077419 0.8284456911208893 1.7389941623808052 -1.7920771582487138
P 4.990006805407836 2.2671811077821604 2.9658071934335712 0.3444242081549101 0.18553414655249983 1.1538473354267096
P 1.5596808928298558 2.84340815012117 0.5291065615155592 0.6952126679649511 0.45252109836485294 0.5692101011191809
P 6.794215975850013 0.6834788968103478 7.87984150974844 0.6086148281690487 -0.027374278247894793 0.6117042657276497
Ni 3.8251525941973297 2.502524790928541 7.405131956362093 0.6099651715493559 2.0108852363629945 1.0108518335673686
Ni 1.278682198359319 3.7147156997738686 10.120600738380343 -0.45834259014263645 -0.039457177554357854 -0.587893022240665
Ni 4.711050158600249 1.0055282933269947 9.200203656515168 0.10823187312591039 2.1505017944477736 -0.9013830027105638
Ni 2.632781559727698 0.6974295011611292 7.092395590793356 0.14897511648154343 0.2371901801658947 -1.1212853423302882
Ni 8.493827953782686 4.5934707173737985 8.370360762461974 1.318868449627522 0.30907642478323544 -0.6348395661935324
Ni 2.975706966583278 8.106153059001 8.10709461853428 0.3064006777232852 -1.8426669553811232 0.6103827187027487
Ni 5.381534794648573 4.9697896095411584 5.713476572287187 -0.24867838331115233 -3.3242746651538173 0.45184515534375086
Ni 4.255710489900976 6.323140528100945 10.184446605967173 1.5212451216586576 1.0281982952656161 -2.4897879100451696
Ni 2.4553359338485032 5.190977559566994 13.335365882048942 -0.38335353823025586 0.0266656822166444 0.7171760596099197
Ni 0.6263024862512002 3.773417640057691 12.448561870244504 0.8232533482866724 -0.3010399276320041 -0.596510845816663
Ni 2.7314374099418286 8.536008712069425 4.293376567246006 0.3272669796493331 0.3235177970195461 0.907503770896321
Ni 3.4709173849007926 0.5237196213006263 0.42549158469190135 -0.8350963636681876 -0.3324328401209887 -0.2520773816903723
Ni 3.5525623312801184 3.066702828052675 10.401921910061 -0.3939742511688957 -1.327675506396191 0.4945331811305805
Ni 4.7461160901880195 7.971146912379416 3.1051145761958954 -0.6794073255015782 -0.5588151310381021 0.2368991312880372
Ni 0.7501577590282207 7.952528242511337 6.355298620776812 1.559903457460804 -1.8997017368079283 0.6417123820539657
Ni 7.570073967320453 0.8029765692351173 2.179983824567238 0.21892043532242944 1.4916854057236695 2.104549238977059
Ni 4.718821027761069 8.211794375428664 5.576954135975602 -0.37564691361461755 0.3141844354337621 0.7112717783103427
Ni 8.668575489537078 1.7909589607196832 3.9422062774508304 -0.31098469754954183 0.13513049728896728 1.3069824968232135
Ni 5.228307299649891 1.0855747137077207 6.501990639250584 1.5345816908665637 -2.000974405007186 1.0466613870668102
Ni 7.836353286555333 1.4324918155424617 13.426056822374099 1.6500807870778484 -0.7475680416382158 0.09362132230158715
Ni 6.690256345733014 7.669986462250245 10.681862620561368 -0.552844515276964 0.5707260235430751 -1.5226381453514424
Ni 8.099666554659864 7.093694739668518 2.9528240207131553 -1.3844878873995448 0.3015119821724162 0.12690682382759436
Ni 6.015123972243678 2.9132166120831218 9.779114004923501 0.3045096313481594 -0.5195536144343181 0.9356015575738017
Ni 3.2129263767684773 3.4682377748453375 1.870061049556728 -0.5997707475148574 -0.5745495110542234 -0.31346684054144724
Ni 6.484961255346431 0.2844618594663462 4.283748451115715 -0.8862690298872609 0.5553716525741919 -0.5850300988705731
P 3.5903078729233444 6.101453616202713 1.5442601989624434 0.12948358341583507 0.10060135316384611 0.8306378136762017
Ni 4.507020952964002 4.366239784671176 8.958791118594913 0.7380480179629224 0.6963406109218072 -1.6136163736032276
P 1.0844566695121687 0.3126448892254658 3.4033126712085866 -0.5295744890054299 0.11172805920462693 -0.9074585194806825
Ni 0.8958897378993664 2.5564034331125436 7.349955089306396 0.11260403405167703 0.5677183470650029 0.21953955696366706
P 5.86967658644049 8.554775222492287 12.755684914748798 -0.5581952380659161 -0.36779733566321177 -0.17002550939393946
P 1.9964296117650724 1.4393756413745802 9.070348829224328 0.05851445129612503 0.761155036294031 0.39344177570419336
P 2.7582057903923607 6.372611673745456 6.733597652374805 -0.9370580875146701 -0.38785888229977716 0.519135295949977
Ni 5.419705377886802 8.227437754131719 8.462416455908476 1.4543632722344437 -0.3016320526900483 0.08060459832694505
Ni 3.6737453860294225 2.917929029766854 13.185997025530117 0.4220758945011182 0.2585578472083934 -0.9463801362465443
Ni 1.114819423450881 6.8776904490947866 4.044391820910422 -0.40177934903561124 -0.265951054348671 -9.281682412242079e-05
Ni 2.0093102201006063 6.966154541063512 11.073266793337474 -0.7766773002993462 -0.32572046109781966 1.8143925339164624
Ni 1.044881601003494 0.9038611158126126 5.44686923182138 0.2712603823767264 0.25564453021634037 0.7619770179746942
Ni 8.47041370591881 8.60042099378177 12.411641463697666 -0.15744844405987724 -0.4409835300388987 -0.8363086388087339
Ni 3.8898235968805452 8.60564161337257 10.339807624972078 -1.1581791300328441 -1.1730622177922636 1.2269157732776095
Ni 7.9508465562006725 0.22411611701402206 9.649528986645143 -0.5059403945262577 -0.1544911612037662 1.045585123283496
Ni 9.025822950137334 5.883647518867554 11.986090742783851 0.07102415372736154 0.638669481462584 1.2977190692434166
Ni 3.6789752456548976 1.925410705260829 5.160517785264205 -0.6727191148481253 -0.26144365339662073 -1.5822268035483527
Ni 7.805288289981397 4.065846257419946 5.770329581632746 1.0221659730286072 -1.3439824710863306 -0.7347505781585733
Ni 3.109853789980182 1.212625190475005 2.826891588141423 1.2136751062176196 -1.8816911591631207 -1.4705290833610285
Ni 8.045399831019553 3.8530205387740657 10.753173512161307 0.5823006157545519 0.6783847977743349 -1.7314027231867921
Ni 4.493419621923897 1.0597303367245867 11.868339436912464 -2.215641721480216 -0.07472397117645195 -0.29586455407865175
Ni 5.184370934775096 4.582512036250454 11.634325394755669 0.78045193685043 -0.5523755460603454 0.019915507977004414
Ni 2.9162473434561886 4.120953824215589 5.634376331457077 -0.23939927200207162 0.1721862644906841 -0.19805516183764602
Ni 5.771501218029407 5.9576324765021464 2.434621624116365 -0.3682688759829916 1.024088901082933 -2.062161518039468
Ni 6.252602103399748 2.4447283740427688 1.1537680176086598 -0.2385369240017763 2.302623169867783 1.8403349648138367
Ni 6.495217693834554 5.298282082235975 9.370467003442274 0.6352468289342801 1.5275993460114594 0.20808914903488035
Ni 0.0611912056249937 1.4749774949734415 11.342902093165945 -3.104277451827441 1.1544823979075471 -0.22521680985410245
Ni 6.760240368353772 4.130849901351427 3.239621760945085 1.6205768640814606 -1.5172426853674836 0.5281426416549098
Ni 6.646366181031589 7.9027798958266064 1.1902920266679848 -1.240054881762729 -1.4973001808072859 -0.3959629994641503
Ni 0.9153584909574514 7.461512799935812 0.15810161328920858 -0.20317654222461135 0.14769547843817146 -1.214668323368824
Ni 8.13576737013112 1.5203922653960744 6.322300608949079 -0.9062184764259941 -0.02159418123100797 0.14607491211561294
Ni 8.827799767039176 2.9970884068188774 2.0555926297791265 0.258896975715367 0.8864220105253573 -2.082696404768026
P 8.963923957856313 6.026248973991154 9.958303225345677 -0.14573012718168452 0.15265076556091775 -1.43512113617538
Ni 5.426940325036532 0.38697080413952817 1.7936108506711168 -2.5355869706571554 1.2816854128193218 0.26155318239129144
P 7.300542155880331 4.693420172442287 1.129007496692784 -0.4007100272308325 0.967286033161276 1.5362765620704832
Ni 0.46563399132955885 0.14639264135033567 8.037014499552912 -0.3654290925413513 1.1847869624283596 0.1703875207190485
P 8.504232232825592 8.678610167193025 1.1692570877326598 3.1785913320496677 -2.712488381235322 -2.1939027871412278
P 8.523202024011283 6.043324558068677 5.065175411484165 -0.07699194127502225 1.5077972236838677 -1.0044793543821215
P 5.875885889741408 2.6207787546861923 12.666523200162185 -2.080454917032017 0.49717961761449214 -1.7949236265585733
Ni 0.08715200704502002 4.363061212743326 3.967441736148949 0.011928890227102036 0.0066329319354853505 -0.46105201865399953
