# total energy = -340890.2880685663 ev
CRYSTAL
PRIMVEC
9.08940161219572 0.00000000000000 0.00000000000000
0.00000000000000 9.08940161219572 0.00000000000000
0.00000000000000 0.00000000000000 13.30325803024271
PRIMCOORD
 96 1
Ni 6.64159858010033 2.1464076834846897 11.390621927468604 0.004735200692140232 -1.949264121117088 0.321268338863737
Ni 4.538301929048257 0.08261720813683911 6.183513638243004 0.3629546628589297 0.029349399696394617 -0.8504221953919806
Ni 2.8220683615109547 1.514839693278501 4.854877611042534 0.3881473600744734 -0.3491725214731728 0.2418724161329125
Ni 3.7004954134581176 4.1734806115808425 5.241657105223149 -0.6671609040340575 1.1356981753215085 -0.06683968333236874
Ni 5.076385422402355 4.482747505639411 2.363217183087306 0.5413162029223904 -0.1643513418272976 1.170721485474229
Ni 7.349208505227723 6.023346563437 2.8120563854990372 0.927588714571654 -0.4365260084881772 -1.1574540789413614
Ni 5.029984026541401 4.4335374846421125 11.56148904599792 0.48619175114442065 0.8824411715007382 -0.22464011141502602
Ni 5.46190330762205 8.12217122883509 12.619896250654653 0.5983178171184147 -0.16925315000428914 0.06261407528679538
Ni 2.1293196082214974 6.609131237100265 0.00935572120659763 -0.8380276783823696 -0.8184988643208227 2.900050099740812
Ni 2.864961248301914 1.7015541837340813 0.2971161818182305 0.43104570209989634 -0.41347966819167503 -0.037572301826819164
Ni 0.6911544722250085 0.40042086830561485 5.216366753833626 -0.5268108102173636 -0.34242491833669414 -0.2886119862812965
Ni 8.539465662522932 2.2553078056805957 1.5084562064394906 0.8236613823583686 0.795379761804856 0.1614051147147801
Ni 6.689245223999081 0.5726232199499117 4.794853019860051 0.618668869970941 -0.39102056785721045 -0.6809031933208144
Ni 0.7103312920070736 7.252406376742086 2.1252757333892665 -0.075711789011018 0.4539295486766053 0.6956870364982083
Ni 7.598639867659911 3.771338210586479 4.016186696663508 -0.22100148622117424 0.4872122219891351 -0.7001504715862006
Ni 7.442402141224269 3.7545864431875096 12.721693005394078 1.8774213281431733 1.3362758464706923 0.25518173164730895
Ni 7.706503798057944 8.543192317234586 7.16649153365552 -0.2920251257279035 0.8945271561309949 -0.45952066961113763
Ni 6.867406587421329 0.7700622955134919 0.2993276332605362 -0.024895734800415188 0.13744628990633748 0.19519403823976705
Ni 1.7778506219038863 6.8704969840114805 9.15234856958096 0.31195528899292724 -0.84451482876861 0.615925760008165
Ni 0.09250465934497758 5.066732477758999 1.2129261252241468 -0.4039172213142205 -0.7783091794758144 -0.2871001776224604
Ni 6.471981254309677 1.743165464880301 6.831528900890014 0.6614142313582674 -0.14527298503960787 0.3765791956208998
Ni 3.561373030490875 4.586403043033796 0.6166540998381856 -0.6745757084408899 -0.5719516684200601 -1.0734743934945963
Ni 5.8835697435447845 5.480845620839333 4.62084642197121 1.1864910896036598 -1.301018823040611 0.6890255653176327
Ni 5.48934421146225 2.808897818395867 9.532861830204956 -1.5111211458507783 -0.08656647233733478 -1.461593985654928
P 0.26481063016906187 5.853092979524847 12.330496970910067 -0.5127327348577427 -1.0720767418161214 0.872425182025633
P 4.306658525812912 6.241546741505186 12.641035472271465 -0.9617285936781567 -0.6689676182254931 -0.040850201247142545
P 2.456129047630045 8.476439750887309 1.5513063730422916 0.15625133842798253 0.0743889564345364 -0.7046149351154576
P 6.479816318605886 7.55959179780317 5.533755937283252 -0.5139203274079407 -0.13852666745470982 1.5123974414600405
P 4.874909743527932 1.2541374726939938 12.36576384964474 -0.768387035266096 -0.41418749289197704 0.9566054135189784
P 3.9029163901130572 6.1697313783911 8.726032904670394 -0.6607462587569652 0.044238400993085104 -0.3381905685403724
P 4.7027201170460655 0.8690876916636897 3.7374701907789363 -0.8142840549085267 -2.5287426940418127 -1.0502084809881203
P 0.19713094484473856 5.622667556122091 3.70172430057279 -0.19727868868293766 -0.2399823981990512 -0.4693122017802627
Ni 1.4171468034227628 0.7572489658866186 2.8865676651679424 -0.3265725246854698 0.9318359198837822 0.028162835587461178
Ni 1.8624184156532153 6.492077921547399 4.793057863017243 0.17589868034526482 -0.22923313010234717 0.7646692200948766
Ni 6.115076805754093 5.8194349248974 9.313757256664063 -0.48502369897824854 -0.36730934028319967 1.4656797256885274
Ni 8.528212983174086 2.539887884624893 9.949307313770682 0.36567000490756374 -0.3288595209474336 -0.02743264228965598
Ni 2.4059010136383434 5.266090326028994 7.123668635257927 -0.43729991053972433 0.28475533153936766 0.2210660209105225
Ni 0.4751884691034685 0.0999207022211682 9.245817614450099 0.9252024737276647 -0.3523252081695416 -0.1305207664310978
Ni 1.4478053554774155 1.0848382759640924 11.326673441556801 -1.3006498697369664 1.617592841752472 1.53085153440017
Ni 4.083322835764033 6.855635812173546 1.57924264927709 0.020423815071990634 0.1944509894261554 0.16405129408837554
Ni 5.6304026369992055 7.517126112893791 7.814360456934586 -1.3666614007410849 1.2928856524105152 -0.04651434151145537
Ni 5.207636383466447 2.6679030186710615 4.387999581946053 0.9560798800328114 2.3287468635380284 3.0396260343956425
Ni 0.6781629903241148 7.598794387489419 7.074433163935768 1.2479980478692054 -0.3773926926611307 -0.3411046568633738
Ni 4.972920762444422 4.815365072757096 7.461039050543231 -0.4925238640100356 -0.44066754146037657 -0.3061484525031631
Ni 8.271101076275196 7.088897128917853 9.406893629429677 -0.33576267582517016 0.8319305643456962 -0.16485502093659352
Ni 4.93404539122066 0.2819459703212797 10.263637004596056 -1.0358650677822547 1.1714398516974922 0.7516833493581699
Ni 8.532948561478406 7.516099010497652 4.854478586306335 -0.41382933822160983 -0.8223848296387901 -0.6562468282247149
Ni 7.231655272579392 6.022928450957156 7.193564316725425 1.2133051244727104 0.06648512820642744 -1.4468183700076502
Ni 2.206170499897183 5.362519789043464 2.5387008087582053 -0.2983191862667314 -0.833691512900861 -0.056429543742638304
Ni 2.3318405682955303 5.396995889827127 11.430052661138419 0.7971587080821497 -1.5497511995181503 -1.528156246956194
Ni 1.121104988889697 3.482077089748275 4.01239550719953 -0.3505480616644608 -0.2443460744843856 -0.651523968827749
Ni 3.328838865885427 2.9533284119767824 3.05750113632993 -0.38120640998026606 -0.031369001229584685 -1.4187771475997177
Ni 0.7266404055415128 3.4337123831124003 7.950666034303923 0.4540462767601277 0.03802327332130871 0.48749710021940557
Ni 4.0829683490963395 2.486305861392703 6.964535025429278 -0.283786282757879 0.5012669003099883 0.2520455000111723
Ni 4.248649963935416 6.65307849449257 5.744959093895263 -0.8353452464542 1.2530147843575066 0.8377679969630797
Ni 1.0857563055394024 7.619509134045171 11.42912190640068 -0.31446957077434873 0.29621011034352857 -0.6391361366863573
P 0.20210921017540362 5.637283314113161 7.963277579212264 -0.0715712844800832 0.15248004431100837 0.5827446452705061
P 8.66489940647615 1.4355891995445802 7.853592132706389 -0.5582055224785613 0.5310551873160145 -0.8134445897263668
P 1.4846174325071642 3.2281737416621015 10.30886768551345 1.362840227222782 0.19283813641308079 -0.024427279804428898
P 3.9462637469908035 5.896813001873759 3.6907497569170573 -0.2475586678844124 0.29623402160292855 0.1302834536093111
P 6.9957580293317205 4.117526254495624 10.384004316021773 0.22052274681254277 0.6932172348014771 0.24683361679292978
P 6.441958960376526 7.908897506507675 10.597455281683033 0.8467529740705095 -1.0139798376733893 -0.9548820030699683
P 2.4922775983330845 8.326537337461478 6.0073655773052215 -0.08576608792322649 0.013018523746854997 -0.45433886829988207
P 7.013055160834834 3.8887187446018308 1.520256067772829 0.19277488727531317 0.9776303525100775 0.9473350439606458
Ni 5.323308109955479 3.0264162913338715 0.2598869012488113 -0.4451104077230786 -0.7737385293859965 0.45600442892776305
Ni 1.8981034068677325 1.2287780418512781 7.140177715630553 -0.9796396696306224 0.034696008720288635 0.11011057820586198
Ni 7.107466776663969 0.5347685885410736 9.306640255104979 -0.4727577371267019 0.2605491666068093 -0.6951710160937382
Ni 2.8303851640991575 1.583855520657978 9.292698021782527 0.2816124150350118 -0.04870594984613547 -0.1998305085705139
Ni 6.300764193813535 2.0577496589542776 2.5871245965053626 0.9772128053566846 -0.9589859979360129 -1.5058632398859484
Ni 4.0714884347041 7.216621402108477 10.686147845940042 0.0392309204761647 -1.370778251122936 -0.5465216583827297
Ni 8.138586688369836 7.299862143204388 0.20713928509596238 0.1575309764713545 0.5768172240424776 0.35056708782785434
Ni 7.296044594475377 3.757604124563775 7.943960782643468 0.3965798071125428 -0.03796928015492171 0.5903198865146027
Ni 3.0137093077073063 8.513633582789959 12.626401535476923 0.9458918837562159 1.7040808954433877 -0.3600824835174573
Ni 0.09386988748568578 5.053825527294247 10.271485702994868 -0.06849573087855301 -1.0954352140364036 -0.1375679030858663
Ni 8.650919906606582 2.528062572966695 5.777818190110139 0.014693854566748887 -0.3472835319805761 1.5605552321121898
Ni 3.405971529014921 2.784047394050353 11.377079627822525 -0.013360480467306023 -0.08217914190291653 0.39234699997811784
Ni 1.070286143785172 3.459226333784624 12.749243890995281 -0.2382098796796607 0.08816775538618364 -0.8022227528686183
Ni 3.2797379177089576 8.480593607480541 8.174147154780574 0.4518569824182928 -0.32667999679761156 -0.0998395352971571
Ni 5.714652301687784 7.509890949112142 3.4742792919991836 -1.2495481659651446 1.6861564497544832 0.03081261450548242
Ni 3.1534497699925796 8.094912113029604 3.6867985939825307 0.8370416603200165 1.2588915548532578 -0.22283545410611943
Ni 3.226864867812155 3.835000380343605 9.004695783084724 -0.17876211793598892 1.5284041013009417 0.17851812024598288
Ni 7.095732359023129 6.099897504855407 11.61077814479032 0.4937227694141433 -0.49010394171463334 -0.2144793688319403
Ni 0.5978208594417314 9.361174847639075 0.628413058863713 0.13571748014068885 -0.6191815479413013 -1.1373750488032994
Ni 4.616570767394718 0.1977862907098855 1.4807589814703424 -0.2221173449931723 0.6299979218305151 0.484204802621379
Ni 6.103533265549703 5.789712581221529 0.5894904227509252 0.5346259353864082 0.20855683269991826 -0.6900666049876374
Ni 8.211747282940811 8.871955978016317 11.440721800895833 -0.37941460818716594 0.7070191736815759 0.4644584732323872
Ni 0.14151107774339572 4.968721458842509 5.838520850662108 -0.11312056867677937 -0.04610656455007544 0.17209499032845846
Ni 8.020260856573968 8.900542146475221 2.6427317384442754 0.1876429653653865 0.46048611884820045 0.17176768889602675
P 8.509216133546389 1.7620986886958483 3.755257241035607 -0.008215960151889076 -1.0818186516942334 -0.459523497824615
P 1.9555211576324047 3.2234745209647238 1.4374707057038787 -1.1528998839117757 1.0314450843376881 0.859622888054642
P 4.987409268811192 0.9386170702412361 8.215560286968953 0.13815822837169753 -0.056506419727160744 -0.2677618823051646
P 8.60848148990241 1.7084348608480366 12.552355633176887 0.08786333677188739 0.009856581079105607 -0.31379388486356274
P 6.433296760522365 7.978213284144432 1.4970553698423514 0.18083288442208856 -0.8072757419114935 -0.8054371460408579
P 1.8661632491683404 3.2375358254499145 6.063518992288453 0.6504029678494282 -0.04606928355423679 0.24207244795886051
P 6.213533205355634 3.833309751620757 6.041062716360132 0.7237295444577213 -0.6165250841550608 -0.7007803918607156
P 2.6134302340687685 8.79931347934428 10.263384319227804 -0.5822399377199456 -0.900361760534901 0.1706628858676222
