# total energy = -340888.9270351468 ev
CRYSTAL
PRIMVEC
9.09238697820359 0.00000000000000 0.00000000000000

0.00000000000000 9.09238697820359 0.00000000000000

0.00000000000000 0.00000000000000 13.30762741516462

PRIMCOORD
 96 1
Ni 6.144144027022592 2.5134175822481852 11.461460038067978 1.273803953188716 -0.7652963121559142 0.19151993182228952
Ni 4.642472696269661 0.6450530185843482 5.817162702805817 0.6943315509115784 -0.7658650401751907 0.7826443165160586
Ni 2.8614014107905796 1.9869592927301785 4.643496499026085 0.21777963684976687 0.858792935954179 1.3504588228392935
Ni 3.649174897641059 4.378702554494607 4.8198897126575995 -0.19329964943053163 -1.2661711192338065 0.7377189167582779
Ni 3.79949023662159 2.705566993007655 2.686703018063129 1.5134207405182323 0.12998263453944064 -0.46284047801299
Ni 5.192434805728672 4.542747397579941 2.835722691921186 0.3549310212235049 0.858347106666012 -0.9445734220551087
Ni 5.320401057894895 3.325104046446766 0.2637401368985332 0.9847867610492008 1.5389553944542271 1.832424965938141
Ni 5.8522329480261055 8.429197221789831 12.447009304644848 -0.6467723130753764 0.427847763987889 -0.15226947096209906
Ni 2.6178527373129308 5.868217364063352 11.260448277870792 -0.5555459733685271 -0.25509174303666393 1.4543833268391018
Ni 0.6621694367812299 0.4376729506553718 0.35468946382536903 0.6796017009005715 0.05083456615336407 0.36370671053360587
Ni 7.857640693622936 0.20264293439347805 7.040746110251355 0.6178805697416908 -0.3080770369844436 0.5038925108582935
Ni 8.67862866954285 2.6751711438537766 1.5555155362881843 1.095391762392978 1.094815578174534 0.3145482465310841
Ni 0.5771310705289188 0.23135032731407015 4.681556321034228 0.05378130748651382 0.2857935429958949 0.23008930745505535
Ni 2.091567203144587 6.811597959026147 0.46978544244169157 -0.11631824967847064 -0.23095165545535065 -0.42200107539912485
Ni 7.570184884170391 4.31705617182536 3.705947760972443 1.380351753743984 0.11458995413345427 0.09905380617106811
Ni 8.10047106854146 4.252563872080084 12.721172953798842 -0.9037671866720242 0.5984656555501887 0.12264856277187265
Ni 8.38835422017475 7.424179336544613 8.87464325394136 -0.8063935964168564 0.8372378354912227 1.9088612918200094
Ni 6.790712746490564 1.2671695821655335 0.6016286883498263 -0.7909428090794249 -0.9742200412769482 -1.0055185942799134
Ni 2.0228651282996264 7.215745460982692 9.175462144309686 0.5868766651610087 -0.9545881259786333 -1.119723654270123
Ni 0.2446943142175196 5.315663924359396 1.3957568443518602 -0.6477544744829877 -0.4142648830971317 -0.4227338398000913
Ni 6.5804785783374165 2.3850421726748663 7.16599737571182 -0.11803960324495157 -1.5571140676411246 0.39991684190557575
Ni 3.4552524714508377 4.7912241447163995 0.2591757587126981 0.10878543163653523 0.26120068414787917 0.16276625672836484
Ni 6.0714867639090295 5.933955320803568 4.68542967782141 -0.10602278128973353 -0.3531063093099403 1.3106972266706394
Ni 5.378274100032026 3.3031459322659056 9.109284116047169 0.033998725542947895 -0.2573237176909762 0.6369872086641545
P 0.29796024395074255 6.279729699347639 12.599023101484171 -0.09285873310394975 -0.6157429545733976 -0.3677829374855085
P 4.467171478295755 6.70871760210837 12.63454069213622 -2.0532935261258767 -0.2793380171785383 -0.05982134303300665
P 2.3919523866613894 8.575048198839594 1.6003755544022746 1.3836365951428429 1.2077970501702877 0.1104327374319711
P 6.365789140640327 7.897492625074162 5.787247840914948 0.4177947506272611 0.044352300863130065 0.5346858420900662
P 4.790933188338019 1.4280684594096338 12.88033245744344 1.5461951067357758 -2.7452401217450464 -0.8481143731944103
P 4.032037122041747 6.637569675207653 8.191216726003429 0.2563569829023327 0.09139706095675872 -0.31693345893380903
P 5.059785974347898 1.183419607126236 3.794803111213626 -0.219007595719597 -0.06736804503201302 -0.29666056761738585
P 0.29414598767791816 5.942365778616112 3.496272774608995 -0.4376722062774785 -0.48451384922136564 0.785088664291493
Ni 0.5499175567635711 7.905893990499882 2.3987925892693656 -0.18908766823171305 -0.38096781160689874 0.4857029844334602
Ni 1.9559087917249454 6.886282824401546 4.721998348390355 -1.3637095172016127 -1.1543114195473219 -0.11768093435395216
Ni 5.989609820555553 5.962596339300342 9.125412191796242 0.8205040676763096 -0.6334028337470059 0.3868142430853467
Ni 8.788337408965731 2.7928266293611603 10.828775393280823 -0.1720253134327876 -0.5054647404414198 -1.0641412890191289
Ni 2.571608857924171 5.490165012292758 6.989472322471352 -0.755532290790615 -0.22581047757404335 0.1272428670107744
Ni 1.0276306512774331 9.412620688327165 8.674044288106002 -0.14664801101026356 -1.1587601993472947 0.5870890382821309
Ni 1.697730467846881 1.427050112085304 11.710698727220317 -0.9480904340694316 0.4596538527548923 -0.9428608102393763
Ni 4.394023226293676 6.8840460972427495 1.7247484952955048 -0.6427819609690607 -0.3962625329824401 -0.014315131071091476
Ni 5.836312178696628 8.057855051495624 7.982008179084072 -0.5184179581679781 0.6630162857380646 -0.36292972315826527
Ni 7.156035756707036 0.8396910156176485 4.853557911829569 -0.3757304744673593 0.005215996983300694 0.11399037287624239
Ni 0.431379200495541 7.343566234959725 6.875652005726488 0.6521358913801348 0.805243027752181 -1.0101617494788795
Ni 5.4723621188906355 4.748053492074278 7.030965429744377 -1.9791817346121272 0.16580607199595315 0.28383461949731115
Ni 1.0004171375120856 7.80104967802804 11.14705439406799 -1.4206532815765083 0.3778974002116911 1.0902205026046838
Ni 4.60212977592992 0.7494945383198707 10.599365381315074 1.00087261086747 -0.3069902316781681 0.001891303485441904
Ni 8.258278534265273 7.398793392530965 4.700693067583485 -0.15673393449135586 0.018148645884568746 0.34437227187105207
Ni 7.347039526726634 6.112557075194721 7.027944029602637 0.47746594123564856 0.8801999408750454 -0.06300951095300115
Ni 2.288490116986852 5.3201373786769866 2.7940295521380247 1.1536969258917744 0.14077689694146725 -1.2794462390761578
Ni 3.6177516087760275 4.8602808226475105 9.390727130092756 0.36296186194778135 -0.0403524356751176 -0.836656766176772
Ni 1.0710104288165156 3.568525426508873 3.9009976431288873 -0.07037032219344655 0.5947033602942791 0.07323298845322226
Ni 1.78776328218182 1.3960268882405442 2.6720915524363615 -1.6107686197417874 -0.300599754770792 -1.2251964765936576
Ni 1.403382629181462 3.7338522961364427 8.420294865850089 -1.002910467233105 -0.12964093492930576 -0.9358674096406786
Ni 5.7023722283867935 2.928739627611884 4.865161615894834 -0.13444144164174265 1.0118990438849607 0.185314574342526
Ni 4.008096867533174 7.221091784435424 5.883088871953297 1.3203445199524164 0.6760229824103777 0.8590521031528366
Ni 8.06595636815614 7.9637761250238395 0.1737000486541347 0.3551878744293173 -0.4953034836377018 0.37704945038909904
P 0.28527727356942495 5.653537018753087 8.140767617708397 0.34268459975598403 -0.40711567364686013 0.5495866704612986
P 8.903483395709587 1.9490804092198415 8.268880257302492 -1.1168769288499476 0.48096598396910717 0.6117839699256495
P 2.1832457394947373 3.609332058576658 10.383954917342813 -1.11921714694735 0.4960429329068877 2.100701840206511
P 3.9968223078709517 6.16709321136731 3.962838602876176 0.32498846802780157 2.1580505533293093 -1.8172639419269867
P 6.911914262859452 4.288833403122507 10.662496550752742 2.755692427426622 0.5650387433503108 -1.3246799141029766
P 6.646443844748242 8.385262808654462 10.055548816110656 -0.8599152224840803 -2.6503916119045776 1.1569416580813172
P 2.038276723966938 8.51914820464335 6.121562175105581 1.129920649407783 0.7867485684924191 -0.03771165561816086
P 7.010175687270448 4.439739747246622 1.387480044625634 0.008538376488314327 -0.5037595848248551 1.1961399255473335
Ni 2.985576137651038 1.787081353169992 0.4185552981184457 -1.3684583447405076 -0.8687994123475877 1.180746988031031
Ni 1.9812947357385942 1.5330582500706662 6.836301064789287 -0.686802846634701 -0.16152775633557342 0.39810138596339184
Ni 7.06176589011194 1.1885749904556555 9.509617361730891 -0.17928302343646543 2.295647766991214 -2.2827603695055845
Ni 2.9870945662507085 1.9096740047230099 9.279115354107534 -0.3478453180213171 0.7515727919222346 -0.6421561544596037
Ni 6.5714680229944635 2.3974350959164865 2.6327406114991585 -0.978646709589734 0.5067765172743078 0.4081078623568004
Ni 4.445613429135166 7.328463780444442 10.41227315610732 0.0658850327285833 0.9272724688828159 -0.1660428705971076
Ni 7.450692736524485 6.681940522910593 11.371500872066315 -0.42190877279563466 0.403790208818053 -0.39427481312845
Ni 7.811869618349044 4.016698265469031 8.700380386542797 0.22805942150922015 -0.3975627398511024 -1.036137347607035
Ni 3.1288175996822063 8.678583207608728 12.418384652444358 0.8740760873654947 -0.5353324745351297 0.6580594559534215
Ni -0.034873849664881704 5.235878229975524 10.482125417885564 1.3290759862881434 0.1340514052921756 -0.23695980932264352
Ni 8.839682117362965 2.5049798472751674 6.227943100950741 0.5919815904877417 0.3612829315834617 -1.317664402017092
Ni 3.779368784579253 2.971319275110422 11.793937710120087 -0.687950329975583 1.252050106451392 -1.768545907895993
Ni 1.393362818901003 3.697537303159898 12.473305396579617 0.2924773827739737 0.5554310450572176 0.7798004193093603
Ni 3.3984977928931026 8.963793197515653 7.858367175330203 -0.300053909569651 -1.7097244668824105 0.5365599191843275
Ni 5.584507617982449 8.038142756860383 3.6591583383742208 -0.7995436633745585 0.748738150686917 0.9526454004299659
Ni 3.0143626343370022 8.908347822660627 4.0171865266415 0.7652903986186432 -1.0116936127423737 -0.9071191338633926
Ni 4.078090061307195 2.8426801863191957 6.6988996428154115 -0.33218781398971825 0.1276807258791414 1.165055288327387
Ni 5.252217249098923 5.123823654751955 11.332881868268473 -2.28205074503307 0.038776863657881605 1.2521190120161145
Ni 7.677893298491911 0.3087319946215769 2.6097723331421108 1.169882534512701 -1.0403590989978662 -0.0888868929403953
Ni 4.6419635226074965 0.28685480268345365 1.83766321031266 -1.393638186440245 1.07231791129265 -0.9032848477189669
Ni 6.368007683025474 6.1681024663048145 0.225873073491068 -0.14752295741604915 -0.5435366076124768 0.2503346879676528
Ni 7.98542509805267 0.3279105661502264 11.436042270700444 1.0910201156878436 0.009213548178468003 1.2999466730223548
Ni 0.11544694474774332 5.054412373734693 5.814035830976915 0.6958914391995306 -0.3249090209401178 -0.34857011200248356
Ni 7.261325596133273 6.708072042643839 2.559149560258733 1.6213381677275172 -2.698118228556579 0.5349180127055304
P 8.805140139817173 1.9745299999412609 3.6668905041296673 -1.0535298320518693 -0.5497046840964017 0.46656600649369323
P 2.15755065432906 3.37954925875111 1.541329594364798 -1.7610719681164508 1.7959726366483781 -0.07121775779540637
P 4.86992784506817 1.3055121774039133 8.241360330101163 1.7106966009876927 1.237920094807913 -0.3580479695859317
P 8.467539817028213 2.050996973134236 12.862514106983717 1.0246596859847386 -0.6880647440662602 -2.01243895400336
P 6.302342465379854 8.09088769282857 1.4975606626696323 -0.25611041410916535 1.1370649737620482 -1.925582461229432
P 2.0195554994955547 3.5215541561741635 6.0458680547926775 -0.7487078116696139 0.6935532779846573 -0.14890286848271128
P 7.2116084249776025 4.082972673031883 6.1157194073322385 0.6373106534418443 0.9546477755719753 -1.767166511049963
P 2.541967676876716 9.159488639136626 10.313517105853078 0.013750259706556965 -1.5768606541404326 -0.41979455466610927
