# total energy = -340867.93093013525 ev
CRYSTAL
PRIMVEC
9.26433999242528 0.00000000000000 0.00000000000000

0.00000000000000 9.26433999242528 0.00000000000000

0.00000000000000 0.00000000000000 13.55929803275192

PRIMCOORD
 96 1
Ni 6.032057954516992 4.404313454615078 11.763409336182153 -0.4949496998427089 -2.4287424647970752 1.1515521116346297
Ni 3.089629524665842 8.630714528034275 7.09765528645221 -1.5936301602892877 -0.1085036387300583 -1.3804491985537968
Ni 2.270272785563252 0.8695944744447531 4.766011808429366 0.19701515060890584 -1.2854075988659153 -0.505011197843769
Ni 8.10535234761061 1.9642809068651286 2.97356772873032 -0.7639238572884198 -0.41392806858300324 -1.3359038078432541
Ni 2.273774706001288 8.7852715086368 12.948058066500922 0.35435175168126715 -0.2503282602097495 0.07869478289874189
Ni 0.47401272430752056 6.802878817495584 6.648082816926654 0.02721718384474022 1.3752175178412123 0.6967432456768646
Ni 9.02297593879322 6.939963253267062 12.36927955575549 -0.2867535929163191 -0.30469809320988167 0.6041755614507723
Ni 7.765452985306107 5.489760560969704 8.099185076616958 1.6782690765866064 -0.1837397736562384 -0.9167553714015759
Ni 9.322056620013104 0.16583168211863544 1.4656111422247171 -1.0627060992344988 0.6437954898352396 -0.4710412686562275
Ni 0.1393291853009382 2.341960246805375 13.463447185148008 1.2926349698522899 0.5081811109313183 0.12331216449780055
Ni 4.7453430663731275 5.97082993289006 10.663736836090479 1.4621830253891788 1.2039277970228686 -1.141481357662189
Ni 6.0012354960584045 6.886674770834303 8.717774308278601 -0.5338263223032484 1.5821987785238945 -0.0712288135389999
Ni 4.877109771109069 7.783435068825227 2.768916610052271 -0.20564017327375553 0.8131203736177287 -2.7050028714915544
Ni 8.840329479968142 -0.05904719604197402 12.223231871243803 -1.8724177042809946 1.6564326974378054 2.4128242509049223
Ni 8.998573667804367 8.947990372588292 3.944345469418834 0.29642531167812824 0.7636572338905945 -0.9357555666531626
Ni 6.0583038291226945 4.274510789913167 6.957383917795324 1.1641127219084597 1.4125805318707028 0.02202998321684593
Ni 3.54634294729626 4.153157203093501 11.01180364034782 -1.4196099279136585 -1.4561764141837823 0.5144674581606624
Ni 6.969099601885112 8.024697005458384 11.179505792668676 -2.2315439945327697 -1.4344421078304843 1.602676329651956
Ni 5.49979384095487 8.747361830244092 7.0360418682903 1.306327379737718 -1.1605975096663497 0.690021867792631
Ni 2.5696777186755457 1.3853893711743435 10.932997460416315 -0.9520807861757475 0.31077463842126474 0.22717907578679583
Ni 0.23926639784386317 1.1697340697018521 10.138897164430587 -0.6043719937322946 1.0742318404859112 -1.2339549395125782
Ni 7.010529729395422 0.9235286813603989 10.70966202126358 -0.44002296589784223 0.6940857534493595 -0.28944682347776607
Ni 8.419756246831847 4.657943284858757 12.727000728500867 -0.8629262413962622 -1.297172195601011 0.06740738291038068
Ni 0.4648354693183184 4.618041773412671 6.617316870940745 0.3203795085008805 -0.819315446684847 -0.9471170144125688
P 5.77409241325479 6.900858475042327 5.810891297307495 2.6161936258666296 0.7709841065693109 -1.927724961493732
P 0.3105693889849848 5.392383085508866 9.18840369569731 0.6554287031987938 0.11318613180739216 0.8994325638524122
P 1.4129971037281719 1.4909843160228464 2.7728085591951777 -1.0288508412479507 0.23332966876922395 0.885429821815417
P 8.134275616413648 3.1049156853080624 6.739268934110402 -0.4436158254554231 -0.8395022060453671 0.31757880582729175
P 4.526760233529156 0.7400891950498821 5.709548684419465 -2.1121908146827173 0.6068579933789419 -1.1206477087462894
P 3.974772340568679 2.98705475458665 3.015479601909354 -1.14222312092422 -0.8786827328995706 -0.4883478782554751
P 2.3649080164482723 2.888333949857255 12.517293133169167 -0.35760831094535184 0.45361613120124455 0.7653202234153141
P 8.433235861216351 5.2078559657078065 3.608197238292533 0.5340137557237061 -0.09006805773269004 0.7813106853062995
Ni 5.987440894121273 6.099789542671703 1.336006734394166 -0.15068618563537917 0.6147713346887477 -0.9824871663817466
Ni 2.9735010254838814 4.699725457280827 1.970694609297013 2.553410629102138 -3.4125748323528065 0.8616936545407418
Ni 7.004276300041787 8.071454128344014 0.35222186065009015 0.48008692379826357 0.4746248722424277 0.26932768413038777
Ni 5.934736065094853 9.090475918453354 4.307897617623733 0.3440758236765558 -0.9416922438525717 0.021545073160627412
Ni 9.218184842364268 1.9453538606881247 4.943489692089417 -0.4457061323255485 -0.7624557573833256 1.883219679992505
Ni 2.1497993110229876 2.5842227321351134 6.278524597240329 0.6561074744333733 0.7485787422909174 1.8571715767552015
Ni 3.4742663837832444 7.9393353786963115 10.845241928254271 -0.28802294654704585 2.8724313095822787 0.9423098228319126
Ni 8.885835916983044 0.5795984048162406 7.574833635663637 0.3834782367335783 -0.07741745884821506 -0.41796135811211244
Ni 7.299225085718379 1.3012599016034312 0.1516933731755489 -0.1638756877424597 0.3446332388419226 0.019263990435934564
Ni 4.756664089588154 2.7832207506774758 6.231812869619637 -2.3025141550937445 -1.3652637490626098 0.35481326469871793
Ni 4.085962946646213 0.4906283177086252 8.751956942776541 0.42974369545902114 0.25203650115010784 1.6566949499602563
Ni 1.397683150066602 4.641267473249063 13.659229551351634 0.5738905373139859 -0.016071965861198127 -1.343849545052892
Ni 1.4155077398094096 8.037880160969827 8.63083218514952 0.28404005063989796 0.1779056834729646 1.0441951849145048
Ni 8.357861192740527 7.125555772143186 2.385433161237872 0.6093601909755054 2.445687577291846 0.6296518513450059
Ni 7.67700633339624 5.798179696691016 5.64291862626497 0.5494205771970796 -0.8810532900142762 0.34517394183674105
Ni 6.416722606653742 6.588464937554037 3.7591661400970384 0.709312597701443 -1.3031888341087363 0.3556609574109939
Ni 5.71257719709458 2.1401643976484968 3.956372435325337 -0.34322684541269927 -0.22346871681474414 -0.18403133675472821
Ni 4.5285297224277405 4.469256476495057 0.173370075400196 -0.08882492935420831 0.6818146493914903 -0.1554478686900807
Ni 2.242146249981566 8.677119606008143 2.2806599633281355 -1.3869962556436952 -0.5705946401715334 -1.0374743212509037
Ni 1.3790896201217917 3.550789830392179 4.406676787693763 0.587791463665794 1.5237246935474016 -1.4385797841479417
Ni 3.9395863780722222 0.6493412811378775 2.8307477401990857 0.9705814160830962 2.6774943816586405 1.7959721224277456
Ni 8.203424648555185 5.203529519029068 1.5282686514801902 0.07008904350760187 -2.6514995002567754 -1.8776452712285212
Ni 5.392188534373421 2.0153459477499287 1.433760342050199 -0.640353039812594 -0.38951313007374855 -0.7081363180051546
Ni 4.244318306559836 6.3183631111758904 6.874184587938641 -0.9103145008722388 0.7089649845540371 2.316075695828263
P 3.7786555316988806 7.214586077459392 8.96563801344124 0.07450337052521362 0.9595686099123603 -1.9116851344220496
P 4.145810581645453 9.035140016928516 0.8818113593168115 0.349424746693295 0.059053868739362816 -0.7801724579367983
P 7.268569385375889 9.111348475984821 2.6024901573195565 -0.22890634289054768 0.2006118668212287 -1.6416869065871984
P 7.084347988787673 8.918872552649807 8.579171447216662 0.38373611838065524 0.5642123907942735 0.3389354171261969
P 3.5142049525884644 6.342617152728214 3.261526570040515 -1.0806333731368811 -1.5190974791880354 0.05916571172687874
P 5.910880390153205 4.770467955865069 9.034533202672717 -0.10379877705522123 -1.4813102331369328 1.3636195285909676
P 1.8433349509959227 1.4504250364521547 8.106697529747127 0.23531533174068506 -2.1537958918180133 0.792154569999339
P 3.1598346915426587 4.622877758779483 6.751852686837874 -0.34761057630269165 -4.7199517364009616 0.4262580509032659
Ni 3.4110465291029333 2.75327840449829 8.835210932237944 -0.3007151973027337 1.22073406994693 -0.5022452050628575
Ni 0.6815793307153315 3.487847905905363 2.0761589269545735 0.06473909204959818 -0.360843787163514 0.14737331921206231
Ni 0.8797213242617297 3.934314968735602 11.00545849403033 0.2709549353211656 -0.1153124341217756 0.012256705880165988
Ni 0.6281138993927138 3.186580840496653 8.370805328285565 -0.3334653951505612 -0.3312254500764489 1.0015074162379913
Ni 2.3111933743854873 1.4819237917149122 0.7855872941589787 0.8986447778437942 0.78627034330442 -0.24282758095733017
Ni 7.936018745053939 3.4554968313825545 9.896565196552475 0.22552097135808258 -1.0341863945282512 0.2714488442384486
Ni 2.536594761309867 5.510790612277486 8.626384375619624 -1.1157957799706268 -0.4680014533886392 0.2393463072769491
Ni 4.797065875382532 7.465223525953111 12.813143339106661 1.1331625533838485 0.8484542730323323 0.3478753999283041
Ni 7.314020236352092 3.6268685886915213 4.7613203467631715 -0.011644526217463817 -0.2106188574352695 -0.3771669498035698
Ni 1.625354300237857 6.533731218115104 10.917065575291208 -0.819935339657033 -0.7947202738439861 -0.7060131010145648
Ni 3.2802711087237904 6.858566763932183 0.9831465607330159 0.4212431141871777 -0.09504314234977825 -0.9556456207088703
Ni 6.737759773159725 1.3147117229685854 5.906511327511466 1.6308399365703654 0.906718041770232 0.8865747340531377
Ni 4.571127156750729 4.395058379171696 4.554188237891191 -0.4751820302974784 1.4407587940771316 0.6168701261993054
Ni 7.675292430536355 8.086082520861629 5.714254042595334 0.519965505160756 1.176977750796586 1.0778267569260211
Ni 8.48538482985578 7.628563100670075 9.687006757091282 2.0380080607217157 0.18726372764909685 -1.6308666760432426
Ni 2.374320585667967 5.636785633328516 5.188004338420442 -0.22895519385061214 -0.29638186003470246 -0.3059851874524214
Ni 4.664196714212395 2.493821304530999 12.510648748676681 -0.5756003209162409 -1.1514891196071784 -0.3628641600276525
Ni 5.64025049640742 2.7381126802732503 10.022829809891194 -2.2498052547358025 1.0941710026119995 0.7450704720273426
Ni 6.67766200098634 1.8493382431754128 8.305924377482132 1.0644925017109603 -0.521374983913773 -1.4121604136141488
Ni 1.5438559031653634 7.2631868039618706 3.9451857450371666 -1.7899097182837498 1.445399892393569 1.2349615264002216
Ni 3.665389713509918 7.707708355437646 4.88818065714995 1.1410347570430737 1.5628648540819732 0.7315382418688627
Ni 1.3938013916974563 6.032965859815741 2.1095957820999693 -3.6336069147015997 0.9734672222713237 -0.32912254480083314
Ni 5.665912717606783 4.140780045143194 2.500564817459164 1.3345310958654437 0.946569112328899 0.37955267642692697
Ni 7.447297028472689 5.626993226177712 10.512821667456716 0.9720178914193066 1.4496298713145164 -0.16514169893907688
P 0.8841506051120605 8.612649065457104 5.685237203960485 0.44494868533423376 0.4219475964533701 1.029766925304317
P 1.1217633183046287 8.791506409310868 11.084603748797901 2.4419149976232912 -1.8450205432149642 -2.5972505091052236
P 6.71815643017855 6.1996128038352945 12.564953529183654 0.48190546506424103 1.624734595003576 0.8457641277946789
P 6.82649361960287 3.5991126267011624 0.7955334893501836 -0.10340154161680255 -0.5613566665130333 -1.0692220459761457
P 8.052276944992864 2.397147918893683 11.872588654092763 0.2871739682831893 0.44213538425515464 -1.1122016348614652
P 4.574471583412451 0.9677436694095274 10.89429938670806 2.338669779078695 -1.018050151088021 -0.3468536435320091
P 0.8979257519356469 7.632935869047729 0.631985466988098 -0.6665734069617036 -1.2037185092255398 0.5282102616680516
P 3.2778345873608186 6.0101385265900245 12.291503570407873 -0.6637364517335407 -0.6227913767797467 0.795591620705346
