# total energy = -340889.48969894485 ev
CRYSTAL
PRIMVEC
9.06571904179381 0.00000000000000 0.00000000000000

0.00000000000000 9.06571904179381 0.00000000000000

0.00000000000000 0.00000000000000 13.26859619458851

PRIMCOORD
 96 1
Ni 6.563834351935724 1.9829900321129303 11.68849216831516 -0.3588558101992078 -0.9093793906524791 -0.5908773016799695
Ni 4.43344479559428 0.43556155985033274 6.218340709743937 0.5376302694303708 -0.1492507387404333 -0.6911109870917518
Ni 2.985014880716995 1.782692037875597 4.681293392238341 -2.2413031308020623 -1.0242524232439907 1.43380550268775
Ni 3.531877178552806 4.073626410907045 4.4387437083141 -0.981178217762336 0.8643763435792274 0.49393771363842676
Ni 4.955213183407055 4.393002623407589 2.5347931467704736 0.3126880533938937 1.547880979078631 1.701023853784619
Ni 7.190873868067678 6.060387782098582 2.3689485107887553 0.4870078192878129 0.2468873528490006 0.6939996214934563
Ni 4.661828387104504 4.624976239617641 11.393384885414203 1.53928526698982 0.009736510561473554 -0.5761538794268658
Ni 5.562407840781631 7.730284144935666 12.607899307084713 -0.32800282937409314 0.47296291115897254 -0.21787939565242476
Ni 1.6407047478536403 6.739999402357552 0.2817280948908398 1.1716082589545564 0.3905955645046499 0.3843462411608284
Ni 2.451787424165376 1.7021159279461404 0.4071641018459414 0.6245906347720146 -0.25965853647173986 0.759213339186628
Ni 0.2633301248761189 0.04870557499955068 4.950805430858934 -0.6232881139105072 0.06456888502032106 -1.063526538253265
Ni 8.392607439178043 2.282176888536415 1.4532827942253088 0.9832559262269711 0.5642303885164025 0.05078237275918995
Ni 6.844409287377529 0.7324149002189296 5.104548238629038 -0.7840257702446175 -0.29159138062459455 -0.4230040627423425
Ni 0.8702555303982071 7.740202041454886 2.560162654649253 -0.49111952746334125 -0.5179173643824758 0.3474465399210016
Ni 7.756656321329094 4.182297183828332 3.8888797509376003 0.05847151387333156 -0.2820093933631143 0.35694419499879176
Ni 7.587780108934189 3.9012598967206413 12.750232000998244 1.3693937120705837 -0.6625447454182848 0.7225164979862265
Ni 7.8086210222872 8.604736196630716 7.129123630086862 0.685447103937755 0.8298633974040225 -0.24965874494655066
Ni 7.015842032513221 0.6089470608454759 0.38850322598199066 -0.44078966886053766 -0.3344532129851272 0.1418989263610524
Ni 1.9692373364825313 6.500854802466784 9.213792952675353 0.4035482680105759 -0.1654070367853216 -0.18257943479955008
Ni 0.24368743165107906 5.044845946556531 1.2154781075937195 -0.8258211090138488 -0.939051463795615 0.8405008225132106
Ni 6.398466572770196 2.0979977425725487 7.327860507522907 -0.40064009322484545 -0.08573266358212978 -1.0593040155314855
Ni 3.3591933642035383 4.450370492853313 0.6988808058637249 -1.107220122486474 -0.553576508346982 -0.5836494164729626
Ni 5.944926785692015 5.547712310381581 4.835819478124769 -0.43822962144284533 0.6052939913259318 -0.4432214182304819
Ni 5.313535724469362 2.601752546853616 9.500354888904447 -0.5732958411527804 1.009126880456462 0.5465375992223297
P 0.3013807604067125 5.540432538073598 12.380051499563782 -1.0907568347241279 -0.22833941464348417 -0.9735340709535169
P 3.891804351867308 6.2247583321808255 12.532706421061208 -0.4758140074545225 -0.16163599977866355 -0.5052906767574007
P 2.520061353494667 8.60279613277778 1.334887224598202 -1.4203000120021474 0.2822629041348171 -0.25938342843348233
P 6.197706226866975 7.704863869030829 5.788531348560373 1.3131006939058094 0.727025955820806 -1.044471578504343
P 4.887891154566356 1.2258211863311763 12.906841389096847 -0.5473135581564058 -0.6052477114690286 -1.8919686298297285
P 4.470913411968993 6.286214840868021 7.906676744902861 -2.253470362292216 -2.6029465310487367 1.1399950029246497
P 4.764343536866238 1.0787933565791592 3.870926907722782 2.3726865023437718 -0.5272939205013694 -0.9271745098523709
P 0.09658979586323178 5.9039497360879265 3.682075290217777 1.4496902922388066 -1.4540992199397798 -0.9552337299824322
Ni 1.3616347217557028 1.1282559191101127 2.674789604913435 -0.6140596533337037 0.6327325471528586 0.2552454950057088
Ni 1.9344521729137503 6.5436631272965435 4.828654840447312 0.47014292521167417 1.0313463539762946 0.09807781541104399
Ni 6.294990456800932 5.362472475301856 9.082313737475545 -1.254141698873098 -1.1028145372196105 -0.036589111977943435
Ni 8.694441485531703 2.3273513660092418 10.21023785127249 0.9124510875992673 -1.2795071742210802 1.4098741886831334
Ni 2.476971991377801 5.47404427828361 6.993678162851256 -0.24568947588615753 -0.5688504037869171 0.2418482477631964
Ni 0.6444320979163444 8.692057201450758 8.942622794060824 -0.546432441103033 0.5109897840247071 0.11184581572941382
Ni 1.5082273969986504 1.166241281464346 11.420241171198974 -0.03450111910066316 -0.8043791370899889 0.35606564904858035
Ni 4.033637524667303 6.795735442394265 1.2656505159175935 -0.5490192279936029 0.9248520323667814 2.025048415237254
Ni 5.785061897922435 7.806182343892621 7.901196517804261 -0.2579258700513493 1.595975777703329 1.4084353993540777
Ni 5.32634558533011 2.749260859709398 5.079032772675341 0.6219580822451741 0.4515044841748805 0.9154687913796684
Ni 0.831139672892286 7.358689391346726 6.74482508454876 -0.4167393127795533 0.6246659680946404 0.4310706418005608
Ni 4.629382179021974 4.352152493868646 6.716045959777038 1.1082375080073947 0.8945089012985498 -0.1856138507504997
Ni 7.851311492770753 6.941448742900133 9.235473619517872 1.3608126552697917 1.4984072978285354 0.5791895809293961
Ni 4.7248532651681385 0.34526427950263155 10.585752621730638 -0.5523454641533584 -0.31071961681361326 0.9191896918746814
Ni 7.874837033417348 7.308719148555191 4.368977561647457 -0.8768711336121285 0.7999131308988353 1.4369998412553315
Ni 7.540312004569806 6.256433954153543 6.927016118349313 -0.21510851777550696 -1.3539331545411393 -0.17279561593990886
Ni 2.1652019170670425 5.551492715179126 2.7811776298058923 -0.2294172210886952 -1.169751922472108 -1.9650270403782994
Ni 2.292720319662423 5.380250350141153 11.300478491155872 0.5550651770773666 -0.39184049265534454 0.2617807250210653
Ni 0.9511299024807556 3.3898354942172153 3.8389629958878047 0.8010449305104334 0.24783711835677963 0.9616049236160988
Ni 3.58725058983196 2.5175864122243317 2.548021843846201 -0.38124137698325955 -0.21661055624233017 -1.045134923119955
Ni 1.3498946157297527 3.121580870813455 8.030698499703487 -0.7786686196977621 0.6670673158789866 0.9305791646585457
Ni 3.693147252757926 2.430836547697445 7.527102345503851 -0.18932498105349976 0.48014863027413435 -0.49594034589075225
Ni 4.203248060296263 6.985970488609355 5.876263030448349 -0.7800030222384696 0.6158103174762233 -0.29706988724066263
Ni 0.8256313420649752 7.442538225813146 11.26440146263829 0.6452988138536435 -1.0007294004213863 0.10192135752685028
P 0.35513684742715657 5.651541989389464 8.05983662694519 -0.309715343918815 -0.77112628857413 0.07835102640607798
P 8.661487597188593 1.3372751349667233 7.8826072611199285 -0.39128230615902937 1.2685812713371958 1.1422331482265489
P 2.1841583353684033 3.372356788102905 10.104195230271607 -0.42131073420031956 -0.17305118359414068 1.0770453986753064
P 3.9267345669391123 6.1131230691665 3.8881762511479367 0.5182878603480171 0.2134794668125162 -1.2554223653577348
P 6.758865163469523 3.821137072738132 10.65911423252847 0.49489776355885085 1.4035767857101957 -1.2514497538632319
P 6.450277156506339 7.932785108875167 10.642090625504895 1.1542674536832638 0.12973040931931853 -0.5603773333188994
P 2.275078430607211 8.629268032079537 5.479996829338929 1.5110177875036945 -0.782123411015582 -0.19496572427904485
P 7.029640056738314 4.045957836705346 1.6441116450309008 0.4162590307090251 0.18506132068113937 0.4272129586173674
Ni 5.381791522360775 2.9207026705640287 0.8113918173275543 -0.5649055602065561 -0.6942631595674882 -1.3700555140242985
Ni 1.4320934893492827 1.0610789417724356 6.658778719811536 0.6413845664009018 1.1705703046083453 1.7430703893327077
Ni 6.85536067585579 0.7389132075543746 9.332572908785473 0.6554670126358969 -0.9248533179183621 -0.07956253021567589
Ni 2.57683995120936 1.2670339446276784 9.334444073174476 0.4763336274034184 0.5846629453391414 -0.7926374231730284
Ni 6.43913538793036 2.374901061844075 2.9848109020408686 -0.15728620745040006 -1.3459167119945659 -0.06539189514224866
Ni 4.571914586667921 6.860156441174499 10.165429628844798 -0.8164910898621744 0.20582375003947134 0.25480429370323215
Ni 8.055190445988975 7.113398234015345 0.12553935615100567 0.610643171452987 0.6142352596796196 0.21984243291606656
Ni 7.944253243332947 3.4714722932625306 8.508752897364502 -0.7755357304957353 1.7172269459070426 -1.760638223013142
Ni 3.095807031869998 8.424962990071183 12.454222679062863 0.3968639140118649 0.3498078410643266 -0.5538292477877365
Ni 0.1806960967475187 4.778096232496638 10.247960307777493 -0.28441286059828436 0.061527527090835976 -0.39942241876766044
Ni 8.6099217878638 2.6436180369137223 5.995574237688292 -0.058489511595460564 8.278952179340582e-05 0.31401242863227213
Ni 3.666766010645559 2.6258673592312434 11.76445473387658 -0.5754779364057637 -0.6107102772454966 -0.40179117611015314
Ni 1.2406798996721282 3.4108860935934757 12.404677618489567 -0.6878886234997121 0.2892622182707857 0.2615778649816398
Ni 2.961770377357507 8.226387482432253 7.783159044075244 0.7368725095975825 -0.020188302022416844 0.14732189714883662
Ni 5.513824652987757 7.689560935461868 3.3865836208338114 -0.07949285332000504 0.1578017136342379 0.7326301893814609
Ni 3.245210079984022 8.728419800114919 3.345782446177138 -0.40740158031839513 -0.9912615701402671 1.3288967803978016
Ni 3.7956170739249657 4.527809864029892 9.045520517161783 -0.462014639677585 -0.10583251965579839 0.2806955596476972
Ni 6.993812335491553 5.893895853784622 11.687244725389158 0.05084073680095115 0.11508257749915664 -2.007278749958659
Ni 0.5037393925588708 0.046842569757594855 0.48473492594713363 -0.18607767776079565 0.060817902618321054 -0.3288998872670658
Ni 4.669035633660975 0.09481019523551437 1.3663733730450962 -0.2257379724648951 0.7834215610017153 0.8829091122760924
Ni 5.7091636989654795 5.411400160415411 0.5263529218802071 0.8328253082458237 0.07326975522842866 -1.46979580473943
Ni 8.380060484166526 8.997716981196659 11.310350152508503 -1.99835882176121 0.5281956063800323 -0.2940007613970356
Ni 0.3059217790232364 5.030667162136002 5.781207154229589 -0.2351394682844531 -0.801895965656819 0.22639977441861012
Ni 7.817188126684516 0.014798879595954682 2.8240086189329987 -0.011558651371876867 0.4131652222750497 -1.0425491646706497
P 8.43527071250478 1.8532414626585665 3.952781284022632 -0.25617931967388785 -0.5012388752855303 -0.894179285873273
P 1.436544757348311 3.2806117124406526 1.7695530914173656 1.882185582301036 -0.37338202883984084 -1.357404143808875
P 4.6795971962248615 0.7677693909370772 8.427456062779397 0.6333902353415156 -0.2432908937469939 -0.4708301810866859
P 8.676001813209863 1.69359415214352 12.516332826085558 0.3185445121746707 0.6316015188722091 0.18147051800608746
P 6.3772890533287905 7.812002535451432 1.3626446428455028 0.7780849792801502 -0.5383684331479761 0.882922224902215
P 2.126056142688623 3.289115356805395 6.05071828627829 -0.07760694915120182 0.6790340013225596 -0.6416540180122046
P 6.93712439496625 4.215142283544176 6.189030333842393 0.11229910121674853 -1.3343937989566308 0.6273401724926937
P 2.5257546249883327 8.369444527289007 10.129790474551967 0.2813977279210444 -0.06116937242046884 1.1623993387617788
