# total energy = -381176.1424801916 ev
CRYSTAL
PRIMVEC
9.17122755166502 0.00000000000000 0.00000000000000
0.00000000000000 9.17122755166502 0.00000000000000
0.00000000000000 0.00000000000000 13.42301856375747
PRIMCOORD
 96 1
Ni 2.747993193069644 0.9233683407361192 2.141817252939033 1.9558006366840253 -0.6346572749793974 0.4450715840653432
Ni 3.7271317673157234 0.30812480812543896 4.539436544854076 -1.0135466067907126 -1.3301905595085608 1.0251636222043508
Ni 6.405992248627748 2.5690166913516896 12.774431072629081 0.18754860587936734 -0.3805237820909447 -0.40881800104994753
Ni 4.141313565629049 1.2357862003836781 12.16510665014952 0.44025770761646765 -2.1491630210316925 1.2715712072034553
Ni 6.596020079301384 6.141448195742563 2.7139193320994814 -1.0176452023401183 -0.4817064616795575 -0.14092165004944762
Ni 8.542154522783317 4.8808263116974855 10.439591583286926 0.5469962840263031 0.5255442848001143 -0.4970621182000214
Ni 3.6985633941232345 5.244006914722388 10.782213963086056 -0.004090368019289729 1.3862136118413997 -2.030835968453309
Ni 1.4062976592584007 7.024123800730664 0.6014032334181325 -1.842694723295265 -0.3267370752877921 3.0010705427199476
Ni 3.368766058649105 3.0446457129040767 11.201656377406833 -0.538448394456292 -0.4200874033161798 -0.4940349013379234
Ni 1.4600685652062544 2.7252210355617947 2.232248305969499 -1.3840801104381648 1.7095411472270106 0.9709107743980568
Ni 5.568897643564743 1.6537740580468854 6.03168694682837 0.5829176805132605 -0.5629664342023143 -1.070972453008349
Ni 9.1037179445969 7.461288694780869 10.621997206910713 -0.15103662699626247 0.3831851309731917 -1.4993804603750822
Ni 7.461609687738088 0.15428297208046568 11.654294049117727 1.2147544553247274 0.5792628573694927 -0.04610039390248835
Ni 2.0672680143090267 2.1821743217660727 13.397635230578793 -0.0967056176538657 -0.332113251998041 -0.7124994800698569
Ni 5.770178570195741 6.750885424318519 7.365357656709139 -1.339718553603654 0.5934363206563973 -2.7149219303774794
Ni 3.552484084906551 5.469857559421663 1.8024029684666225 1.5396416218879743 1.4006552411880266 -1.331572527457752
Ni 8.632958844766891 8.869411428281744 5.1795267665989755 0.1840436780499024 -0.03214084639860271 -0.5216171818315661
Ni 1.2080065527432127 8.906142193814944 3.5418913173183246 0.7661270355873258 -1.0472213733353384 -0.011801106399986126
Ni 5.112087980532737 4.861181542715684 13.461005660192964 1.025804084001827 -2.395880938182364 -0.7629494091902925
Ni 3.986173083791441 7.560943251156338 9.061248742111358 0.705565729064501 -0.652449823076128 -0.441604194342033
Ni 1.6394852858369662 4.171798725337503 9.745594721429407 0.020062060857197705 1.2882532958448265 -0.06506407948918473
Ni 3.74207169666743 3.15337061312782 1.5284519876894511 0.3465348267400096 -0.4772060027060427 -0.6992891520271699
Ni 9.007814420207218 7.142515174580374 2.9478424911114463 0.48954087012231173 -1.4714248557024205 -0.9822079445784311
Ni 6.302981023042503 3.3327598200764847 1.4401688361041476 0.0980284502303473 0.7339957022704197 1.5203485779863173
P 1.8066951028660077 8.804735933015792 5.651425849988477 -0.6250128099110978 0.518113796663998 0.4410951159160984
Ni 8.824536612862529 0.7533842274339707 9.32914579571538 -0.8190133420633959 -0.2058440617544455 -0.00838488162958556
P 3.108018893886453 4.517306373260664 12.760055173759346 -0.5865442215222543 -0.529316607358353 0.5513424768101408
Ni 3.353477622658132 7.673886915960674 6.5614133700222395 0.09616182933525375 -0.4259065811011181 0.1968786250310416
P 5.28321391163985 5.808716067516717 9.07950407014977 -1.5897030573207396 -2.4305764326820203 2.054150217699217
P 5.2994378128204325 8.595283442816733 11.289348901950854 -1.2374886636974494 0.42126548278468096 -1.280272591632195
P -0.03060071717305286 7.265345422467054 8.414513966152027 0.4721067338062644 1.5406034715806112 -0.4999762065230228
Ni 5.5048824766679285 7.961294838627199 4.975281699288742 0.591620093383265 1.1356395541694315 0.6543282710457635
Ni 1.7014185841255312 5.6336098237400885 2.8683242815036905 -1.9949194570623578 0.07353946395004755 1.1374832922463893
Ni 6.308841437318587 8.878995360861566 9.435442154937078 0.5288075289324183 -0.04244582786903657 0.0644891808223212
Ni 7.836089242857099 4.32932372628588 6.9544389810866285 1.4249375107741589 0.30275356788900115 -0.5025735349365538
Ni 8.60173081564316 3.134487056015995 0.6131048023928669 0.4696662426855717 -1.593242952153198 -0.49510679424586346
Ni 6.818073835878126 6.858463921123624 11.307684936789936 -0.22872662277957384 -0.22873690719221898 -0.18965793891288626
Ni 3.8828775501583728 0.6783828472956536 9.456422254620911 0.8965421296784947 0.6973315140801668 0.7931110203753373
Ni 5.738996397208755 5.731925380922588 5.112197118138191 0.17612493742345797 -1.234558377424532 -1.4177049975814615
Ni 0.7519856152632308 6.837507666630898 4.988409394116264 1.2090715460073371 0.8070415144135005 -0.0785348602821099
Ni 1.6401364429787533 1.2576870912933618 10.750897890179774 -0.19627287312624261 -0.007707653056902854 1.4558653107012667
Ni 4.491764505093382 6.78710260112017 12.314706793545527 -0.032293827036699224 0.7872424774097023 -0.20730984766669458
Ni 2.1530373324779384 3.7314055592604105 6.574432844367041 -1.5250102451280445 -1.1359041206847276 1.428744800335391
Ni 3.215239712824941 8.35740931906277 0.31484915201780916 1.0354693750057327 1.3072743170320196 -0.7189015269414586
Ni 7.587099591556011 4.798780511832313 12.537072371852139 0.49190602792037863 0.13381023581564697 0.952005967073754
Ni 1.7695883170114937 1.740680608407087 4.559087733695021 0.12270821236521448 1.4150282220802468 0.6139156715566717
Ni 8.308902697613307 5.404054003191772 1.3048345368496856 0.5288419817147795 0.6150341014318311 -0.6117181496847206
Ni 7.532347364281802 1.8462047502859897 7.275826301081621 0.010846455796200673 0.7304000144993614 1.3039673641459737
Ni 1.410369684201407 4.716266979372337 0.6526456319858357 0.2697218342450129 -1.2392737806223302 0.018962914255747986
Ni 0.6612675028167375 4.511996232625528 5.0089199269598215 -1.1181704508503905 -0.5398149357865155 0.15664317454976248
Ni 5.781798515247068 1.9860292824505774 10.62876190420342 0.17943703251582643 -0.7248677718272225 -0.9798114193217965
Ni 4.991156176707323 1.5960503531115635 3.2782368734860032 0.8808283184876637 1.703899889780833 -0.13855417825853558
Ni 2.2613495274709714 2.226783171592162 8.771499405102604 -0.6460961129439583 0.032457606308073136 -1.3901962506382317
Ni 7.238932287701607 8.278289140721967 3.2995654798091025 -1.6051389322598357 1.440233260590965 0.3743037693231618
Ni 3.560600621110517 6.7905509826034365 4.121027727855544 0.012351579586817438 0.36172284733435767 -0.4892400510524413
Ni 8.368451476791103 2.5487299364554503 10.994700295292203 -0.9327687161106968 -0.8994988983139734 0.4739479007800612
P 5.374485966218229 6.669298185820804 0.939151105881209 0.3254109002772009 1.5551137493816443 0.8853046090914624
Ni 3.227785951838529 1.1210541462462655 6.795282418792843 -0.5876657367212073 -0.270973704374243 0.3926563036884205
P 5.506377386725833 1.7289414374002214 8.288216994327382 0.6878166326111961 0.3581618694559767 0.45867837621550045
Ni 5.992379066410068 4.343979347589764 10.911289816797485 -0.21110531015338482 0.9506890480345435 -0.09385477846863191
P 9.300908503830195 1.353361334999316 12.566052533152604 0.11105031641131197 0.46784795852991035 0.26279322544597966
P 4.615731985171352 1.1628566005035257 1.0208282224069458 -0.24218351961542803 0.22554668238969544 -1.070966282360762
P 2.3980833560189083 3.9048426396595004 3.9556026316686403 1.516659559170504 -0.9402647673774258 0.07740048956735057
Ni 4.91823574805452 4.253138340696792 3.283565356575838 -0.36806730149514677 0.0035602065474325782 1.0716625370968385
Ni 5.324750400303986 9.028027805284664 7.268202259786303 -0.9290904959281612 -1.3003855603319863 0.38292853487769535
Ni 1.8082725539700553 6.166173824675774 12.005090743853122 -0.6541992016670669 -1.0058929469001967 -1.0014634503739335
Ni 5.540439325100442 4.138424629014078 6.791483696424842 0.0015300634912812359 -0.6555994244487031 1.3875631838907587
Ni 2.7468926457877503 8.006169654046413 11.020526471507306 2.092507734431493 1.5760294164883888 -0.25753274837798873
Ni 7.363138219690653 6.192614473123268 8.82437244789298 1.0656489839129069 -0.3139844036078141 0.775155207227865
Ni 8.090471575839466 8.222748187895734 1.049160895056563 -0.8761512247269685 -1.0397690308223513 -1.3135002433370733
Ni 3.952844843604762 2.9830150651180323 5.4341750651744665 -0.7958214773279648 0.5207545767209547 -2.504068074113268
Ni 4.424915428945693 3.445244923513364 8.980616228380686 0.10058489810361386 0.030517966083199056 0.5708062419617074
Ni 0.8912479511913182 3.834242531526023 11.878646115268158 0.48733049273455437 -0.5765580568438199 1.127545207197071
Ni 7.65312325724228 6.638675457702113 5.8999000783125455 1.2916229836480078 0.7552859791077637 0.8454872199842084
Ni 0.6811378839913274 0.3836186831724035 1.3575901879299925 1.0279159881385072 -0.07474813954616805 -3.240674217423342
Ni 6.692895753790073 3.163064600435833 4.702298282996902 -0.6365236387641747 1.2992126230698076 -0.14996550541927078
Ni 8.251885177183867 3.636437500060338 2.9516008600791133 0.7238110484279341 0.3699084684689436 -0.3530392035174307
Ni 5.842612923799042 8.630977859659483 13.315124449487021 -0.5334285726441974 -0.26818200056171876 1.4526830563185433
Ni 6.638757998748255 0.9572101696543488 1.5909098801823853 0.9540237688347312 -0.043628792433544214 -0.11020365214030053
Ni 8.676384606264946 2.0425607278305145 5.321797265097571 0.2156260808418738 1.1366379135269584 -1.129104838374707
Ni 1.8541928893070676 6.61077658410611 9.476973140864805 -0.9701924081747936 -0.5867231703022798 -0.6123802087487518
Ni 3.6923636444352335 5.288881730141602 5.961337213201523 -0.7390155240825143 0.677833039035923 -1.0356287834017326
Ni 7.714781418710372 8.724533549847793 7.221705054249031 -0.06461053689153388 -1.374205274526614 1.7475579927904161
Ni 3.186267805629091 5.237238548938742 8.13343602460186 0.877823470223069 0.700867038037251 0.7564607161421553
Ni 0.6009648487508449 0.9516982620175314 7.112723359659513 0.9203389749877763 0.421411521444242 -0.4736982466631004
Ni 1.139075607987274 6.067812411356529 7.10017253503225 0.10264435173580388 -0.9064056527361356 0.36844499654953966
Ni 8.657519391607819 1.311989928427464 2.855210343517193 -0.6651652137602674 0.8898294935450095 1.4779983951548803
Ni 1.1106631456597196 8.532579761430842 12.36626468233404 -1.1611695801197357 2.1654213918720835 0.663366984209264
P 2.674027244499042 7.748192199943193 2.3050816079624856 -0.9921681411149363 -0.4100690998482292 0.8555826565469974
Ni 4.766121771242119 8.380126449206525 2.3861158214510496 0.7318555159989654 -0.41411421645188035 -0.03403934897289622
P 9.568158068783369 3.519412639085647 8.11604004056606 -0.5398925831019863 -0.48783854271922433 -0.5335059628493521
Ni 1.789939270499177 9.024790362030428 8.796385530514426 0.19496649560999327 -1.4646962787293356 0.046928289120422406
P 7.8885394920666805 5.248225679302981 4.317339683508793 -0.244550734296024 0.08538890708946584 -0.20849666888594418
P 6.972196311479983 1.0186849065754582 4.187364132394419 -0.49982476854682306 0.4032921861357119 0.5708918596969781
P 8.647926287800647 7.030617029693837 12.619194292904307 -0.7713700291538199 -1.053540630685147 1.6964241502290782
Ni 7.181300295039775 3.3655836427589625 9.14531679760701 0.07738043496269253 -0.09704500327115545 -1.2179742478136057
