# total energy = -381173.58537570055 ev
CRYSTAL
PRIMVEC
9.14316144990223 0.00000000000000 0.00000000000000
0.00000000000000 9.14316144990223 0.00000000000000
0.00000000000000 0.00000000000000 13.38194098685055
PRIMCOORD
 96 1
Ni 1.1749968117857374 2.8450775258411185 4.323611751985989 -1.160016183241583 0.7567872462436386 0.013224211999757868
Ni 3.8788764964739033 7.3371127106138845 7.5275830484302615 0.6708733198886381 -0.45748152769392175 -0.608321722408662
Ni 3.7963503218804595 1.375634345053911 9.419227249198535 1.0818962990097045 0.03598027474935094 0.7945865764795993
Ni 0.22468313337489818 8.219455213028146 9.274180137105647 0.14229796157168398 -0.23793245764855797 1.1997322708842824
Ni 1.6709584575476224 1.300376983755591 2.639319822201537 0.0509320109631768 -0.33795299860826955 -0.9764499590487312
Ni 7.714633843891448 0.6625089018339959 0.4010611165601129 -0.8727866791301097 0.06175069884523558 -0.8800940114248003
Ni 1.7305901560517705 7.464184367438578 13.006483527852756 -0.04517402543347704 -0.7621171430969843 -0.993541110203063
Ni 2.1422975697198607 2.921697218184688 8.13302216557809 0.9300819133071531 0.7675146599634718 0.6302267500118693
Ni 8.661581924599226 6.096440570653463 5.111861066348112 0.4022220929999847 -0.07839859181456175 0.044856494193058226
Ni 6.743812968826983 5.8626042184235345 6.482345982914207 -0.6415684002769337 -0.024168112605771282 0.9756567737234746
Ni 1.1365772476774227 1.2894509059094614 9.414797387511129 -0.30296234146569756 1.040130527926828 0.11297890089259252
Ni 4.373814108161507 6.3579624155345025 5.215798696255419 -1.4787483859470274 0.11397571758822306 1.8055559094614386
Ni 4.103213104032593 7.721034056855709 12.20376790355913 0.26999848494516726 -2.4695057627573664 1.3548533523625634
Ni 8.85394489682075 2.5506768726465365 1.5791227160395933 0.13216370135115948 -0.12728888975736144 1.0798486724520564
Ni 5.778743142268973 8.43009536484332 1.538508793200675 -0.08563187633820736 1.840006634940141 -0.19898795806456052
Ni 8.226778885291534 5.314142540031963 8.09523073665641 -0.3725502769671648 1.5615649043236266 0.026845659437934415
Ni 4.972645462581805 4.2715295618312545 6.636278419233762 0.4215619309791772 0.8206382792613286 -1.6777934225017685
Ni 5.553007631019523 6.8312764505642845 3.4482582821287 1.361406837210365 0.18787796419432803 -1.1420562563290524
Ni 0.7149988769861677 9.05866942322467 0.9173123517348395 0.9267963005773457 0.5723548173957497 -0.21930815767915132
Ni 7.473757257400836 2.0756530664391595 4.0286195362502815 1.2614593155804341 1.5263634167218294 1.5033864962106818
Ni 8.853286589201568 3.2827515178213496 8.435132332446193 1.2011348076587636 -1.5371592217857528 1.2425673637719374
Ni 3.617747807532095 2.325709386952797 12.494088878147066 0.06421021612932168 -0.9284824300305171 -0.13220766721521748
Ni 3.1336265557540917 3.2424941782761545 10.52197937135984 -2.515914946149525 0.46482768364634786 -1.4197518528081614
Ni 5.973026178379774 6.474300000901994 8.91511630370087 0.6655912455540924 -1.0418881340478832 -1.0068979911259432
P 5.2351456257302385 1.0102096142787977 13.507195960266397 0.6894413126988126 -0.1557918822930607 0.6773401585599045
Ni 5.102606358401792 2.163153120821971 4.776563052311908 0.05542269974467875 -0.5818612142242883 0.3058232079532604
P 6.12925537683736 1.231501549098776 9.920273407002453 -1.2712619034931525 -0.26599167777861926 -0.5273427714614337
Ni 1.411530396622032 7.313239916257195 7.406395930268137 -0.5263768080037386 -1.3866154752655087 -0.3965181006366719
P 8.10559542439396 4.90384317321601 0.9191464699071689 -0.7655295112126429 -0.5606442138270409 0.8853832848481977
P 8.480145030223833 3.761231439029427 5.101142538265252 0.5046203901632536 0.4081302309543036 0.5345619149176923
P 0.43418130433402063 9.240627477798581 7.4025146582633825 -0.8538204224402521 0.08793918431514532 -0.752425112620201
Ni 6.304319487732626 1.8720348625619165 2.12382106920818 -0.9833703403176484 -1.0680858754891733 -0.48283209064356847
Ni 6.313672941821824 0.082599319884464 3.919089034528349 -0.829088724021527 -0.4383545770564838 0.5482733509665139
Ni 5.859349252973139 6.30004048820795 1.0116917207380929 0.5236339551512789 -0.6915637583584541 -0.8551334848247208
Ni 8.987480768739344 6.001991713623739 12.6982712150813 0.036044552328383085 -1.0832461281693797 -0.5104953608867918
Ni 3.952945246793146 0.2519644982931253 2.7516216161369944 0.47656245558477284 0.8197895581077882 1.3852887860342853
Ni 5.772114350270275 8.732770579084553 8.326364370383144 0.25188789138738554 2.4999018585507202 -1.7093722257493142
Ni 1.955694789166172 4.2371421318904225 13.348927836821625 -0.14050384578573866 -1.4940845020834657 -0.8673235991330096
Ni 4.577971758560023 1.965861984617968 7.508941971013786 1.548044758350005 0.21568804442806078 -1.784769311733391
Ni 6.521515286255478 7.934042287467659 12.515393358472812 -1.52713243367737 -0.32242122152125763 0.08150191333023384
Ni 0.9955531265906424 4.333959067716922 6.547810104061072 -1.202483351266858 -0.2466785792723042 0.17787354468344851
Ni 1.7222150202299673 0.6871268638429532 4.9133538896808995 -0.03198246644386749 0.8407193662819197 -0.537174669950191
Ni 4.590772184488542 4.431717749165304 4.066731890136312 -3.3032193871454147 -1.5112954666451135 -0.7303637619447874
Ni 5.490660413586253 3.116729993528445 11.016415023487818 0.26005962856490056 -1.049903548153192 0.11329128992668876
Ni 2.2088323550640325 7.774795845755493 5.231562420786391 0.2474326838295093 -1.8070312084553848 0.17418375453668714
Ni 0.9573804278395203 1.1978821447136558 11.74788530569558 -1.1469814615448117 0.32961465394590334 0.9680373095050039
Ni 8.060547068286947 7.499166102868948 1.3781523716972783 -0.07195746417490834 -0.7522302230005755 -0.2554272719992117
Ni 6.986097602169734 3.2150098351753464 6.67132598542605 1.3184331618623164 0.06250634606433751 -1.794516878038458
Ni 3.1434188815894095 3.1099366246249525 6.019531954410362 -1.2352415195344857 -0.36515552716499045 -1.5003124852710483
Ni 0.9224352650546608 5.8722868263223225 1.3803869603379428 0.055180501826885615 1.3834077669614884 0.8545395599944638
Ni 6.546567548429867 4.572778442897595 4.682086765798053 2.471538734026995 0.0437689175558343 -0.5523444357120939
Ni 4.129335116088152 5.355515345265215 2.10022896990578 -1.4911472738320126 0.2519992201542692 -0.9381893729056359
Ni 4.499569149747837 4.436280186692684 8.708993787922326 -0.7412037899830848 -0.8088086336162521 2.044710669552872
Ni 2.6437725417923867 8.610343648239636 8.98234688362587 -0.6796271548218683 -1.207865184404062 1.7537949748390638
Ni 7.838761402752583 7.808232386913063 7.446943108028999 0.8205076672207352 -0.27499131017406836 0.6821244673224252
Ni 4.674578401674839 8.230609869908713 10.094011759497981 -0.021819152757620485 -0.3917366200876286 1.0251199134506086
P 1.8341821744590072 1.8899005998935792 0.2689982079394344 -1.6033957243164838 0.5863860986778353 0.9613706961181057
Ni 5.9380627292721595 7.919852101009758 6.2224817931909095 -1.2427918210779176 0.6010305880638874 -2.089582590364898
P 0.42936102965579515 3.4936019623482064 10.80621191478649 0.7796893476527926 -0.16643342116730692 -1.2083323538484674
Ni 4.527592939369919 4.022680138619448 0.0035100596528277322 1.8742758405356559 1.4914272669662765 3.4018823856359672
P 7.6164820065038334 7.511344793823796 3.6919436477944862 -0.5483535693851459 -0.8161226507791621 -0.8109835297803839
P 3.918804682209508 -0.19965190047167733 5.9790240922434235 0.930735744841068 0.4636938271522208 -0.4735414093702619
P 3.202099691310296 2.654104314148978 3.736906972500688 0.8096031044930895 -0.4072470570184018 -0.5855440623925142
Ni 1.9628264550406331 5.100594862898739 4.693300853227574 0.6259841726854316 0.6971476802041349 -0.5308361293266729
Ni 3.716091651308639 2.348082702843575 1.4804844624666937 0.17033429888360987 0.12877370183300402 1.2199763658452987
Ni 7.478566560285408 4.140206334966017 10.388789110941316 1.7506836829035912 1.0935493098676006 1.0884574971669898
Ni 6.560638873789862 2.7675343741984197 13.381525950080876 0.1312116218505353 0.28251050136924893 -0.6775700151825235
Ni 1.9935657635918362 4.128548804209686 2.3451047751829184 0.7166731518315722 -1.2445072611071277 0.9616368052952987
Ni 8.811813209193163 6.221802456300559 10.312833212113754 -1.0235343141310438 0.1386081714249226 -0.371411021156399
Ni 6.712378780011089 5.136920643051603 12.502626762241388 -0.06461902153196614 -0.7665510104986218 0.20396355690228096
Ni 6.488929059106017 3.1317887803172115 8.748390755981898 -1.532629452236199 -0.8863909001771056 0.3818404440198392
Ni 8.381737184317647 0.41541039402598384 2.6267141456103587 -0.2320405176441552 -0.11277758351506384 1.1994885303045923
Ni 4.137664536103068 4.961554807830879 11.556229099848538 -0.4720015756869677 2.413828009579088 -1.9712668506404245
Ni 7.849605192146315 1.0818645699943772 8.50172106244249 0.354011594733029 -0.0007893286705147696 0.0027084000700985616
Ni 3.204175188942992 6.115284626252519 9.519203147280964 1.4671771361696604 1.7604405051800391 0.21109553996137193
Ni 8.818213422157422 4.529266137902004 3.0344223404919237 -0.28501912672371554 0.16779996249753037 0.08822689075889321
Ni 2.981054621847511 7.635810649655898 1.6323697449538235 -0.2552143846574572 -2.4725535484447545 1.319981994406675
Ni 2.40408456628085 0.8850689931370354 7.162643819524295 0.6634135211764833 -0.2421110145062798 -0.4950995951570118
Ni 1.4351288961373965 5.0849966295887 8.660002900629328 -0.7576902176738822 0.16531370574056692 0.895183044547439
Ni 3.118659200579101 0.470113014231514 11.431215568649923 -0.31854014129929653 -1.0216774634279628 -2.129845551650003
Ni 7.66052461485932 1.3355872982203987 11.374328647191303 0.18096143958015287 0.4353813533607727 0.3665714336759106
Ni 8.591316729413029 -0.49810297415649846 5.204410888759726 0.3266157192185794 1.1589581742907138 0.9923488896671748
Ni 0.5882225442739679 7.6711946841868786 3.3330535344558823 1.6746114252293611 -0.31457550022459374 -0.8418365106054985
Ni 3.1855871418625052 0.13919091723058863 0.3180192676649772 0.7286722331749773 2.347836018958995 0.22408475313218826
Ni 0.20910867228444033 1.993190893975358 6.343401016724674 -0.7567995875388127 -0.2835479414948278 0.34981478304286207
Ni 8.666308939031401 8.165876287355912 12.17438086857566 1.702703812590203 1.3655666250150096 -0.8300963393504349
Ni 6.80447784456679 0.9446531472020203 6.35164449102264 -0.2774927364396834 -0.16727802855578933 -0.6028527288742908
Ni 7.240542640144578 8.326229051594757 10.123143700279018 -0.7315683237758498 -0.3191404938874568 0.6827060508575081
P 2.736456768676249 6.615717277928009 3.491977222571422 0.6229227601512884 -0.032735285449492 -0.742717912634766
Ni 1.7073573829915067 5.450229353974885 11.03884319834686 -0.37873789383511547 -0.7598057213549881 1.6328124869157041
P 3.2171310486149296 5.895473883575698 -0.023539983282548263 0.9107014518980122 1.0163974459759464 0.8915174227703936
Ni 8.91330230048357 3.2838486971866514 12.849446988245536 -0.37596907284072667 0.26890576610162076 -1.380133467085591
P 5.78644168414884 6.199136559245702 10.962205219680538 0.04045399424998839 1.7965632190445253 0.060721486249772846
P 3.0184044360746567 5.3362415610814145 7.083503357588945 -0.21504809685121673 -0.352276100099161 -0.1856490748638093
P 1.5694876525799688 8.057474966064103 10.961709660333876 -0.10775364793791119 0.03473560370897244 -0.5791497288303961
Ni 6.351809067927436 4.281349317150704 2.1979437641795507 0.17442646667511252 -0.27483884375660406 -0.1761575904336063
