# total energy = -340885.1529306285 ev
CRYSTAL
PRIMVEC
9.16137344331825 0.00000000000000 0.00000000000000

0.00000000000000 9.16137344331825 0.00000000000000

0.00000000000000 0.00000000000000 13.40859608011755

PRIMCOORD
 96 1
Ni 5.532736708468229 2.9966578009170624 9.366293311392079 -0.07681582070847416 -0.5055398166537294 1.2477026281159738
Ni 4.735550628484007 0.549896788559862 6.188858707090712 -1.4252514424701517 -0.7067630918067118 -0.19515778568519293
Ni 2.5888209350227713 1.7779111174751543 5.048055157455113 0.7149839370546074 0.3315782054301773 0.06637457077049214
Ni 3.5509025773591585 3.0842130478418714 2.617371439523815 -1.2068884223130891 0.3230585979949404 1.6730870181650346
Ni 5.099779356326388 3.0796506838187936 0.8851884019377988 0.4539403473098827 -0.15668688330350433 -2.2253345232879482
Ni 5.329702348067723 4.944851368386088 2.535311184448488 0.23819728127417045 0.03393599062581252 1.8142611505449207
Ni 5.522100353787921 4.527816483457318 12.212885065306686 -1.2151365212544942 -0.41227176392650294 -0.5646489641110598
Ni 5.904514408107832 8.096895225920466 12.953709459133524 -0.9966873691415287 1.5924932184713672 -1.0192223170192511
Ni 2.2040982145707 5.8348513237072615 11.897152068299972 2.0869901470473735 -0.6200143282552419 -0.8118047401300986
Ni 0.9705192673670192 7.792581881031757 11.798934814848941 -0.38107991170473077 1.1085272713336716 -0.08234343539492271
Ni 8.015972813438847 9.294579911593186 7.254506012750967 0.04872317623731608 -0.6487209521613151 -0.9020396624579561
Ni 8.65107587274778 2.559165568872765 1.3584915270138407 0.6572238474260035 -0.09081059232566942 0.7941446038461742
Ni 1.344999572201016 1.1279483102838261 3.0081782281440104 -0.003523953992858447 0.8804807053402577 -0.6151875962905599
Ni 1.7141662803816287 6.577252389920388 0.8213345444991436 0.10800227361360755 0.8579740395973093 -1.2441627332835155
Ni 7.997072899825173 3.9392348789861145 3.900614192689554 -1.567241900103746 0.23163016957961396 -0.11282900557828957
Ni 7.827844007788437 4.2024686249200425 12.657245579094159 -0.45337290484218695 -0.4075118806440143 0.6396323595964855
Ni 7.163433714524029 0.6680281196754791 9.443218616598058 0.599825769122509 1.602260582270776 0.988586080190633
Ni 6.932732006031768 1.3422236760183 0.5494277262345978 -1.6463130925053 -1.7241419278593213 -0.5326731825354117
Ni 1.705353039035844 7.144817803490105 9.453154126202532 0.08573986267098137 -1.5333763577045527 0.40800758933351017
Ni 9.121750599755105 4.894592073143909 1.5523397781654698 -0.3734936147170406 1.1305451703656593 -0.46470941290092876
Ni 6.017043559303545 2.3671706635883423 7.257952521476834 0.7078995194040002 -0.16881760512876734 -1.2255186358197667
Ni 3.647894039030494 4.856334177239545 0.9958055744756481 -1.3313817516031845 0.9402616820536324 -1.8073047738317454
Ni 6.089491701260371 5.668993817133363 5.058969101753692 -0.1252536044948875 1.3055156824697 -1.8356252180429937
Ni 6.441856450368043 2.071633914551257 11.635363070973353 0.37202448637068186 0.045288182413838134 -0.42449375991399146
P 0.14181348171733663 5.957045723988009 12.6320774537042 -0.7849732217595514 0.7731523178652233 0.5973716511550615
P 4.167197336789822 6.219189266470639 12.69778007632329 0.44554338149543915 0.4545736100185075 1.2450096546648428
P 2.2945301327871688 9.117371463202835 1.4657473915997477 0.5390819142752329 -1.7855113321057376 0.29424630174893845
P 6.497658376602114 8.137837404272142 6.044233599833851 0.3086848457717716 0.17214152729567772 -0.3610181079578492
P 4.793157345305519 1.3456775138429993 12.938155279136772 0.3378956630077729 -0.6432637857014857 -0.09961970597686713
P 4.004079080904478 6.076281000615235 8.4098715656289 -0.48427807906147563 0.8510174057738182 -0.3974038456757349
P 4.580338637963957 1.6267118085657628 4.11854403032926 0.15545583910988067 -1.1161858163201939 -0.19969038344822385
P 0.20130652535080104 5.871863272810142 3.465223579735406 0.5398223919856832 0.15192494313848673 1.4364635091358875
Ni 0.7328017790175824 0.24963643532538923 5.2470246164157786 -0.8989988187491034 0.24855805568320416 -0.33625452785992416
Ni 1.4410016055299975 7.055723445810522 5.036348754345296 1.6875628431837069 -0.8913616139188197 -1.4111389143281698
Ni 8.140970594022932 7.657176780105872 8.925190582035542 0.6276834147647256 -1.0165013185436622 1.006467074236112
Ni 8.828110255040865 2.944612037834521 10.692818973849045 -0.23160291588610438 -1.4088894561723606 -0.661713507766241
Ni 3.300274881416707 4.51399197078498 4.9212764058547895 0.24449391291615957 0.1849700465189137 -0.18071127124255973
Ni 1.6032312081819304 1.2228784629085905 7.417514332153826 0.6548180661979884 0.5804674192005552 -0.09358172731290336
Ni 1.5396787599327515 1.4341214140012195 11.732937196001853 -0.5956940063423225 0.010715843755607352 1.2753548426156034
Ni 4.1118443178592265 7.4481417200364595 1.880676076751598 -1.3484055398546906 -0.8485036382130291 -0.2613014713918016
Ni 5.821576493447342 8.404772345116358 8.151031614444907 -0.23583572302052933 -0.8233726474733561 -0.6415403752524759
Ni 6.746069020147809 1.1121724250474003 5.179378866468786 0.6824381419081021 -0.18381150743443828 -1.6122565171412233
Ni 0.960340981363727 7.93226534340097 7.137677428952782 -0.7020497454914425 0.21203862060093157 1.2401962924365995
Ni 5.166245121361388 4.735587273978168 7.075863809401556 -0.7829664757421676 -0.5387129609715883 0.5372587450235651
Ni 0.7993335059420723 0.21829262803190277 9.666927448666996 -1.0435405820496415 -0.6328143082333875 0.1585930991872817
Ni 4.944090974382242 0.08602804595563851 10.28282460448601 -0.8503874854993033 2.4661412171605077 0.878239474714565
Ni 8.308687859425515 7.436470130146096 4.863271169284274 -1.1436192299407981 0.7482972064947564 0.1611958269174514
Ni 7.232345566294294 6.232097641788946 7.022940386733852 1.111481725976305 1.1341118046709953 1.0608495056417344
Ni 2.3518070401612308 5.673766892747868 2.8812125845234657 0.2040121507520293 -0.05772229441213284 1.0210971654444607
Ni 3.7992124457959098 4.4867368845025375 9.838812222893068 -0.6472999034440724 1.3826724314573609 1.0133028662110226
Ni 1.153114603399077 3.5388645325271817 3.7567531439859567 0.6099078359488592 0.2596276832338045 0.35782428361089985
Ni 0.2771251366331103 0.12495838667786145 0.5901619414069091 0.9807817536548656 1.3584045600489314 -0.2795560467266153
Ni 2.145373810177268 5.428700150544389 6.923354424075899 0.5949077629956012 0.7781798529868017 1.3057216278329191
Ni 5.457476024834524 3.4132987467835973 4.796054171618968 0.6432874398505696 0.10170512775098614 0.7498889764619086
Ni 4.344579851277439 7.157139850901832 6.339798749128912 1.4399962048794943 -1.6785678387739476 -0.2750013374763974
Ni 0.9063035356735214 7.888748819084464 2.710346555035076 -0.2170533002067036 0.08562004926366544 0.4689777012589794
P 0.27061506459536105 6.098405717715099 8.017147301526714 -0.6319380762760214 -1.6440680052248655 0.7189074404787297
P 8.927501996579764 1.709668045973333 8.553906680429762 -0.7279610660405657 0.3368127143562393 0.17214255573694223
P 1.95553182767482 3.55093922285332 10.760720326117811 -0.006573539452459647 -0.02528448559840162 -0.8264068063139897
P 4.198245231717956 6.510356040328993 4.117779971775998 -1.382029141446407 -1.8701317364602952 -1.0224961026745165
P 6.954068845007165 4.133804130235366 10.61263588421213 -0.0748034182641357 0.22928403794494062 -0.8375183428461188
P 6.433290566107847 7.825544503029818 10.379111556532095 1.0960445654856286 0.3272631229945912 -0.3637738163261154
P 2.7515818973400425 8.428298752367892 6.105738481096769 -1.736244881770442 2.5432102915303685 0.0326344982055696
P 7.02818435694833 4.155828072226289 1.3013740275393806 -0.8549321674471921 0.07983943802614636 1.1257852870831708
Ni 2.8559757488319546 1.8496629950429169 0.5910964015080215 -1.2924799323316642 0.9066877027529288 -1.2930998253038504
Ni 0.8167071347239294 3.579971615602584 8.498033295482077 1.7231610520032905 0.44038472011263513 -0.4825261293673755
Ni 8.052251852658502 8.903746554989723 11.946294592107586 -0.6096646095898016 0.3799774226691714 -0.46761141703907205
Ni 2.8826170230871964 1.4316295203982532 9.860105087275475 0.5246832223513996 2.1230051316894016 -2.347095541248545
Ni 6.172246388450055 2.389332026182369 2.7258063728843607 1.8901125504575964 -0.450351858627676 1.200933490281235
Ni 4.313422019866821 7.0335071149752535 10.668187704948549 -0.9451514060457659 -0.8013892012237295 -0.14158576599600778
Ni 7.288742981808485 6.2875697585755645 11.458691479072463 0.6180263512909356 -0.369687353597073 1.0171399805689254
Ni 7.693877242508383 4.151274869576751 8.398178904579392 -0.16599299119577865 -0.391571555264674 0.31596569570390104
Ni 3.121289126559534 8.638616404732948 12.867680497040531 0.8784742164331905 -0.3331105829143038 0.15522264005315203
Ni 0.36518059455322094 5.248514255753434 10.48082937081288 -0.5782588415850106 0.3064605844269432 -1.0824102625316456
Ni 8.537099224532696 2.1830728622956728 6.3466505403997155 0.7788683944133941 2.291263007659957 -0.3533099406803141
Ni 3.910724684528648 2.807136466488525 11.526928137612806 -0.009489427547673979 -0.4478733151801964 0.8778715498521847
Ni 0.9254819550428209 3.9557161899851447 12.667730771111051 1.6588824445298784 -1.8232929217298857 1.3350987954434554
Ni 3.3229492809289916 8.333093758536918 8.27941910323891 0.31113690685669 0.47747185477291965 0.016903974844190244
Ni 5.668096002526411 7.99786077794964 3.885489681111845 1.2947671857039444 0.7730569299379396 0.6043758503870366
Ni 3.3111585931826037 8.726318233634403 4.027567010387142 -0.4167498543025145 0.09929240454443544 -0.4642887804237424
Ni 3.3400535653287635 3.1347655070373404 8.027310929332343 -0.1023461037690947 -0.43224794993811366 -1.3133230943292609
Ni 6.045819433593681 5.768275622189778 9.256798407112917 0.06495300783261718 0.2897299019358236 0.25120423505679956
Ni 7.899449303379555 0.14348818080050657 2.55849404019226 -0.3857492921559421 -0.07262646521747493 0.6476153778019621
Ni 4.416652376919113 0.841954047926335 1.9754614796744254 0.5551225126778633 -1.1681485825407303 0.4649716654233798
Ni 6.155297847400468 6.0680724099231105 0.4718657055675662 0.012147691106127467 -0.5486834419207389 1.1241914602334897
Ni 8.375950663958522 7.310482921219657 0.6959492378143033 -0.9413070925990112 -0.6574310783408032 -0.29478777607470524
Ni 0.06384103151569885 5.199528391433359 5.650315608759365 -0.2962286222862899 -0.9077966195463913 0.6499530247962032
Ni 7.400236897794142 6.384194765305288 2.8319088205415417 -0.6419766914589459 0.1713195456150146 -0.7487528059749363
P 8.679769294676053 1.8573310646961623 3.973690804871247 -0.8414341329607572 -0.9401338982265165 0.1763787053054769
P 1.507119238370465 3.4475073155831413 1.5827509576325518 2.5258527740885275 -0.6413025482100569 -0.2631030433769146
P 4.437851795291406 1.1535635107025524 8.300778845648159 0.7248338332654936 0.8087924356663362 0.2712698954584231
P 8.680383106703253 1.7911034953732108 12.627679994404847 -0.5265868671320156 -0.14576278019183284 -0.21761688601965745
P 5.995340265386534 8.330290378233581 1.7362387776523145 2.807925416589409 0.3873220359597007 -0.5941801408009574
P 1.8261732332855443 3.393491857189432 6.267995567869324 -0.2276958675222143 -0.1547652408007593 0.27788457256146337
P 7.2214160476606954 4.210695538359247 6.217365236998762 -0.3079983612277083 -1.404531179203665 -0.6445768480859544
P 2.764920857214744 8.725246352930187 10.654068196048213 -0.8736608542049471 -1.4789777283490142 0.7560020313381819
