# total energy = -381169.1461894497 ev
CRYSTAL
PRIMVEC
9.20315934145808 0.00000000000000 0.00000000000000
0.00000000000000 9.20315934145808 0.00000000000000
0.00000000000000 0.00000000000000 13.46975396582398
PRIMCOORD
 96 1
Ni 4.3973892451074414 5.380268272256106 7.768546139659515 0.0024492328714409432 -0.7724203247952052 0.07400380518097578
Ni 4.910483792960325 6.96748197043554 12.15428418485338 -1.2587866538442771 -0.318725003616593 0.2969554731499853
Ni 7.541897169966279 2.778544287762949 3.566265716359196 -0.4051968593575925 1.68444589482128 0.8183296857328101
Ni 4.826845479520682 3.3620890215071704 6.150613215420422 -0.5483661677906363 -1.5088002110270853 0.16780330493164006
Ni 4.320736129720251 1.2083840441173685 1.3450868548569286 0.7127984993675143 -0.3787134683550833 0.02662043080100577
Ni 8.869839459010409 5.6832086731686 8.09578012067617 -0.15522649670789396 1.2329645505748508 0.6218097295927678
Ni 3.064063107762014 1.5794922473678294 12.763979696286723 -0.30232702187454386 1.0399379523000478 -0.48369520997481213
Ni 6.310781321910098 8.786348396122595 2.640354246449902 -0.5134822114292577 1.1627670065138425 -0.7454060009898904
Ni 1.4222654706509643 4.859433867272638 1.5592995951321424 -0.8770428833033025 -1.3495489094305142 0.0032033374286460957
Ni 1.8874299638830665 0.8573792224555473 1.5233621776419948 -0.8404285745143785 -0.6910587936975776 -1.6181111761497873
Ni 7.102575148580405 0.7532206243023943 7.198842957787348 -0.8807529851650381 0.49518829821607624 -1.0245933515231773
Ni 8.139255846104085 3.8451536599461504 12.980155470481026 1.7007793418739805 -0.7108280059047049 1.2793811901661774
Ni 6.949333339922448 0.8582967774566402 9.93822688160696 0.48181059135758963 0.024648908896931745 0.0199144795357399
Ni 0.5988615520824253 2.7394768757304573 2.1420546977921733 -1.6216330732601165 -0.07157102736976706 1.005498025454623
Ni 7.339869412855026 5.339792776821736 11.36215536317766 -1.2043252895716035 0.5993043494014001 1.1050475403151871
Ni 4.1059988093541415 6.972488489197772 4.3253404704127965 0.5511265041445927 -0.23539040795299462 -0.3535182000363783
Ni 1.7933092517849993 2.5531681150270957 10.313332937339617 -0.9142889121389542 -0.14001225086130079 -0.33539552229373853
Ni 7.207592401513918 3.23242570746105 6.113167400089962 -1.8169489817897289 -1.0057319958423 -0.7316773385498883
Ni 8.196306231778859 8.525696513063883 8.750854570919836 -0.4814922887862223 -1.6237907430330678 -0.15108393529443012
Ni 6.162380375143566 2.618492141082839 10.968030058044217 -0.2611587751663502 0.7920113595532553 -0.508966325836775
Ni 2.6190903464496498 2.759604185533769 7.881409086057741 0.1792765956785622 0.328458428854273 -1.1383281567451882
Ni 8.492776811570309 7.603098180570771 3.4369962975392228 0.10266234945793286 -0.11298635709176026 -0.7996524210382809
Ni 7.323819102705517 0.9896985683303073 12.425686278511659 1.4299200515904147 -0.7160563441831796 0.14199817094307804
Ni 3.1555333099271348 1.465731992919388 5.125174177213039 -0.3562705659705348 0.43380346735069164 2.690748675565385
P 8.491147852340683 1.498476834382664 8.621316419842772 1.1670304097758868 0.5513062242555666 0.43097731075580614
Ni 4.597972106178858 7.29950435533453 1.9662071684804103 -1.1681308419289174 0.8410875482546161 -1.4606815011429877
P 2.480306701349537 4.615154404945563 9.391651239531651 0.689892027082986 -0.8953841048146515 1.3204121399655584
Ni 9.129285728176011 4.415685126172364 6.032887319547999 1.3133958565487251 0.5994275052428257 -0.44699914010535924
P 5.165208841307868 3.741139551396981 3.5847861545156596 -1.2095454003199622 0.40043029120688456 3.2841759973607183
P 3.215556316116985 6.932684824406128 6.774424532878603 0.6157126155560944 -0.9874473386004995 1.0112040747004651
P 5.352667996947403 1.563828469916875 12.810342452846461 -1.5789900417786096 0.7062797244123901 0.9132111056937435
Ni 1.0921941555637262 0.2151210921168175 9.42035589397908 -0.699687158796537 0.8719312731083501 -0.08047347206571946
Ni 8.59354220481972 2.364291672826193 11.110795910255392 1.0873863755899984 0.41397383421927414 -0.9889524623911162
Ni 2.9990335828099317 5.426854665591435 11.793901343671862 0.6317843243069765 0.47875920612577544 -1.635815792518402
Ni 6.717045594410058 6.508419171944907 2.31869738008382 0.4310770695584641 -1.331532932469068 1.8608048026324144
Ni 7.77904418368907 5.153051467622373 4.245275743802885 -0.626974561623159 -0.3133660532975248 -1.5320442691566905
Ni 6.012488516539749 4.090169375032378 1.8367895787926574 1.4880005006729147 1.435946717400469 -1.6994873625354343
Ni 0.661009567798377 0.20314870193706042 11.768295393024513 -0.1369804060135125 0.2664454774865863 0.7701199587968027
Ni 5.622670290047344 5.343354399544133 5.326250327633088 0.6025557664591623 0.35451013163600237 -0.8110308380785517
Ni 5.1541098309636535 4.623234778977254 10.127665636852665 0.3614243422573324 1.3961928345412986 -0.5243024419732132
Ni 5.491129531465386 8.82964005836072 8.675828574130371 -0.15768755665387682 0.2721057610961572 0.5637966434130934
Ni 1.8507001543608814 3.6841443846791426 12.697896409573104 -0.06011419168307711 -0.7387139336816955 0.19960682259548201
Ni 7.700835734348171 4.169491406671494 9.535293232526216 -0.9339889616710431 -1.0152304222510387 -0.5486549026756485
Ni 1.2464299054465373 8.036944322060455 0.22647134871509134 -0.5698006835153283 0.596774898111327 -0.31707461249736363
Ni 0.5233072939382684 4.7548859754730834 10.82585688930416 1.2407372525417342 -2.4159656247473813 -1.8104361203718757
Ni 3.7178831673672734 9.28736839872539 3.3542378061467653 -0.963916859578727 -2.0748668814212783 -1.085684562407543
Ni 3.046834793197862 8.710173845028853 8.396398564449491 0.42856792998336507 -0.5833871639505114 -2.2981173115776294
Ni 1.8838407316822015 6.70128058220472 9.877195209137074 -0.017584031630350362 -0.4529512439237361 -0.9498246431517191
Ni 5.320374110299108 1.6506142639018926 3.899790056886856 -0.1395129426273791 0.98843618487633 -0.5602523777052609
Ni 2.86848676545283 8.5933857511084 10.629939109777917 0.1940146732196852 0.6535474270156809 1.7582488968453591
Ni 8.248948304058214 8.736706553836786 1.0787060050160655 -0.5584351219908641 0.7897246204016077 -0.33160365935147407
Ni 2.7939779862266683 2.1852165954814984 3.0159591134268826 1.2062227637046323 1.9093634282674086 0.1839297781798574
Ni 5.034008599627017 0.13455203236688792 11.220197548369654 -1.1513147988128432 1.0708978910166718 0.5543421828684131
Ni 2.43397799647991 8.233146479214916 5.434412300164128 -0.7434290797691776 1.1497438547812973 -1.1357138590507925
Ni 1.1910544947988333 0.5129012815036067 7.009956392111007 0.8549910457095857 4.124205279554149 -0.7388761702911726
Ni 0.15357772397931918 3.3834863673200193 8.07269307478107 0.8319351923313866 -1.22694097008859 0.5521027520149331
P 4.843898934054535 5.511910265592446 0.22403435208229888 -0.4765316023468373 -0.32643368511476034 0.9210717393887428
Ni 7.835165050255416 6.724316090406681 6.086968765971494 -1.5883588845880194 -0.2853587694513215 0.78948936446235
P 8.58269167978172 7.5027469294983815 12.536691107008975 -0.21197408591158332 0.8284127810004248 -1.0645907178517213
Ni 5.477159135360481 7.519303413419808 6.854502143911799 0.37530958487985683 -2.377845420836892 0.748204389670634
P 0.5955456537183954 2.2496387119072803 0.10333031379910723 -0.19918130502228923 -1.0850011631872734 -1.7561763305870468
P 1.5486064441214118 2.8773217985626514 5.763277081042306 2.197021535275868 0.7994138226649135 0.4702262289540998
P 8.22333591119922 4.663378960670006 1.7358069909792955 -0.03907614006585529 -0.9236559551761512 0.6816125606830132
Ni 7.064023113479319 0.26793250253077555 4.7584733670420505 2.847816339247076 1.4898396107641825 0.6279811485108023
Ni 9.0615044585366 6.561162478978645 1.2120018061126507 -0.8751726628637831 -0.13698451977857054 2.183379519012401
Ni 8.982559756436547 1.9249144324833822 5.744136349936258 -1.520514157029904 -1.3160718607189914 -0.2693505669485232
Ni 0.8706584612827988 0.7070907076777389 3.99954678385623 0.3616462284601514 0.541397706892603 -1.2033778380566695
Ni 6.856372225920045 5.0198173276943665 7.388442768324118 -1.4288317036222424 -0.7080756399705483 0.16210625454686275
Ni 6.894399680930235 6.525546251754676 0.1580108859053619 -0.13156463431457988 -0.2547909239667934 -2.021143423755893
Ni 3.830713902707286 3.1006640730513477 11.071746904541879 0.1619764138372178 0.5240751564537555 1.5157727856901768
Ni 6.728586356409762 1.9040968857183653 1.3148213445600963 0.033866827950773934 -0.7556063385616599 -0.4908446765353999
Ni 1.7301663745282436 4.037877022813621 3.856632760777276 -0.9791976969971975 -0.3817286010323232 0.637028089204419
Ni 3.685948203939065 3.5242210822318842 1.1361189951747221 -0.14728333060141732 -2.418419742714829 -2.9551763512909943
Ni 3.2200290516288317 8.606389815466919 12.91780406494036 1.4087953537966578 -0.9531567928487455 0.4568714049137486
Ni 1.8122585571736687 5.265744155570045 7.48524988267714 1.0006052161386962 0.02941804815080095 -0.4946702209290771
Ni 3.9142693877115247 1.4892644717337773 9.485979943034177 -0.4449962507427175 -1.3242235432918483 0.11099966567903465
Ni 2.762024616479481 6.267526472309931 0.4845693550154968 0.5828932550332284 1.2780097637399475 -0.7380837562968644
Ni 5.4829571258388015 2.8070648790205914 8.503779188739882 0.9082473339305648 0.35933017873246503 -0.9320014989273689
Ni 4.3457135045744755 6.961564338883857 9.67132421262305 -0.07505847169773525 -0.361851402492422 0.20425254889760955
Ni 8.846675106575596 6.685635211072745 10.216525822986593 -1.1232707481914332 2.303628985424478 0.4900075253460851
Ni 6.627029491444262 6.4638942863352025 9.122997209296907 -0.012377547728746425 -0.4332617359146087 -1.0186561601031359
Ni -0.02342296121646533 8.3514715007701 5.427313903249956 1.0314659102732948 1.228472576241768 1.255547320971373
Ni 5.905768679100698 3.725862306644581 12.932970871778886 -1.6236020240610298 0.6549306805164526 0.1107816361309576
Ni 0.5987143015305949 5.676987337353767 12.767319522865426 0.3177814087564011 1.0588810690614539 0.1995919101971466
Ni 3.2389875601769904 5.017111598804485 5.398488687413215 -0.46896587418443747 0.1618314036189213 0.3431000900268478
Ni 6.468560288196327 7.7489958679561886 10.853227085625626 2.9960612624308145 0.5082957821323116 0.3603727610643665
Ni 5.88221779396733 8.79590127567259 0.1946081699308996 -0.7937777074250588 -0.7271151731005027 0.13119825211409664
Ni 4.940789797158911 -0.23352741109561231 5.327530487118063 -1.7044732457858 1.9151173000320498 0.49656306707641573
P 6.300206891656781 7.528055618094225 4.481360712920601 0.28773241188982057 -2.2383016249715775 -0.13211330772919827
Ni 0.8456074611526591 7.7867288218627175 7.524245510065614 0.4882620034098881 -4.231008647763649 1.291937429564633
P 4.4221641504528995 1.0144642705162759 7.145179334804672 0.35384961523386804 0.9314379131144153 0.8322177565688119
Ni 1.965969726965584 6.2947218086011 3.4534561482860098 -0.8771593542765086 1.6788956544270117 0.1401534044248554
P 2.2638115775209524 8.054025386072777 2.1602925989523123 0.7500406715484245 -0.9254780959865545 -0.07297973479183562
P 8.099673057140187 0.9943921796699001 2.771537002127722 1.1372868599648671 -1.6880089295821898 -0.01163681290797996
P 0.3676505762302943 6.175651331127276 4.88772898112279 0.5975251460137903 0.7452813024865681 -0.5844965949646064
Ni 3.6058347005838605 5.197769619581355 2.3180099040699624 1.7314526025881212 0.8225100423627447 3.777037190105515
