# total energy = -340861.2240668832 ev
CRYSTAL
PRIMVEC
9.37616334661677 0.00000000000000 0.00000000000000
0.00000000000000 9.37616334661677 0.00000000000000
0.00000000000000 0.00000000000000 13.72296281489213
PRIMCOORD
 96 1
Ni 1.2388255884486898 4.598464327341173 1.7179503507374665 -0.9134214219323366 1.3098914429398925 0.29156489826203336
Ni 4.97082928037543 3.8724398672439357 11.740392997675762 0.4326708964081452 -0.011310025696180523 -0.8269109996439178
Ni 0.8765859542637474 1.7535019494789679 11.821591510285218 -0.8457157910552467 1.0966024948716275 -1.12134499192363
Ni 9.661011238037927 7.235107106912721 7.423834274175014 -0.3522583594873482 0.09966187206871224 0.970956797144644
Ni 7.051503075328976 5.143922632794361 12.102102878628937 0.2090566551544722 -0.9445757360479538 2.53664600804929
Ni 7.257319237993401 7.384113095572146 9.62779711683058 -0.3828552584375987 3.207981869396643 -0.9533442262692032
Ni 6.847205851134398 2.729429292519803 10.60609381636111 -0.260874411156712 1.160320344745563 0.3815789628283364
Ni 6.378116396526353 1.990793892657469 4.864680796974207 -0.4137275225364229 1.7721649927058187 0.6247968372455498
Ni 3.4196274322880904 6.761713993306772 1.5994112674109089 0.07298050612278398 -0.02257171465292887 -1.0148774097869941
Ni 5.492997195957614 8.574013863430295 10.660683714874382 -0.030795388114301804 -1.4645384129952326 -0.04941685987023102
Ni 1.5782427033159943 2.231095584285484 1.1567466540965248 0.7959420620662293 -0.8847621063244312 1.7322473305752746
Ni 4.375452281011923 4.7643661624368105 9.516627697931805 0.6536566989000355 -0.9609634333773578 -0.17451594106512522
Ni 3.346043301971002 6.835335628277437 10.172297178384891 3.245675270182358 2.5442783277835668 1.3880743191992222
Ni 8.492197461653165 1.1392694855298768 4.250344257611442 0.18858476045336553 1.2792832311357323 -0.8719091616211628
Ni 6.715255103688885 1.5426976678888686 0.4476508570073796 -0.10403429010479504 -0.09434148829706333 -2.083423769852354
Ni 0.0688594815827892 1.9936067416757064 6.738633629495795 -0.03135306038998471 0.6569754788606234 0.7446105016717885
Ni 9.08029855822283 2.9376082483595476 0.10265961300226836 -1.821031893609851 -0.006459639582414682 -0.31165858368811483
Ni 8.818366057644571 6.4067511995320094 10.874460240260419 1.6780109378292134 -0.05491824930443445 0.8971599657681518
Ni 7.219805208253509 6.05411369427899 0.7640494907421085 1.0584640361286932 0.054921077517911865 -1.9443461149901804
Ni 5.688143284679525 6.753162932291331 4.500733763435195 -2.0303389742122326 1.2427913068572853 0.9507037033225628
Ni 7.034091539906087 1.590966157041821 7.311196548088719 3.0814925927224417 -1.3421335908030498 -0.5108815405816168
Ni 2.035040007714342 2.2797953769545662 5.173831656405278 -0.6214649446588394 0.5373603035984359 -0.35787416301222885
Ni 8.420629206465813 3.701943712085177 2.453377227486331 0.5276623595843816 1.073685738174454 -1.0102211419619054
Ni 3.2739781101237617 6.439708413862357 3.9528442188139103 0.008996032851023216 -0.7222992397690979 -0.051089619586963626
P 8.878270365569632 6.4057385738854435 2.0471371337254416 0.893351647765655 -0.8041402816063054 1.1121299010832653
P 7.4318658957384205 3.7822974323728236 5.73284976935905 -1.1853621182055392 -0.4167498543025145 1.524342786747375
P 1.3516864672237658 3.6102167056004575 7.339521000086029 -0.9951555058780346 -0.43078370668776134 1.0376725533046387
P 4.543885680223974 2.4717348177956873 9.249084501178501 -0.2102463045871992 -0.3060291533164794 0.09837246383332736
P 9.135683555391925 0.002490308997479448 8.16053818437816 -0.21200519625983488 1.3959164409514606 1.321769168214085
P 8.118744873665188 0.859205360180059 1.9443650067624438 0.03597358988113159 2.1956303113552957 1.1852582456378233
P 3.7725931032599047 3.154882082691593 13.569965636003943 1.3871664626729723 -0.29746969378224253 0.935268342604099
P 2.0049143947290204 4.597517334838366 3.969654742163236 -0.4321314789649074 -1.1687494493495225 -0.5198166382877176
Ni 7.307312941210872 3.729443999320144 8.034465353764423 1.2725479692944277 1.4359860552788366 0.5191365815015575
Ni 2.6693093328366775 8.262462706170329 8.350779602028604 1.3270013631473017 0.6761438242589581 -2.7123377145900704
Ni 5.752698169648072 4.948317112066137 2.003470465566325 0.17693226381610175 -2.2706630720214185 1.682219576593922
Ni -0.07058000756561103 5.455951974387427 13.1312558884092 0.9483863680432957 -1.1063048097610562 0.4823541225658854
Ni 6.382879487530569 7.945782787533775 12.73256266856424 0.9568165010885199 0.04863370184730334 0.7488548787704393
Ni 6.566061591761578 2.443240657240943 2.556588158896174 -0.8711074916554739 -0.5663142676286246 0.3523354925821867
Ni 7.3010309117368095 5.230633391863224 4.175883456017003 0.9477937287646193 -0.832959776941159 -0.9137775197201747
Ni 5.8905465238684895 7.122236851974251 2.2728935830801515 -0.32270070043488935 1.270326536163077 0.11054020954411284
Ni 6.7515127275339655 0.738166591692628 9.50912114151847 0.6306039308456302 -0.6373134816553218 -0.2237091149603244
Ni 1.1302121116911525 7.5111413572357435 0.8115922648483557 -0.3575861994581648 -1.2486500796309077 0.447978473299493
Ni 8.055286999813754 8.341860057791774 1.3010673739079062 -0.907062055373212 -1.535908122987471 -1.1489846080177697
Ni 0.07666701284107662 4.822376485356258 9.238298162809901 0.36063655624871443 -0.9936712080230242 -0.675577924453159
Ni 2.4226881070810227 5.625763669618415 8.639744519288465 -2.1984104452035944 0.5235316252454597 -1.9112310776037662
Ni 2.114240459904511 3.310985827040371 9.649534814043518 0.0005867257414054411 -0.9824514280478048 -0.6240645870652155
Ni 4.363882095383573 8.039610054618779 6.052745712039787 -0.08002070079901702 0.7515367964779767 0.5082201916993698
Ni 6.668036744836075 7.876924243567325 7.20450049674528 -0.9582347215922853 -0.001893103257654804 1.8035283375084488
Ni 4.6687949289605 0.4630999614318784 12.57783628261806 0.599692071758122 0.683473782261468 0.2613420948217499
Ni 9.515680705428998 5.078580150100708 6.1549271407089545 -0.2472416508646258 0.9435951173022393 0.6934990277079541
Ni 6.727941052761136 5.308924356204163 9.959056031928657 -1.2822698245678819 -2.3607912935680826 -0.5425025099210076
Ni 9.105342290648537 8.915221825505876 10.872359979660136 -1.3172612530414023 0.5432566144782128 0.04840255967310374
Ni 4.953699029854365 0.8947672727012941 7.3793453164862335 -1.063236517816672 -2.0746334252542336 0.5972549230715392
Ni 0.26312608617833205 0.006928047131918539 13.32292435812823 -0.16861165976554832 0.7518296451280472 0.1750504734123566
Ni 6.72747224459143 9.132345641223615 3.5724307671221363 -1.6588071112072529 -0.3395645660697636 -1.4652562649978635
Ni 8.552701844035449 9.27746052207448 6.175799418040615 0.4898496596119821 -1.1508013495115343 0.37232530544055237
P 2.414971524607658 0.4415216589966405 12.45674500761562 0.16675018107677733 -1.3271504871306563 -1.104707640477265
P 6.581194719479694 0.08947485203745059 5.653942791083117 -2.0394329660937007 -0.9381448928209455 0.6692059594885443
P 0.4624867603459027 7.17193051796311 5.219227289094271 1.3152699336429865 -0.057221443516314356 0.604954605708642
P 1.2192575354451523 7.7511805162887235 9.64581529002507 -1.4056879185159277 -1.2548464382496065 1.2601575660498747
P 8.822529074191563 3.926277797452998 11.247697176490332 0.21713583261818087 -0.3771049862173828 -0.24237378124936326
P 2.1755511923386908 5.935167685461127 13.348051538408143 0.9943219542331456 -0.06480542651115936 -0.14199714250181353
P 5.297607326987454 6.373475195646263 11.59752277034145 -1.163965140587002 -0.29277537363036676 -0.6417370646443141
P 4.729861881146432 7.554524865260357 8.445605430515082 0.7231808710431029 0.24272319416898197 0.10449786000477486
Ni 9.144525277472583 3.4152300116562464 4.684140895587663 1.574611967315572 -0.4152568146967558 -1.4593401566237447
Ni 5.081327365975186 5.7877837730688855 7.141938046497984 0.25946724639654023 0.3203327144233451 0.10701625555125441
Ni 3.6112668359005995 0.3128056879221003 10.17963871432249 -0.14925870916023326 0.9422188057800032 -0.09058176414431496
Ni 3.305782056356632 2.259749139617928 11.690633698543145 -0.5469366344329613 0.40195289849899807 -1.3813089754509307
Ni 2.1523076832846564 8.47863952938526 2.9943509139881104 -1.109987657929282 0.2017174411805816 -0.11622337597181918
Ni 2.6408433007721155 6.368280801125917 6.230856249490913 -1.0194303192649992 -0.024065782699952104 0.10612356853365593
Ni 2.033821106473106 5.217741167196303 10.877012431936299 -1.4276754785306123 -0.707789219078381 2.5368522105228246
Ni 1.4470608012687993 9.276944833087803 6.238294359911473 0.6887496859484267 -0.6881781297156729 0.02159161012784669
Ni 5.436993372004508 3.1078043662896944 7.0470840895213245 -1.9023340322244529 1.3638043909082642 -0.4221216601373891
Ni 1.4442291999237737 0.6741133314656669 9.468089175273102 -1.074811367138465 0.25724787014771827 0.24915249473409348
Ni 2.755241870343828 1.7135219887664215 7.8454587768329835 -0.06703457295199422 0.36525631440891293 -0.6188611884874052
Ni 2.54650972086383 0.08962487065175657 0.7570501847683945 1.1025270878861786 -0.425682380905454 1.1304518393209049
Ni 3.550471792453097 4.197417690484288 1.8914356267862718 -0.3058653740451055 -0.37419552588007166 0.9141207619922063
Ni 7.663513388553659 7.356969102546155 5.259352580339427 0.8355198243588514 -1.1359683982637598 -0.17719503055918517
Ni 5.321000854655795 8.97649505328648 0.9821399889057819 -0.7730479310768751 0.09203726564391891 1.0036918254838199
Ni 1.833518127884426 3.7038564494175787 13.1269475413296 -0.7195317043262898 1.3550628972702083 -0.9972810368614694
Ni 4.160288083443556 2.0753762626358654 4.071424557259402 -0.014488166313846015 0.12315712697717499 -0.14331920374734672
Ni 4.2888259074136075 1.8716978652253005 1.5586399585078983 -0.14660301670494105 -0.32807841980703495 -0.5361534277745283
Ni 4.772429662955757 5.167353665116279 -0.08085534502923199 -0.10680851041582251 1.2978319406721972 -0.12059270868410843
Ni 9.03635248039457 8.277183282699102 3.549938288755971 1.2182372716670051 -0.7008773224498962 -0.9084018572305582
Ni 3.7814535776673526 7.631006230066229 12.982609006807769 0.35756820173603576 -0.7859517836227368 -0.05051343536851946
Ni 3.282229133910591 4.17116443298074 7.194826171355222 1.4960123152337979 -0.5710882919785003 -0.873960901943869
Ni 8.862105859878161 2.0933784963525843 9.522720328905308 0.35889334830536257 0.21203193573271226 -0.2719697497389251
Ni 1.6973387307481627 7.606637581404901 11.760400792742486 -0.9521808020887214 0.5222776982337005 1.0988588950059721
P 7.807568762940988 5.867134243873361 8.222661830178609 0.3778194957859042 0.7049100977583731 -1.8053959868448066
P 3.368414827829383 0.68098605923356 5.880454021591054 1.1529754743447176 0.7274884972795213 -0.4824731646422529
P 4.230159253056571 8.460477900890842 3.171815433781382 1.6725411729638937 -0.5517988476212691 -0.49871070954703783
P 1.0336563810584591 0.9384508179545198 3.474695515134462 1.7101173314454547 0.5243911450322775 -0.4490665641573492
P 6.862901548656163 3.7947208488700386 0.3535254279264433 0.32136012724659496 0.3910287953873265 0.4979997995229423
P 4.984134056231692 4.806043208723692 4.088921415769177 -0.2169972501577876 -0.842977309078161 -0.2158641649946089
P 8.662862387753018 7.456703352569456 12.897307485097043 -0.6884151854271435 0.9294368235239865 -0.45825542974546885
P 7.133206963145376 0.750079007284863 11.938730732417033 -0.4177772671257644 -0.33201375030569913 -0.6133916807324016
