# total energy = -381165.90169683023 ev
CRYSTAL
PRIMVEC
9.27654154667952 0.00000000000000 0.00000000000000

0.00000000000000 9.27654154667952 0.00000000000000

0.00000000000000 0.00000000000000 13.57715624075083

PRIMCOORD
 96 1
Ni 6.810781147666847 3.7622684038509546 6.3640748551920945 1.147181750481076 0.3279791752250093 2.310414126667111
Ni 4.577435216124109 2.821933216426997 -0.06403040040323899 -0.1528654526748851 0.36093788953921707 1.016696465273604
Ni 8.20159446936029 3.7342161422000224 0.4036390206689926 1.0255937677632339 -2.8711529570904877 -1.2476578909209675
Ni 8.914793536902277 6.352575654285184 0.5853265805290003 -0.8088042627408781 0.6120130552173202 -0.1585455337787979
Ni 7.25696424319811 5.614385583804172 4.735318242709495 1.1916528363102574 0.932323401043162 -0.4109666719618342
Ni 8.654939054969105 1.0544644781287922 9.269056309856515 -0.47842676248702126 -0.3225567186578574 -1.1988820070688448
Ni 0.47777250247568076 7.280164873617746 5.073023316648935 -0.7145751316519628 -0.9836259079718802 -0.008936383257681384
Ni 4.783207460813586 9.166419726479505 7.780524827116528 -0.6648497394023776 0.7244731074919653 -0.39001449519019926
Ni 2.0152915458394265 3.0912683238255307 10.425070160692513 -1.467246555955015 1.4434422544465655 1.7144612102364474
Ni -0.0639320690627959 4.118932873412808 9.4852590978662 1.614341681805026 -2.5191434803891517 0.7767870864043332
Ni 5.873989599115461 7.363579535246444 3.5400803912324137 -0.26915979109395577 3.195341040704181 1.9522322026064765
Ni 3.9703876135528944 5.610155480856808 2.3125425497280894 -1.1814213883902365 -1.2062803564154452 -2.843448806307
Ni 0.3883633396965752 4.986614187407499 4.1139866214576895 1.0630552550438015 0.3519156314359488 -0.39749332006574767
Ni 8.711609447305595 7.55647594026281 7.2249750173128335 -0.3268754006378693 0.7129910749942946 -0.6300632278508116
Ni 2.987306122660849 4.1131164818601835 4.153591887956528 -0.20188353444480067 -1.227198080404719 -0.2651833229447111
Ni 2.6452614825837415 6.364171331224228 4.052021179203755 -0.7132253024922878 0.0792506554022119 1.2219203769455471
Ni 4.632686297603261 0.540708270975874 5.3852568627969974 1.313529553913112 1.6356610121080928 -0.13126330102407716
Ni 5.201700079814415 5.3761732733100285 4.048246554446558 -1.4581556493973404 -1.279492261822745 1.70698829889817
Ni 1.293335423073073 5.94816482535913 10.81425911258715 -0.8059637079682893 -1.2368255761921538 0.06770743064930275
Ni 1.8538797228479513 8.571672818005226 3.801685356556304 1.0322372412216803 0.8085330113573623 0.3778716891800783
Ni 0.524383413154012 0.4193980094562292 5.422064324363984 -0.4758965398659997 0.9954390985567243 0.24615793088214383
Ni 2.510733077007743 7.5631736032628005 0.4087865735757724 0.37078367198504536 0.5108087783621525 -1.3252710107197565
Ni 6.2312292142534895 6.244272031674525 1.8664243899876853 1.1896810572958674 -1.2528142383109262 -3.065487732653753
Ni 4.311606641431942 7.7197430715645305 5.225562127646655 0.17208162059201976 -2.1106774633619843 -0.21832162539616595
P 8.195230761856143 7.064670813382576 3.072157720575833 0.4794284642786582 -1.7502967318778178 -0.5248457160711929
Ni 2.3442840919539476 8.368878343153696 6.270080297924214 0.42932434853341545 -1.726366960535098 -0.6313356668053319
P 6.795038856654402 1.038722187116348 7.679837245119431 0.12310853312742667 -0.9993245496540597 0.8733932023658572
Ni 0.12949959240107442 7.84840870288015 12.212842465483904 0.12681452122410417 0.15563144545579646 1.56101545957806
P 7.350731525197985 1.6325136118108494 13.485809386272933 1.6808610056834987 0.9253819367283224 -0.045563033341779594
P 7.522570180893047 4.649764410599082 8.4606047860123 -0.44496436906351755 -0.047914821403407803 -1.6681818675539333
P 0.42041750137270983 4.348091279352946 12.365666993961403 0.49967230212935876 0.4123751222735866 -0.43148947450553427
Ni 7.957918275892469 3.32749545442771 4.455357784618178 1.066513903016363 0.2680768424424222 -0.3356279500195188
Ni 4.034664769961396 1.9685192233381037 2.270073614852384 0.19696475698694466 1.4547810764981526 0.7725061996407921
Ni 5.829666283583664 3.773845527706895 1.8395279854140367 -0.09941890281997072 -0.3644029652696821 0.6336560874083925
Ni 6.535629648715689 8.176993081166415 6.511467968591345 -0.47641795958710853 1.7916572971024758 -0.4891883718788994
Ni 0.8329350999603887 2.53664245756034 3.512234068803919 -0.2074278613017976 -0.3762881467430423 -0.787007735691077
Ni 3.65633029933586 7.839790795779052 2.5488670840165564 -0.7398220791442097 -0.13830221014872957 0.049866288702823794
Ni 5.571314601381792 0.6459673326494184 13.119239425642672 0.028627691039021665 -0.37018460494846567 0.8985650736457944
Ni 5.870714979947875 2.5466611224356734 11.567927092646396 0.2723240477545504 0.3514199227464528 -0.375203912539928
Ni 1.0333881757243881 3.0859064828089173 5.728853468275626 0.5425678159413043 0.1228110564916659 0.546739945041123
Ni -0.2364581164868048 0.028178422616029028 2.929407516222976 2.2079932037960233 1.3910316020553333 -0.736159542690958
Ni 1.1602077752713111 7.021358640879863 2.128341047107697 -0.24323818613218753 -0.6797701081576357 2.6216677616073234
Ni 7.343069101876666 1.4196911955424343 5.645924897424212 -1.4878367214015409 -1.3401191314761822 -1.650957790366163
Ni 3.1360925726010946 -0.024093961371020604 9.859581464270828 -2.1991509229140447 0.7568566660289934 -1.0032331406798465
Ni 5.059991631077762 2.243865529661837 7.307591896368126 0.030091934289373984 0.7043061456257871 -1.452386351013731
Ni 7.25733530486016 4.595431706733503 10.6890916650905 0.19937748019349533 1.8116612510282284 1.7201083812198954
Ni 5.47322445101904 5.213731754206367 9.310901861139978 -0.08345209507806917 -0.16638585575882311 -1.942841505420196
Ni 3.5865892599536813 1.8170982355973075 11.619696688081369 -0.10292691597322919 -1.16141434914069 -0.09981151027269906
Ni 5.433066302643748 6.0323401633950295 11.459744065075903 0.9372753457317987 -0.019029248717309166 1.0983886402377727
Ni 8.609159322413765 2.3027344623459696 7.191887448907892 0.7907849433453219 0.8116728425379247 1.2371004271200954
Ni 3.0809899157867635 4.9548791387607265 8.566262738972547 -0.08886735255636953 0.005803494055654521 2.0424720100303406
Ni 6.53549050059242 7.875978584370418 9.188407912918395 0.07782343603738211 0.1615231283498831 -0.4988832305691602
Ni 7.226620675784022 0.3608927172009054 11.09590419062417 0.07236472691565601 -0.666524041781007 1.0405835563038468
Ni 7.050375662852124 7.7145760379204935 13.00589771331554 0.36759678961663145 -0.059960696824348354 -1.9079917447308625
Ni 5.213648265332405 0.6437437456395876 9.84869265979799 1.9445479465883413 0.936647996560445 0.8439854386277011
Ni 7.415286977853024 8.630922088892959 1.459503328917866 -0.07747736555187301 -0.05101685736749923 -0.13736067217106668
P 7.486020607181185 6.943064630187447 10.85742100511673 0.0991147413159906 0.03170812973655829 1.3882805216727574
Ni 4.803087089357882 4.715702067945255 6.64104919455807 -1.8570129396901502 -0.21129120091194578 -0.4710626088124662
P 2.122055262552581 7.1128624467412385 8.518524728495741 0.8179789872616106 0.6605408276143785 -0.3729372279929384
Ni 5.526907796976033 3.1800169968461884 4.630801304360049 -1.4442297833448676 -0.13164845227763777 -0.2730598974793104
P 1.9215149872979997 3.5555963346310078 1.9630395702437895 0.7878852532000237 -0.6626303631535555 0.12380710185634806
P 5.96981627333971 1.358215554682405 3.75576740353185 0.12998289164975677 -1.353094717800244 -1.3566983759911022
P 4.081038201176016 4.095324075164917 10.53128377849168 0.12449127240756626 1.6191414171865148 2.0329676700843313
Ni 4.5561455532640265 6.973872024679095 7.552211514111707 -1.1137682080176368 -1.0251029441697443 -0.42640331823187855
Ni 0.8728873091132442 1.1472391701826856 12.556465972933031 0.15114409910840418 -0.5900758888245967 -0.7223750873123559
Ni 8.907427962910598 5.138610320724472 6.308843254450202 0.3647356660187525 -0.20191618745494905 1.137178102301145
Ni 8.265018183946077 2.55558515540796 10.911267618205025 1.981673390685729 -0.36291841030435557 3.6429333343088484
Ni 2.7713667884312194 1.3346995218500264 4.349238787542834 -0.36299245807540065 0.7573631733517665 0.0070998442695748695
Ni 2.225126915728344 3.20107474616749 13.129055861912187 -0.6733549486599113 -0.37075281874710986 0.10900706072903807
Ni 2.302790121595277 5.430923421545413 6.484667112395674 -1.2077327725912557 1.346442502591049 -1.8509433364573025
Ni 3.293506206183988 5.529199102739188 12.175817005190464 -0.24773658822317335 -0.8198322384202655 0.6567237678611335
Ni 4.824896238544833 8.342050584987527 11.669864224790443 0.3559694897903482 0.5133719111036386 -0.5569562234524925
Ni 3.9427249666471136 2.5630713244398065 9.232723807216951 -0.0334708780639359 -1.1147783944497058 -0.9525510409439466
Ni 7.652404656444122 8.552331228870903 4.419364803399389 -0.9169952553265239 0.46902398111588256 1.9800075729475322
Ni 5.220011972836551 9.210362703807702 2.0591250599773185 1.0957951684789837 1.6874373733494357 0.046656780626590615
Ni 7.98701878673869 4.746973289514465 2.300377293137801 0.7974014202205751 1.176470215032548 2.0850906160318154
Ni 1.00799828149866 9.131836779576505 7.897695895796012 0.1233144784906457 0.4540259650451535 1.3067480122149044
Ni 2.247743124030253 0.6768164715780477 1.6400387423172107 0.2843745511611812 -1.1136818189514175 -0.4321240227657397
Ni 6.740362920751428 2.7869792078619464 9.333588571157676 -1.2778382711590897 -1.1754394597751885 -2.4722792117374452
Ni 1.4945621624024457 2.3909358194151045 8.288066679084274 -1.2338099292942815 0.13906531356699922 0.6044308719946881
Ni 0.3367774197843169 1.9003737491027373 1.2097324476508848 -0.2801705403821626 0.08155847759978212 -0.5777505344900243
Ni 7.152695916162237 5.356673982969334 13.122579908255272 -2.103308938812055 0.545706361570286 -1.2120154591270094
Ni 6.659619903089485 6.099854832804911 7.15841954229935 0.8306362710143049 -1.0648714823169338 0.14775512803151328
Ni 9.174638742293899 8.022724195169392 9.97794735150211 0.14514494410217585 -0.13402440870898208 -1.3447833697210712
Ni 2.4603150736767847 7.765198125165579 11.48941044495675 -0.11324963805547593 0.8605433429863826 1.133057395264552
Ni 7.696932055890046 2.2331325710870593 2.4636703987558666 -1.0276470507478366 -0.9115360319841658 -0.2608386728227701
Ni 2.8239740555682684 1.1999299261936958 6.943004332667364 0.7387617562004953 0.5670107794750171 -0.6618364064973505
Ni 1.6840911828357117 5.2398916013808465 0.6298864478703539 0.16415079578071728 -0.19057505141051695 -0.05051883468515816
P 1.2365629887795198 1.0221171777396387 10.326676667421037 -0.08694288184014703 -0.4628062823409449 0.15943230725912544
Ni 4.120036781857404 7.191750156092934 9.85067505672749 -0.8545310753540314 -1.0091757314165264 -1.224167006887879
P 3.424361101305698 9.473668059197934 13.101019370381893 -0.7447097462538143 -0.589200685308495 0.680776437934963
Ni 4.951836433131922 7.410166326916744 0.23164822969248988 -1.3144883182819553 -0.4830439495440583 0.7202724391470563
P 0.4701898574117019 8.613519296942844 0.8823141306376083 -0.3878133737738224 0.9151402043956561 -1.5711692601826102
P 2.8483342536818097 3.4499086967377965 6.960165934537146 1.143954758903346 -0.4589740530790482 -0.39504974362126155
P 4.990872119979516 4.926409432739989 13.800636653438719 -0.04273353431278447 1.3918217020567965 -0.5324217286462379
Ni 0.31057675582701094 5.957209453371583 8.525123132501133 0.9641752554464362 1.3953186594664615 -0.5659648547090058
