# total energy = -340861.4133971614 ev
CRYSTAL
PRIMVEC
9.29431743286963 0.00000000000000 0.00000000000000

0.00000000000000 9.29431743286963 0.00000000000000

0.00000000000000 0.00000000000000 13.60317304700749

PRIMCOORD
 96 1
Ni 8.259608698279061 0.38840486624071263 9.005626358066257 -0.5448350147089263 1.5110298716885526 0.8817217768362106
Ni 5.572612317966871 0.8999603640557697 9.468787275950262 1.1180524372152874 1.1232668915366912 0.6105056174338582
Ni 2.6198170560037424 5.172027249110466 4.323904080055458 2.862606867292689 0.3452053092953087 -2.6964205291391816
Ni 8.342616244681766 7.449636842231983 8.737195325800467 -0.14709024075400476 -1.7474163250062293 -0.5359156007321093
Ni 6.368735641471118 6.3945924317625 10.895202857632775 0.40232056625106194 -0.31390932739550453 1.0735060180634801
Ni 2.995195936768765 8.2550173056105 10.828438059868898 -0.5427981867845555 1.3052104925244554 -3.0645958169671026
Ni 3.417427470250844 8.04240050665089 12.908717217435635 1.3695392365095123 0.583008440454854 3.5493778322481906
Ni 4.787409817105462 8.3004479278047 1.6021952840781897 0.44273188018857296 -1.1541360703117218 -0.4201833054640957
Ni 3.3228949705910176 2.1166320202075273 9.090442578584957 -1.6076958943537343 0.553432269459634 0.9179177671407933
Ni 1.993138428330612 9.015775752386238 1.488187472277257 1.3790366344769864 0.7633741554325368 -1.605461348596261
Ni 5.409868824795742 8.739130402629607 11.252571210638402 0.31880033693921866 -2.768971403923715 0.4215817284735191
Ni 3.9569718747098492 4.806695525176854 11.453912144040316 0.8092616619932708 0.6411549668885991 -1.62531874964182
Ni 0.9372110577325582 0.9983490758981598 5.710271378601188 -0.32219984953907094 0.11356459819273346 -1.1233972464669686
Ni 0.46259117624314733 4.838017373948225 12.29962157893333 -0.8015966892488453 -1.896265714543186 -1.5739877034680119
Ni 1.7120039233939872 5.545528677812635 6.180030332224894 -2.351370257364499 2.3635117778230392 3.0895954243352337
Ni 0.6252714680577046 6.23826201741993 4.336827828042577 -1.685178659222246 0.6268400929278237 -0.6253437108879553
Ni 8.531142173607133 8.400807964313087 11.391745244967003 -0.42440659951682397 1.3310734763341463 -0.27312340372739413
Ni 5.743386101149413 4.396546603980467 4.827262919582244 -0.8294034270484684 -0.03947620371775137 -0.347457338554279
Ni 6.488530095125183 5.795220507855033 8.620874158462682 0.7512493471445449 -0.6419311829329912 -0.36657554744096865
Ni 0.9076727884208985 3.003374935854464 9.098767498449801 0.029017727388588734 0.30266692171246584 0.4650739953291991
Ni 4.258470228506436 1.7415319689567899 5.0626517249735254 -3.7016897264124506 -1.4662638803267714 2.3236810189793466
Ni 7.2391298532638 5.500488416938433 13.104181354108132 1.329429255862504 -1.6815153514380459 -0.4096224992291139
Ni 8.688290487858271 4.537336920060208 7.790999451685925 -1.0033488403221043 0.08721696143714013 -1.902738466751723
Ni 3.26419206351684 4.0520992106668166 6.060036980183972 4.333092241899976 -3.569937915787729 0.4098744673389199
P 1.1104292463236676 7.944447698282499 9.2693237946112 1.1629246151376293 0.4923122622198618 -0.47246900224168953
P 8.110843858090764 1.7451195753739264 1.290595866410764 0.698401607215894 0.6020032363898019 1.0180372955722146
P 8.460198650855835 5.97288138004042 1.3911417892620073 -0.8961857747803403 -1.0187212090131166 -0.1489370641547564
P 8.194845896427752 0.7272998344932309 5.129402581261688 -0.9833160900409451 1.299841000682426 -0.3834175586989719
P 1.50753824056865 8.748508368626732 12.674239255124354 -1.8231646236821373 1.6452419709283082 -0.4967065346328155
P 6.27187026820844 7.9565303105681915 9.365457705114737 -0.3207042388301509 0.3866610053369341 -0.9502643017922989
P 1.9012548090564956 8.438375594204446 3.7074631427151665 -1.8097864026030186 0.7999668669549062 0.9304570372583847
P 2.6599127401579548 1.7967495071024024 6.60397294949297 1.1414080812220924 0.5914432014857686 1.239001243687234
Ni 6.4812433504851965 3.7748497302958994 6.946895145363481 0.18644663106444018 0.8444742053386616 1.4832874114679615
Ni 1.242278429311996 0.6354970757782572 8.039773932626323 0.6437368686831623 -0.42798223268322416 -0.20364474011028155
Ni 8.14922009357355 3.040115371520111 13.176686322139428 -0.016603155774319794 0.5622259564918639 -0.5757260478608278
Ni 5.440707369075686 7.268630015875174 7.219148930270122 -1.5674326759583135 1.240608440273354 -0.25766721707332396
Ni 7.988214637708134 2.8209367846576576 4.330896194842017 -0.0553080285436854 0.3690101250243903 0.22511370861733487
Ni 1.4772201780487058 8.080572267156535 5.9925648848855255 -0.6550229831199429 -0.4724551182846186 -0.47823315841897635
Ni 7.813509358374169 4.123098499320972 10.023974016160667 0.9821755486785987 1.0452843042136255 1.7332996830991891
Ni 0.8243148462619091 7.173279616306778 2.118993706193523 0.30154437807224843 -1.3189954621236897 -0.3174939594229693
Ni -0.03704528926793172 0.6780278710238931 3.3757629053629206 0.8174922774331792 -0.8383035577515756 -1.2421194776012414
Ni 8.360851694916017 2.0800124106647373 7.177428599479342 0.5404502553776692 0.7257797421185307 -0.14366990221854614
Ni 6.239451690014214 7.4952905280376125 13.481410733416293 0.05247467285994834 1.2274960712611118 -0.3577211823741323
Ni 3.743193286107386 8.051973653308016 4.877947619257295 1.222679880819391 -0.4374246090430467 0.6829821873370302
Ni 6.26948162870273 0.5199055123361845 3.9531500515007134 0.09489041882199788 -2.531272659552518 -0.8094701784596511
Ni 7.954011550622482 7.8599995327226555 2.333256528719128 -2.275098996305585 0.12737193638947095 -0.6354712862402604
Ni 3.110380409119981 7.035417010127032 2.785507777140866 0.8712507021015575 -1.4525555296017434 -0.9956363021691951
Ni 2.8052758602719723 6.963218754561451 7.609669183092545 -0.21572429698263493 0.6024061282551755 0.4301514724204011
Ni 1.7399798179939356 4.528451552871653 2.366734659067638 3.3547761761767836 1.9055674515600862 -2.3173741029247124
Ni 7.532207555728974 9.12433337661461 6.791791580883767 -1.1714660769497371 -2.0443188334310918 1.3302658928311863
Ni 4.221181428129363 8.606435436781279 8.582187492787325 -1.0344360486452118 0.8888403901588627 0.28560096736911456
Ni 7.658517325700169 7.9210167247653995 4.568842796311007 0.4719056735390518 -0.20843933328544748 0.8497151420226269
Ni 6.226811418699951 3.2844443805710886 1.436263840127067 0.7286794322638289 2.5893569652897597 -0.4901643626389236
Ni 2.296198227407196 2.3936863199184453 3.8623622322177376 0.4099261465124618 -0.42375996707176045 0.4925446899456421
Ni 5.247924642898898 2.3801630884756126 3.376565934364062 0.7796188994261735 1.8724483004086143 -2.329030456216718
Ni 4.3513483397148365 5.008586682153625 7.737865699443738 0.7124434300209408 -0.4384191117458321 -0.318151133390994
P 0.09762471897324862 2.4834136576154227 11.324817796653125 0.9565370221748881 0.8947701253797364 -0.506107002011109
P 7.156689260206808 2.455019518744046 9.000824913830266 0.005754128874957832 -1.0871472629959986 -2.0225932688285426
P 1.6464696932198224 4.066579756775361 0.12105290419520545 1.6351365070631905 -2.218711875765108 1.8808473231055864
P 5.158076479079064 -0.08993553040097708 6.174330127521191 0.33963321452416995 0.9305416265523909 0.6944356805896105
P 4.662596432194263 6.457598607673812 12.446997848140487 0.7212481727967642 0.16041266889452374 0.4389919535301665
P 7.071748495838394 0.12598353943948207 12.788314915440429 0.0005908395064634985 0.3092990823170028 0.05046638418066793
P 8.718543490158215 6.329420679956905 11.273493647958649 -1.4855664373101254 -0.8795227123023627 -1.2749383239034753
P 4.311921846394909 4.2007525190493995 2.8595500252275863 0.24604454523273106 1.6842412350096414 -0.21076155366072086
Ni 0.7534335954354684 5.679115898106675 9.07338378890099 1.2071303631205663 0.18252904117758886 0.16266984035981663
Ni 4.854719261853909 1.8757047312308284 7.552358564726365 -0.4193451258335165 0.07654328377337785 -1.561871379820452
Ni 4.106573203441002 3.719074533121716 13.395234754299596 0.8724966586935168 -0.31795110156504597 -0.3243582906429704
Ni 1.0178299646295526 2.0906358151590037 1.7277113193653868 -0.30225657364792463 -1.254861093537626 -0.05403558958916501
Ni 2.5094470399325175 3.1645569837455954 11.337809393155387 -1.5185256658449655 -1.4674111065573372 -0.5855031818522497
Ni 2.1956337159216672 1.8588913115194308 13.381127839740193 0.2357418777551424 -1.2545605315780717 -1.4268858927497814
Ni 9.128311344351745 9.15692854683455 0.8604920463086997 -0.7546324046841648 0.5858330543878427 -1.3322088754901702
Ni 1.244667068817706 3.4014505390823015 6.066701935007103 -3.6027279657345566 -1.7408456137672468 0.6906782704297072
Ni 3.9183818699327775 6.27305064648558 9.535987047756423 1.3971428571593938 2.494450605628162 1.947769538849433
Ni 7.360811053297861 1.7343939333910887 11.093931158485837 0.3357091968794154 -0.03580878216849317 0.7151785695639167
Ni 0.30531181212029435 7.058057966686991 13.165082367186592 -0.14481789978006027 -0.10848204146350349 1.3764878999132035
Ni 0.9988323803895874 0.6170655154522912 10.398864015843976 0.770864293161995 0.4337936971586787 1.4059278024408752
Ni 2.686736139432191 5.871638383403463 0.3118159752568538 0.4251954139667064 0.8229579285334406 -0.25133947508308324
Ni 3.5285782089620676 0.4356032675554828 3.0143134176998725 1.013601628398364 1.035643952910384 1.3021688774846543
Ni 9.059198802077587 3.8176314721043916 2.194817674876526 -5.8650778899045894 0.9149273170539017 -1.8142179560118108
Ni 6.235334307519936 1.869514716013697 5.810173205274434 3.351630688569266 0.049290361594695756 -0.018930004135283524
Ni 7.001622872995665 6.307439619914088 6.129984152137558 1.5058113036020904 -2.1820150345647065 -0.6537091494045258
Ni 3.2273679789969085 2.7442029023263705 1.6388148936209792 1.2542013484664398 -0.1699550611673202 1.2667478176728828
Ni 5.255992110178883 1.414046704428822 12.165616114367863 -0.2044320118982673 2.773534083593733 3.0092222252928043
Ni 7.42262755661489 5.661596110292421 3.612186168252199 0.22249221183408777 -0.2266561134037903 -0.26083327350613145
Ni 6.05640011388598 1.1323824234150557 1.4759849633004223 2.0850489641606025 -2.6448323726492453 -0.010916904022819909
Ni 6.093549499505911 5.798733759735026 1.5863614853936474 -0.9208179715067237 0.13069251612227167 0.7194928806685544
Ni 5.469510457901347 3.731649744215979 9.488974532784509 -0.7905298899117225 -0.3414124179117798 0.6252663206828005
Ni 1.7120503949797015 6.458054029213811 11.023943091536822 0.15696816198934901 -0.6690192973990349 0.7896721698971174
P 9.089461098694676 6.604197871967826 6.485285449010618 -0.13969009163519167 -0.0013886528174105117 0.2599097332505975
P 4.158965269175191 0.9327404911868522 0.910705524104607 -2.9609824164498106 0.045178396308851225 -1.735826049065469
P 5.76072000262081 7.336803832117906 3.2920359788133604 0.6917218812028733 0.09492615715593974 0.5303689598822672
P 2.8040675990434027 4.610306603948645 9.311534865347122 -1.4207211586999662 -2.3819429879450333 0.6292227342273873
P 6.11743589456301 3.7282294355074135 12.058885752889772 -0.28743287837153075 -0.09581395907753175 0.20508815742502742
P 0.7422869208860603 3.7601461205759263 4.002950861615479 -1.5919198624664002 0.7359417702531971 2.18733644677762
P 4.307218921920632 6.022289969971757 5.67263218246783 0.32934160279017477 -0.4863516737610527 0.2781414257672758
P 3.6844346131303514 0.9796489098067657 10.897705817239341 -0.8830680064514599 0.6327582581844716 -1.0708390127542784
