# total energy = -340889.6040315198 ev
CRYSTAL
PRIMVEC
9.08131091263430 0.00000000000000 0.00000000000000
0.00000000000000 9.08131091263430 0.00000000000000
0.00000000000000 0.00000000000000 13.29141647361439
PRIMCOORD
 96 1
Ni 6.245190066845884 1.6885062454958928 11.464710576894564 0.8813880476458755 0.9291295766962128 -1.366967104906962
Ni 4.776842034619128 0.29177342878868373 5.998987562860478 -0.4796670626520255 -0.26589243319659367 0.27973293862411175
Ni 2.5966917949820614 1.8097326609118767 4.5907223898017255 0.3223775127675157 0.028403490843357533 0.020827478268312518
Ni 3.4792589672198595 4.164389365350317 4.86689140255855 -0.6833755661207069 -0.2699246942844383 -0.5896781391655457
Ni 5.036803632319176 4.444865643732417 2.607709241021665 0.4809919521110361 -0.6462064132695773 0.2211174429737482
Ni 7.097452905557342 5.885742711345094 2.71295073349097 0.592775804254263 0.18950033028909943 -0.34215649516665586
Ni 5.178526565795979 4.676511714931077 11.723680495475321 0.771140172531201 -0.7051512672349017 -0.8426458938806712
Ni 5.51013970425804 7.855724179390872 12.646144589643379 0.536394854361373 1.3329249277205881 0.029854364357271162
Ni 1.8502171436390062 6.503498866013781 0.4786223028485687 1.0485858577830327 0.16851138674225818 -0.7881333646550878
Ni 2.683545449715634 1.3761454855402278 0.3790312018446788 0.6402108578077749 0.2307382538929639 -0.530130618619216
Ni 0.5727655256137855 0.15374204807737624 4.642970802301113 0.4841996604150565 -0.31929758829061133 0.35910186477174283
Ni 8.231690438902575 2.298270846822301 1.291569423509204 2.674129064730833 -0.037560217641961116 0.9077320848570432
Ni 7.061845086631124 1.0273595887028852 4.8339416832497015 -0.1109479865054928 -1.5420090936788862 0.5848799464459541
Ni 1.0866242217843678 7.491472810574099 2.5239732002226423 -1.4174748838485265 0.08395063198104251 1.0226786509989678
Ni 7.6405152804075795 3.7621417929152594 3.983144568071704 -0.5470284228158192 0.11401634101817137 -0.706471528708222
Ni 7.611255297602103 3.6659616321788233 12.679160602519724 -0.051504081416562916 0.38103260340656314 -0.8185901384830483
Ni 7.942023874176856 8.903462229116565 7.1563379398550655 -0.48445137141454636 0.18877759319046197 -1.6603240620724116
Ni 6.820600070111115 0.7927802541751848 0.3795261332732631 -0.768952677961579 -1.2941642620126228 -0.8296934474850614
Ni 1.8866695244525322 6.558059380196059 9.156576518611981 0.6359438550013048 0.5831616782032666 0.35117566794613064
Ni 0.31052270268694127 4.624539374274423 1.3878631006283424 -0.8548884586934503 1.4572503639742516 -0.2600655421021714
Ni 6.491457048136667 1.926064249905715 7.032621429068113 1.6643588942634175 1.3556480803497168 -0.20330252627951437
Ni 3.3206357146862624 4.253749461813968 0.4756236540830914 0.8528128071113442 0.2596654784502754 -0.44793887831080925
Ni 6.329973182758959 5.730633926019977 5.01731059908145 -0.5800282747806075 -1.5968473816750046 -0.783946837377566
Ni 5.150946625454504 2.9034766302193646 9.316458440796987 1.0229954109084383 0.16531036330645724 0.47370853107574545
P 0.2376706126614634 5.632610259228446 12.483962371479283 0.11708752374432738 -1.242878210144137 0.5482108731596945
P 4.137699393449232 6.200083197015096 12.826575701490778 -2.2058643303784784 -0.2828737982459386 0.5261623780000874
P 2.5841777489529036 8.5757086476664 1.4845045919440827 0.6335082489766186 -0.677395180167556 -1.2333311898856503
P 6.3099034862971015 7.575928999304989 5.850721545084686 0.8630015747188878 2.43302643688441 1.0979834343795543
P 4.668529242899416 1.0784237982979168 12.610775609186367 -1.3793976173608309 -1.0287225432002025 0.53646478836736
P 3.972710142173662 6.239832093582312 8.319017229919254 0.2462533188094275 1.450597120323792 -0.5074023237837648
P 4.793270125523878 1.0915372108277452 4.0757993640269214 -0.469906640831152 0.34381871336042724 -1.834872399037369
P 0.1406295436786094 5.835323274803815 3.5426810243014497 -0.3580302289741189 0.10166913230672814 -0.445329208602104
Ni 1.3553220402972244 0.9812265307724638 2.4700638160115473 -0.4564312320525365 1.3395776571504157 0.033943446824980246
Ni 2.1515985990596556 6.208238213948467 4.738376327241984 -1.8037237413487066 0.7359014039335648 -0.15913637328526142
Ni 5.991004182697756 5.863820427517528 9.115133049483779 0.036548745658311246 -0.020520745661171107 1.6774416955893046
Ni 8.391993733900174 2.1480296439874795 10.1067131824898 0.6248364322342336 0.8348284547187815 1.351189273247415
Ni 2.5784383606434496 5.227992464722554 6.949802600641329 -1.5197888488281053 -0.4823273830930081 0.5734930447652511
Ni 0.3346662750912363 0.04713109396714463 9.368281847959535 0.9239750290784668 -0.05802594169548071 -0.46731136930015005
Ni 1.4623816111518977 1.3586185560509139 11.461918982011136 0.31036686145988485 -0.8385838079961558 -0.8587893364097533
Ni 4.395990029995896 6.947829231844423 1.939085033067258 -1.38731738642854 -0.36102993503239117 -1.3320672077059834
Ni 5.504354909395505 8.000189668673775 7.874645998190838 0.3583073938949055 -0.6044334430978493 0.3875611485537003
Ni 5.389703362865668 2.9354519248990916 5.03607803560094 1.6544367500536992 0.3150061600041091 -0.7922736120757065
Ni 0.6747404706544344 7.4797579198791695 7.075419829740257 1.3895740436732005 0.26965729955566464 -0.38254801160982504
Ni 5.104822648834698 4.737538122272107 7.165149535545988 0.9596472856690956 -0.27727265000907736 -0.4401420079742097
Ni 8.129071628939236 7.196548167001585 9.514619903491504 -0.3643006353638629 -0.1986406020274708 0.46238307876059725
Ni 4.481454244205186 0.09677771097498349 9.958965707550194 0.30501459600903597 0.32084899193813127 0.9346507636247582
Ni 7.9139898683045695 7.699652775140434 4.310672024887526 -0.12552459876808705 -1.0976821010890514 0.43080916060905805
Ni 7.640687825309287 6.566359698099288 7.355350321354322 -1.1847072582303597 -1.8755608778956665 -0.9295648644614184
Ni 2.720470058681204 5.350799028185762 2.5377168557092364 -1.9570890164781456 -0.7883621928364423 -0.8209013031147282
Ni 2.3178955590639627 5.087486426868327 11.581621553505718 -0.5086073998354596 0.5144695150431914 -0.13826132960846513
Ni 1.0217019321889773 3.8388788676223586 3.498500448153517 0.46774048641776866 -1.3824857693678512 1.791084198207825
Ni 3.7607069458378963 2.3855331605336043 2.46212856679509 -0.027566339654042846 -0.08247764697994182 0.9667679558742771
Ni 1.0621591709842584 3.3051702427068324 7.950366874239982 -0.8050615078689941 0.5564805693676544 1.5120295165976605
Ni 3.88883515732221 2.8026014318943404 6.76745714851603 -1.0321372253087062 -0.9731273224334015 0.9706040417909154
Ni 4.126711007603601 6.848670401225865 6.013422306084967 0.6948290593732873 0.032235462994938034 0.47925157238116173
Ni 0.8766842992206082 7.281867080241017 11.250971033968975 0.05045712820928729 0.4242855005579273 0.18806514050446965
P 0.4341892662655045 5.5254507939569955 7.965386453868155 -0.5766552445433166 -0.4435949995198167 0.15151716617710678
P 8.653181308533414 1.6324200711300891 8.043087963762698 -0.30549462096924807 0.14643512366850908 -0.9159601291937902
P 1.9668211719513315 3.17761415379134 10.313767064539723 -1.8891807826719464 1.0829396526725545 0.7429364564034753
P 4.143747546319638 5.895586852053082 3.919665298733232 1.5605446905892286 1.3146325571693036 0.43518157864514084
P 6.904910957872145 3.7393840285110005 10.45974640830235 -0.6764413008947189 1.0263514718648648 0.9648730528444092
P 6.156120572321952 7.697963651365816 10.560627963544805 0.9184859809394376 0.18076295041610158 -1.4350758847597413
P 2.3406805674000704 8.087252193551521 5.845923888686134 -0.4933077933639118 1.3723533089195397 -0.27898114805975177
P 6.9129660803887365 3.863852471816976 1.524326138996228 -0.46227766353098454 2.3333380824531367 0.8514056423511723
Ni 5.295512009154186 2.7070206376585753 0.7037071271270063 -0.47862833697486606 0.1734209082287336 -1.0839668083854879
Ni 1.639812257971696 0.9787382516636182 6.743785804263778 -0.7680522776344967 0.5575015544330011 0.35575454556606473
Ni 6.856616548015062 0.4958322945973762 9.09271129357232 -0.7030136520666087 0.009890005420202321 1.5086451735064599
Ni 2.8776675454480536 1.8811571689084838 8.923550996330716 -0.11228470303904534 -1.2747303216577273 0.16830749826156818
Ni 6.397410995395043 1.9785360626462616 2.841505766574247 -0.7305828199341289 0.6584695469076467 -1.1737384179236818
Ni 4.0195242984003 6.689738384131317 10.666654081251352 0.31964597276896567 0.5586122709986766 -0.7746918944382013
Ni 8.176857485401811 6.96727231787376 0.6068585819292163 0.3504135929691255 0.39517984144122265 0.18521481553986813
Ni 7.521159614978537 3.9739088751750034 8.429376040920802 0.36118908631807467 -0.14884064778620817 -1.2060235032096327
Ni 3.060501572084506 8.348212735419354 12.251615223101052 -0.18886963868363602 0.5010380721286338 0.3163557320534681
Ni 0.10127205159895311 4.741833582193581 10.047340481811984 0.5486096512600099 -0.007501193473051597 0.889658515184784
Ni 8.752830529925246 2.458528735266819 5.780729159772257 0.8526009482108542 0.19395090986128533 1.1044559294777754
Ni 3.657007459911226 2.9890770640878985 11.63045448508234 -0.054520756755699645 -1.6950990036597517 0.25632638677471337
Ni 1.1172554824928937 3.261525463885256 12.84712398302211 -0.26374993293229415 0.46492307157363155 -0.24195649120628654
Ni 3.1301370618897173 8.596023539514894 7.91105115618916 -0.17449280113667368 -0.8226375690795444 0.4652470305719536
Ni 5.149520859687757 7.832448780281489 3.9710364566270915 2.6729702685360417 0.5566931995990929 0.25051003720325243
Ni 3.0698099154661365 8.654107602216268 3.71467196606213 -1.1240647048476382 0.12368626000776761 0.2256947779317855
Ni 3.4360046847547814 4.480827633772667 9.387926539084551 0.25571960642864994 -0.2925210915277156 -0.03754556235394179
Ni 7.333267298328849 5.915266052158441 11.58943692942204 0.03312866423316875 0.3297604354951482 -0.4546422584729138
Ni 0.5589819123604796 8.784342677763547 13.321188376072394 0.8101949724408177 0.6352925945705511 0.6443174237769806
Ni 4.849837609352342 0.2693516728772249 1.716998857554298 -1.4077990513216592 0.7919355120099975 0.17971111211281954
Ni 6.032923512502248 5.773570362613487 0.5184066165271876 0.2846334612495227 -1.330854932565437 -0.042174576485520913
Ni 7.932234221332566 8.81387509988751 11.660173982204999 -0.5490053440365319 -0.8721104789986915 -1.1134424492471018
Ni 8.934656531083299 5.051170265714044 5.552768284421661 1.2258215117721665 0.7073035376912141 1.2098937847983164
Ni 7.909748896246793 9.143426780839688 2.3737801283340865 0.7232127527223028 -0.6616044929922025 0.1643757673073298
P 8.67300580960863 1.8488549470465725 3.5799098571726633 -0.09685525585785254 -0.36191696562303477 -0.043567085957673356
P 1.9361445046897245 3.1138270280229774 1.6668500440693819 -0.8569216870733952 -0.05393017435955228 -0.2573959656898083
P 4.8073552382896425 1.253375247319486 7.979860246728294 -0.8226756214063317 -1.9065827801984774 1.5267197716199836
P 8.591973274980058 1.6218494255728035 12.496256649791528 0.09105459001567545 -0.3543792624850929 -0.17094519299473143
P 6.292667158747507 7.830750575196254 1.585705809320229 2.2346223763477773 -0.6289638241390458 -0.06777479355212844
P 1.859779763717891 3.2236382359943665 6.056725627627373 -0.18781471505656042 -0.08153919432607248 -1.7271220935335674
P 7.119139075308886 4.1237050937896305 6.258316193210576 -1.2975951420710425 -0.9112892060806821 -0.23367985301979108
P 2.3122742277925195 8.760813001956908 10.09504279021689 0.29731877002667506 -0.45734577344700583 0.4546530571061912
