# total energy = -381166.62530086155 ev
CRYSTAL
PRIMVEC
9.23896948291419 0.00000000000000 0.00000000000000

0.00000000000000 9.23896948291419 0.00000000000000

0.00000000000000 0.00000000000000 13.52216572759135

PRIMCOORD
 96 1
Ni 3.8471253528647673 0.12286997848301359 11.435127910031268 -0.21481181247069459 -0.40021406143102045 0.8073729296109903
Ni 6.195320303741121 9.269827598194377 1.2302916592646935 0.28474119047198054 -0.7970689765818207 -0.792408594991674
Ni 8.50663328861194 8.842266570437847 8.402687491233419 0.36211314079424084 1.529243566483102 -0.2574782409909695
Ni 3.7757173580609678 3.110419168667564 8.948536892527537 0.4385242698651286 0.6505968290277893 1.729754646060408
Ni 6.084877663052206 9.435297540869506 6.18656638019647 0.3497222233290557 -0.8931001938764813 -0.20513006640655643
Ni 5.527074883096272 6.829307625701468 0.3346410165080225 -0.34043359893827824 0.06870656133777844 0.3227503227259022
Ni 2.062322758455707 3.912306282265829 3.2787060731250275 -0.273576946325045 0.352397970389006 0.17606065984442582
Ni 8.229519639220664 8.318481675960964 13.628044425422049 1.2318623186496076 1.7834099694920191 1.2072131526423597
Ni 1.5108579115357954 -0.1743550595858282 11.468838137827959 0.37329358289109255 0.41742656865456496 0.8359684818604958
Ni 0.798431739027606 1.861781687785339 3.9974627874936854 0.3098295008991761 -1.454362500903495 0.3083899402391721
Ni 5.174201684294833 6.687434010976776 5.8604122810162735 -0.43332781326585373 0.5911236133628206 0.3332242256740326
Ni 0.9272599289026457 0.36963084157219 0.5038490462186797 -0.3824305121953543 -1.8551082664682697 -1.2419402717108998
Ni 7.18537750792924 4.9198066607571675 0.4856030054711025 -2.7076557357333693 -1.1000889107583312 -0.2661641988007416
Ni 8.791027245922143 6.518924447355804 8.379334148179263 -0.7178396613358475 1.9004375865326883 2.3331303373177046
Ni 4.075235508344883 3.0700079163358502 12.822082926300627 0.11647328719909618 0.4098351294605523 0.4222417306550212
Ni 7.504445317548753 5.452460965896702 3.039498991450211 -0.38114598905597585 2.3290152867080667 -1.3972603565738646
Ni 1.1903026278363993 7.6644642682541235 9.524878588562304 0.13909719524619915 0.24477004939568167 -0.6753809779510045
Ni 0.5619150452537943 6.946466997173456 11.848702985849128 1.1617568200817736 -1.894710454240924 1.2059101175602198
Ni 7.732961987684241 7.197609903468149 5.873176841194942 0.4279786331387984 -0.7185135474744205 0.3029690263339169
Ni 6.285178520517126 0.16781294532517732 12.196979797354036 -0.12997055035458263 1.0402089465732471 1.1479466536715583
Ni 2.3945099046803957 0.9641880897553805 9.51668362266879 -0.38472702153901484 0.754742705009784 -0.04176962773761839
Ni 8.616207466173469 8.462794378617888 10.872496844645854 -0.8488540795739125 1.4770404021169854 -1.3548754638497507
Ni 3.9435432379433615 8.104109868038522 1.795094806365514 0.16549214029996012 1.2471693813203233 -1.9463965697613057
Ni 8.151163939397787 9.315652886618087 4.689987295930603 0.5807481836657676 -1.4834715024543095 -2.8718551253638345
P 0.8061379634377301 8.013872853515464 6.989661950997521 -0.6479339374836455 -0.09649530141527252 -0.3421500674087527
Ni 0.5211499403925178 2.874927076604678 10.726619984462694 1.1010391904867425 -0.8556883288869264 0.19016933133166602
P 7.772366192346966 1.142648023463518 10.03648929300775 0.08256583581837393 0.350402537225532 0.3583066225639571
Ni 5.03195851079253 6.644112483271379 11.314360720992859 0.31570318607113373 1.7967704499593247 1.359329385856046
P 2.242972327921187 6.012360991915575 10.540041768307397 -0.44459181621544724 1.2097261488722004 1.835213841537188
P 4.771493484332611 4.534541635098162 1.2241449728960858 0.07429768227231076 0.595539225932013 0.04670563158665505
P 8.841481258035424 5.08863958830855 4.599158987363368 1.7201706019163987 0.21517048136169392 0.9631128756201929
Ni 1.9158204200414424 1.8941827536123446 12.669674114723202 0.09149990508321017 1.0432449051860935 -0.5565708150886156
Ni 3.0672824203509723 0.6863251599424999 2.8355441215716652 1.774528864952305 -0.13752856520749862 1.0895880112270075
Ni 1.5966971766052873 7.216124798226438 0.644670342324126 0.5327192052819986 1.1037144233260603 -1.3151526913388316
Ni 0.6869931374330309 7.350006704385303 4.659251092396732 -0.18941214145066732 0.14518042532580158 1.117090073302018
Ni 1.987219175875802 5.0376035211205314 8.774641933619835 0.04309863096168707 -0.8634175792103841 -1.1168391336334764
Ni 0.561348696427106 3.340312445249651 5.632076694681816 0.4335831238097694 0.2658047585787939 0.6288437536214139
Ni 3.4527045084904615 5.414193154475129 13.134796172739128 0.34495154141328976 2.270550971923586 0.3817617682631038
Ni 3.1912231953921126 5.984708756380864 2.0163986130589873 1.116256007436497 -2.3772170432242734 -0.5091663576627231
Ni 4.297146315330582 1.439098835893266 7.398625857167747 -1.9042680160223722 -1.0223158683429103 -2.21342928720993
Ni 2.355558409520243 0.20499794952835146 4.988800512846225 0.8965750397989591 -1.5040704096515838 -1.3442192696874848
Ni 5.143482110905956 2.3256056705949075 10.93019605659419 0.39809855774991443 -0.7738917671344091 -1.238517619182596
Ni 9.246637784899317 3.2976561233439527 13.473864503402925 -0.8661457767748245 -1.2574882467478279 0.9439296178235227
Ni 4.139936011335052 4.8539790034952865 4.287933215004751 1.0582460065806163 -0.34010706883679487 -0.3208099111700798
Ni 1.3102152122015842 8.69184690898091 2.666044140426696 -0.2577561772427045 -1.6507569872092667 0.44334971627823005
Ni 3.614303322970117 4.838069498119152 6.925634044982604 1.8343838894367244 -1.941376233728579 -0.024690046547512317
Ni 3.1555145785054926 7.323463145183424 3.8623363921512177 -0.6175658667147493 0.2373297910675526 1.391311080968965
Ni 6.904180234045367 2.821461160453871 12.392808069712927 -0.08445096865622874 0.26623027615198663 0.23353227169833327
Ni 7.018207594877104 3.8227252345730305 9.584173370532973 -0.32169308510598144 -1.37066640813542 0.02406064049362953
Ni 8.664961507909743 1.2182505103931975 12.174858008926268 0.12195359358737706 -0.4126574294006957 0.2833088289008282
Ni 3.5159637322479482 7.653395982864687 9.570759310802654 -0.5252596636801599 -1.6811667098493754 0.19063290123164586
Ni 5.617422765252614 2.4700846747017544 0.9932492681297307 1.5982643166271893 -0.4189386344237172 -0.9593904324632834
Ni 8.633345754485159 0.5448469731098508 2.481331272201387 -1.6099697779895756 2.711994215207723 -1.45127666288932
Ni -0.06685687845752566 5.5982334257251845 0.5642580479038452 1.5334642894326687 1.1524000614572216 -0.14225373859730986
Ni 4.907075360868483 5.379177460296528 9.135250921533608 0.8511274489891213 0.6313099557737193 -2.2342927609225005
Ni 6.702900045819779 4.828747377953926 5.107646920138004 0.09120602799187519 1.2419742102726288 0.5832771207352083
P 2.9140171563064343 2.8534187557477435 10.94904632594316 -1.0376527558102968 -1.2879460490170527 0.1480626319696031
Ni 9.267979804306325 2.0106676803151915 8.563777238496915 -0.4597060461490664 0.4224060241470273 -0.8729113776334321
P 4.450134410291911 8.104848985593742 7.665229254923778 0.6784899558936315 -0.047977042099910924 -1.0033745513537171
Ni 1.3772716523990198 1.9474269344965853 1.8595818891616123 0.3676173584419217 1.904705874890739 -0.46230748832765545
P 3.250685202709651 7.794465807248078 12.86674595236875 0.8838969301106584 0.440424572211635 0.5985710707798014
P 9.128924075260914 4.451621884371794 9.304642806736126 -0.3185573676904772 -0.1629089529538162 -0.41139887440324635
P 5.55360920332871 3.538275843446186 7.746970113149568 0.7141822670889184 0.4027023750705129 -0.6468556168178021
Ni 2.556894031562474 6.8210572259913125 6.973164847164986 0.5938081021735193 1.7667111686800991 0.8918683783519092
Ni 2.379792226362055 3.848714455608493 0.7802226541577899 -1.4004341263161557 -0.19040201616776242 0.9061346584629362
Ni 7.358192431309376 7.191752396843022 12.175695983454501 -2.0885580057551256 -3.2896102810024117 -0.7392152987981462
Ni 7.0108995700498555 6.208476596224056 10.050241499019583 0.7312960439510695 0.2651817802828143 -1.0540314542786364
Ni 6.616912957239243 7.614426009765655 7.976941920971898 -1.6926173748884785 -0.6650507996695901 -0.5376444104977579
Ni 5.235483768592104 6.638846270690429 3.0176201879187214 -0.24685469983885228 -1.8422848894513564 -0.4328030511106352
Ni 6.796610912852375 7.825397876934081 3.7597025284332144 -0.9286588077073813 0.6816626971946583 1.387685568401236
Ni 7.74172053071361 2.6160141970107227 4.149181448053923 1.0199609949574884 0.15828430969761126 1.3365548111636918
Ni 3.8097906773566605 2.6201347773810806 2.2468028046511206 -0.2902392374720743 1.4485736621358603 0.675171690153676
Ni 4.713251020981186 0.24043863630120377 9.446800981719578 -0.7140863649410024 2.5911996749254533 -2.310037460053983
Ni 0.3428692426915215 5.267136477894448 6.994610343029727 1.0033894637520526 -1.7927932104791318 -2.9509499719144725
Ni 7.599274099883623 3.10852517993231 6.772536006284936 0.38823709157480235 -0.6707455360615223 -0.06799590842399901
Ni 6.3702417121536365 8.467210606010333 10.165909700823908 1.6790746032070372 -0.8521594897980616 0.014233369990562583
Ni 6.227712130598685 1.2881340752393535 3.1114095861915607 -1.1628227994524427 -0.6338545765724439 1.1629942920333003
Ni 8.258751738529659 7.613871671599238 2.233131901570362 1.2126410085261503 -1.5562982566080488 -0.8004114106914925
Ni 6.028039523055702 3.7210041810357253 2.992455082957331 -1.1281131638853992 0.35392366300491307 -0.23594473779456784
Ni 1.2589574097470002 4.665143707105733 12.256463978198232 3.230986814932248 0.5984461151661629 -0.4485628850480533
Ni 7.13847126008102 5.2169503958949335 7.554658192559644 -1.3572714748857528 0.5647975738737822 -0.08884601240013086
Ni 8.446533792403022 4.656551465526287 11.488202093877808 -0.2522892405908623 0.9430718978089179 -0.1396679801480046
Ni 5.599757855682829 2.9035771208389365 5.408217389041165 -1.5108637784243335 -1.3603318589786313 0.30250237111014355
Ni 3.9188382336600958 4.774542344247897 10.99215535735143 -0.844870669446132 -2.2704026192711804 0.008066321947902237
Ni 3.9772562374308844 0.8840243236130428 0.04401814600119332 0.0438157116333697 -1.0121852076668116 1.7827350549121814
Ni 1.0892467800987926 6.251927469501617 2.6064518636400495 -1.6275139575209263 -1.2512849461505935 1.4411514015298599
Ni 2.1919270217637288 5.420383264000105 5.237837858005483 -1.8307748319292276 -0.3981929172359336 -1.192045957983618
Ni 6.3243332730049655 1.4444297212602981 8.256796772596099 2.5438150149939025 0.5524058850776487 1.3414545624581542
P 4.6200944921150064 0.8521720525707891 4.7775302269648785 -1.0911831236282692 0.7553913943373765 -0.570583841538256
Ni 8.992113415789486 3.8942256190712325 2.489930904956385 0.9550252135160521 -1.0097035788955386 -0.5742121823194627
P 6.386502298368501 4.814232956963271 11.621571237232736 -2.0763061849709663 0.389250106220349 0.4689998127461665
Ni 1.6240907209956696 0.8519872731819838 6.900374702532923 -1.367906843112412 1.0662686197747766 1.7763196383041406
P 7.719796456231864 2.002066199766306 0.8606700566619437 0.5201308270940268 -0.8695512029119477 0.13178677762771496
P 8.375523073285153 1.1468609935282783 6.212326474789814 0.9945278995963647 3.313645467574745 4.252128717571715
P 2.5247331789409153 2.9005929337097314 7.3513251053244275 -1.972843708209241 -0.3951428175557001 -1.8626295145459792
Ni 3.059327667662905 2.5761110879982225 5.128429981893878 0.16768477707590476 0.2067274928006633 0.3989711901628548
