# total energy = -340883.3931056708 ev
CRYSTAL
PRIMVEC
9.11918601917892 0.00000000000000 0.00000000000000
0.00000000000000 9.11918601917892 0.00000000000000
0.00000000000000 0.00000000000000 13.34685052051525
PRIMCOORD
 96 1
Ni 8.956827959157533 7.737191554031097 11.554542065624586 1.2107898142500244 0.7082499607648834 -0.2637512184838748
Ni 4.851561949292313 6.196413896639642 11.398730742637156 -1.4252583844486875 -1.87391228654865 0.15493879026414606
Ni 2.226731943415617 2.6318608982408582 8.391659114821826 -0.23172992838227185 -0.021037537396589576 0.24857811028786225
Ni 1.9847543443455282 2.816150527018225 12.860811649154103 1.3061186061610215 0.1643729390938524 1.0694632154526744
Ni 3.080169198519157 6.963656606184091 8.121064598335424 0.3863419314346185 -1.1070661134071127 1.3926398270827178
Ni 8.041334643693265 5.145373001277962 5.594038773645334 0.7212018929398611 -1.3501991414200039 0.8627359797623272
Ni 4.676500936692031 5.678936570962941 6.841689317997069 1.3953546549107194 -1.249660780283609 0.5359251138138059
Ni 2.844511195309462 6.721569576882653 12.827470993417899 0.07728684680762174 0.7033067578269953 -1.0418547097067863
Ni 1.585279284806643 8.717376374594412 9.292651100795187 -0.7622503262407389 0.3006774020862628 0.5345788841985568
Ni 5.433074198679969 0.4834983269242967 1.3634605581881967 0.32422896415395774 0.8352069211041229 1.072781995413262
Ni 2.5139589431484453 1.3786111737184417 6.209395057833397 0.8279088447808128 0.5306607800910731 -0.5962694192298182
Ni 3.6572312851652935 4.341398210744092 0.4604678228183419 -0.2766848958264073 0.6349182419502678 -0.4725643901689732
Ni 0.33709800383286587 1.0084907737388786 7.274928163500039 0.2526383964001649 0.8587721100185727 0.4795464779137612
Ni 8.802285114935156 4.693024901625703 1.0683436387751184 -1.362108748373396 0.5003639288797447 -0.2009160283252088
Ni 5.408817164064313 0.23199665005248163 5.736783215091119 0.5838023971110591 -0.19008859869240166 0.32326068670341745
Ni 1.4513366816356812 8.51267800767049 0.8054903992380518 -0.9209017894697819 0.11631259325151583 -1.3110636088711227
Ni 6.368565888923236 1.6551504875228678 4.164244344969263 -1.6207218742997571 1.6368468048860778 -2.419780370507781
Ni 4.394873117129885 3.0364974170250303 7.225597927126584 0.4912514250555152 0.807644695215138 -1.4603410870844333
Ni 3.8726994106911294 0.4395210527009877 3.645838686163286 0.26288295694630853 -0.29289158749325683 0.26854838276220205
Ni 7.319003924931563 6.340186982260107 12.349706810616281 -0.2302253188122874 -2.7040793312360205 0.8128630061912839
Ni 6.191708396691643 3.987108717566326 0.6411106891360092 0.26426569622644813 0.07400174829844675 -0.8834590712422914
Ni 1.0830401188452654 5.282416127670475 12.354218071903636 -0.7631394137139115 0.5329081813643533 0.7352380593179532
Ni 5.5208646017795635 7.673001604159065 3.2183257775156426 -0.2248712535892256 1.0317502742829328 0.5568482371197184
Ni 6.423937585985741 1.7274017977709295 12.891121999400537 -0.44686184319654654 0.9891483804520061 -0.3187034063500382
P 5.185989855480268 6.568868808221313 8.983818013801127 -0.6136847864927883 -0.2845889811648325 0.639891269684827
P 3.2075551069951347 4.576946783722438 11.602964031077846 -0.7100980697172158 0.7698638769219387 -0.537660608447674
P 0.5820466336840755 1.7347974575729206 0.7112335813843361 1.872542145674001 -0.8786742482591384 -1.5918689546238067
P 6.571540729703415 4.1531782128241135 7.00297215255194 -0.7864228097218843 -0.5606634971007506 -0.030065451926812738
P 4.253945217524489 2.370742127870671 13.382886868384643 1.1395638289245018 -1.2354652055095174 0.4682343953350516
P 2.0444485355463122 8.631847529609361 11.611626345807698 1.5839281025101755 -0.3100349320417628 -0.32775548924997744
P 3.0523556813846637 4.576463466867314 2.5100221905756714 -0.6368774225591677 0.5306854626814216 1.4464992961053345
P 7.3529728925794275 0.30054921848095295 11.642177442563103 0.7775208792465642 -0.5682757622303697 -0.33735701689548353
Ni 8.946532398224798 3.304501172784248 12.340244743278985 -2.2130225386898146 -0.24987317495020192 0.5044530113474538
Ni 1.6500072666494727 6.12433585092455 1.495607593646443 0.17990625884276112 -0.05942667869774926 1.068470512522102
Ni 4.436702823062973 2.917318775900214 2.5442565265345567 0.9884261575740009 -0.3180752858477361 -0.04585485355058555
Ni 0.9775402566390526 3.59289542831813 6.215040745852402 -0.1176541948810748 -0.2148488363562171 0.3926354777528141
Ni 1.3191996772819754 3.4377142410795503 2.061327236813274 -0.769688527686339 -0.16704971459506715 -1.1902546704111503
Ni 8.038325312331171 2.1249527090752642 1.7190212658867985 -2.8795368102788084 0.028117069951190288 0.28924422054865667
Ni 1.263691192430284 8.57069426865726 5.0798516502578535 0.20235430343363214 0.7797569676659345 -0.4451304623277366
Ni 2.789340120337763 1.1915675507854626 1.5752883046844952 1.2560864813042947 1.3114623869714381 -0.8439437867564885
Ni 2.7458233650047137 1.7746209425979473 10.962235435832962 1.4109229416626219 -1.0653188542669976 -1.6135081301601373
Ni 1.453552643820495 3.7887664232465808 10.59866717095541 0.4974650100653949 -0.7630568813024342 -1.1317664443672704
Ni 7.2067923418692885 7.255452318075733 6.070974934363079 -1.1867332875214531 1.4940958149373753 -0.9703024513900969
Ni 6.634490470286826 2.1070882238075685 8.160865285395586 -1.0097359747953707 -0.16417265015758822 0.7244301700691717
Ni 8.581327239469987 4.889233306434146 10.230987977053521 -1.2549441401697354 1.2626476794615804 1.421772739892932
Ni 3.107225823220154 4.489347883527703 4.889231482596957 2.2545427694207882 -0.6231803846880494 1.414506802359138
Ni 3.714007336863442 4.595039248638776 9.368074063915172 -0.6668305172778322 0.18294093190402685 -0.43832578070107736
Ni 8.047936934317976 0.3049127489559873 4.573911918639697 1.5720061542616086 -1.2555226383810247 0.9230226924675264
Ni 0.5031647633348697 1.1013149674805194 11.469042402034558 -0.7720824818398123 -0.21472979427984956 0.30042543397645677
Ni 7.105888549379727 6.669179853624403 1.5012532816654478 -0.7811425351595515 0.7568754350820707 -2.545038345878043
Ni 7.477148847602506 5.564819078038008 3.3325080166607903 2.216521295871692 0.03266380878160826 2.267617086106243
Ni 7.846995672003697 8.82654214955081 0.40993750157442743 0.740372552331041 0.9749893153428046 0.03936281806833866
Ni 4.106378550550599 0.34874046852978624 7.782575006727239 -0.7379503160427936 0.49536467589294053 -0.023141214003153693
Ni 3.733923638968928 7.617985555348444 5.9398155067427565 0.20374449891293944 1.0036506878332392 -1.5818205692488694
Ni 2.3561879071012775 2.534750687104722 3.839728993904323 0.8878697987154774 -0.5037482719709453 0.5505135531509422
Ni 7.500539559553318 2.6088623112857134 10.454801069638298 0.32994144115770274 -0.9481505978834057 -0.296642827005573
P 6.675636237273984 3.609847994991252 2.783539406157681 0.6166919487502283 -0.9543356436481951 -0.7571651984083476
P 4.395110215964474 2.0942757675538104 9.112935655688199 -0.4891408064704157 -0.16170696222591505 1.6719094529171656
P 9.009044417882814 6.945071705226682 4.651363900632611 -0.6182124991598127 -0.6436350529979754 -0.013179989025383752
P 4.720336863533181 6.2369213206106 0.3795405190615076 2.2134280016583494 0.6404828805222389 0.5270956884476341
P -0.11282712811361131 6.852648755666654 0.2932037142016631 0.6405702980297227 -0.6599972964060827 0.7961978868307771
P 2.1007230320174455 8.566599754167624 7.176668023016146 -0.08218299855765845 0.5379645128413381 -0.5239872247256395
P 2.1590311069544774 8.261608580212503 3.0145867489532114 1.075095216927471 -0.8661493763192502 -1.0948526020600564
P 5.448458265370425 6.328705927154426 4.921811598225287 0.005951846708060717 0.24605354409379562 -0.885229789989469
Ni 7.544767611390133 5.966227404997389 8.032882070240161 -0.9538643604387316 1.8957761765012773 0.2296056829504175
Ni 6.114186196966947 8.3476845763543 8.199744022756633 0.2886281842312126 -0.1185221993083249 0.34212229949461076
Ni 8.808996835791216 7.880481322796437 2.463975773061275 1.5433368113513743 -1.133481370175848 1.4367746126184031
Ni 1.0497550901433312 4.968807322996634 4.218231749605206 -1.0164393549574753 0.9135990851607814 -2.2623308980066392
Ni 3.395930131076191 6.398349150222008 3.5716842018083494 -0.4853859674136738 1.8382060913962925 0.1791552396093495
Ni 1.6306745924445138 6.379499792872172 5.987677554178949 0.23403415103541628 -0.6095928758116017 1.0016179736739266
Ni 5.454549881582176 5.4400959718581845 2.4684998012089543 -3.337867316236587 -1.1236777538218647 -0.595857014282748
Ni 8.16385090687422 0.07355626575689636 9.560281881849223 0.2539059502586788 0.20250162764477384 -0.7419517238927029
Ni 5.804489523063826 4.002264804608138 4.7343548761689656 -0.7040261524915229 0.7277543493463982 1.1741544224151779
Ni 4.969600692173913 3.111566555730324 11.107622617365822 -0.06482188157139158 0.10856251699245174 0.6455595237141979
Ni 3.7748505454933885 7.977354435097984 1.2281719631716446 -0.05072478004837717 -0.8385161879830139 2.3605339261416383
Ni 5.835020557610149 0.8108305945278745 10.224527945729562 0.24421391978189555 0.6589737402375747 -0.013001811576306642
Ni 8.647167761998196 3.2968228182179384 3.77247408563593 -0.29011633874096493 -0.6580067483386152 0.5773414719770638
Ni 9.16213731153982 7.6751902087860415 7.367141371783316 0.017539551545660115 0.3356541752717639 0.3658052449338474
Ni 7.67801715642922 2.4223840778813703 6.049512930239791 0.8359036900608314 0.44718400242265566 -0.7352167191617144
Ni 5.786898613374502 8.05250564647679 12.827885004459835 -1.0859578706735877 0.14775255692835199 0.31312565515194457
Ni 0.8949404941797704 0.8404852753048115 2.7715932725687673 -1.6332284914072004 0.8148404416326288 1.528174244678323
Ni 3.847357192947931 0.3550518571228298 12.868018541807018 -0.923667782250693 0.27070399565262415 -1.9813232064351618
Ni 3.988440118714403 8.709579470610809 10.059601084470776 -1.2059448274528972 -1.510547018514863 0.8141593564052043
Ni 8.326090344034798 3.912349631183187 8.152149167468652 1.692342009739905 -2.9882520507990407 -0.10906311077795411
Ni 6.424913338881934 7.472726042418825 10.6131885626554 1.6587446334004337 1.7676673619457817 -2.5651279175390664
Ni 2.249311047817258 6.460304899537334 10.457697323094665 -0.1670995939963961 0.6920484113043566 0.1780730622887643
Ni 1.0529103284805557 5.398111239764019 8.577447025850075 1.1280401445556185 -0.47791511295792527 -1.3715711793378764
Ni 6.103917993592048 4.581105132513693 9.36435070029353 0.3717997719543855 -0.34753575720069824 0.23524025552837552
P 7.385072427108415 0.43881796346457147 6.952561292643915 -0.2315484084990851 -1.0971475687418202 -0.7939995936278778
P 2.7528268998110383 4.652243902076375 7.104955656657478 -1.0738415470260279 -0.027452696894314007 1.0736029486526606
P 7.076150884010683 -0.06491218939893377 2.6487222730545232 -0.3056805117278091 1.0725050876027915 -0.4215218217698612
P 0.7525662916833818 1.7323352773675722 4.955631923142235 -1.782627839910356 -0.07263032187221685 0.4198475193912317
P -0.1458404050743626 6.9730767252660355 9.463050385540008 0.14752398585731366 0.45517576237888063 0.17213098577271646
P 0.3144851584432258 2.1077448051956615 9.435809553282906 0.3262408523776639 -0.01394412088491792 -0.4273011474557996
P 4.2525135053310095 2.2374105101580732 4.986890668727027 0.8113730519093187 -0.4458807102301998 -0.18681686991966534
P 6.949603940641714 4.258851339563296 11.679668239823211 -0.4196138061138709 0.10105669553370983 0.8573844856424265
