# total energy = -340864.4627340896 ev
CRYSTAL
PRIMVEC
9.28565298818323 0.00000000000000 0.00000000000000
0.00000000000000 9.28565298818323 0.00000000000000
0.00000000000000 0.00000000000000 13.59049175639250
PRIMCOORD
 96 1
Ni 5.517962107717541 4.077060915172586 12.393047461600153 -1.015689621275644 -2.117325050585489 1.1023905623083143
Ni 8.322879286593356 1.9886154302911394 6.99124794340166 -0.0385169251282756 -0.19866785572098042 0.9141459588031869
Ni 1.5975780143384852 3.6913348926926925 8.939784638540472 -0.6091023093284285 -0.06467507158088216 0.32226335578715465
Ni 2.4574294751386323 3.331395128383879 4.930372490618073 -0.12949232516658343 -1.7076346742329174 -0.12564518350635134
Ni 4.3053951205837695 6.114862449004312 12.895718854140622 -0.3065564865748591 0.0518987457518203 0.23033407647600979
Ni -0.23037797761984594 6.104397518158505 12.460252374640554 0.8259298666775712 0.16567340307283082 -2.21894353215994
Ni 2.7632803111627715 0.1830917186675925 4.980751800559446 1.0268649211661733 1.3505117875644161 0.08458158069682208
Ni 0.7310399548674721 7.38887260153889 10.034335619831484 -2.244667676398921 0.6509066469587241 0.3650657956646616
Ni 3.5301916718425224 2.1096353448549445 2.701300435022935 0.11034557703480352 0.4238450705863991 1.2072008113471855
Ni 1.6926259576727218 3.8376303545167345 2.551424425431241 0.5965237013324693 0.5844983947368191 -0.5236738072502788
Ni 5.565133224573532 4.628702984105795 1.0911589322777262 0.26663676756178595 0.2896761658797527 1.8399896656592765
Ni 4.3323792279820985 6.546636024336343 2.407800445953551 1.6923710632056272 0.3637167378359349 -0.5193178442744282
Ni 5.992263973443359 4.7833741048676535 10.365399789241266 -0.4978473331054781 -0.6041969016070111 -0.8192442271272794
Ni 9.106402680354872 6.0990675533798955 8.276256023259904 0.1318932212985922 -1.0113783954948001 1.026334502584
Ni 7.800802736571461 2.202083305370347 11.091023422757933 -1.909988977666549 -0.23286224221450216 -3.9028230129547885
Ni 1.5895644958647215 4.828047381086979 6.650425481333617 -0.754352668660217 -0.9425702755821509 1.0843658435961196
Ni 1.3067699360518867 7.502083281993268 5.14753419843061 -0.9463407983681766 0.6356888015677052 0.9745473427093797
Ni 0.31380585488447876 0.4887874842878936 5.286796706729705 -0.4775690424724162 0.1726485488390833 -0.6227643801965532
Ni 1.5921923356423289 8.073652362102255 13.011346590051224 -1.2175739270513934 -2.2571886916840675 -0.4571606540193933
Ni 3.76198942579451 4.850806516404702 5.912503000518575 1.4045455773813682 1.6477215428170526 1.6294165738602775
Ni 0.27928644013799336 3.351247854336263 11.744889387605358 -0.34676854001737056 0.2906261884978479 2.285428146145735
Ni 5.749732004710756 0.432083716139706 12.381427395530551 -0.897704525417712 2.537977068155887 0.43122927886561213
Ni 3.3659748998743733 3.5509915343931957 0.8937895936735647 0.38416754949111903 0.08395603129768123 -1.3582400094466092
Ni 3.4160152834840063 7.599805493369733 6.149099579901896 0.3196621707188817 -0.8206099971265544 0.7827695292400131
P 0.9826077924608162 7.48401340140237 7.4543578116576885 2.513613808820174 0.2711346554321395 -1.0457183064272506
P 9.604522245831795 3.283295446235448 5.811117599063429 -0.24272653660309168 0.5017615805582197 0.8053196466263872
P 5.131530375615392 8.765582075417415 4.2117753106693065 -0.27772542127577976 -0.19854752809303225 -0.1963867729962876
P 3.7479216616140327 4.9190932080107945 10.360806176739562 0.8362762429089018 -0.709386902582804 -0.796273734374035
P 4.2014329504421015 2.0890490523215326 12.822805121682295 0.21843758214873996 0.6176419713683233 0.9918773493473948
P 6.697852882210321 6.330447452950285 2.1346044655686764 -0.3478283487404526 -0.45805102704414663 -0.12489236450072684
P 0.15256884893977213 1.9176358993369678 9.065999875915482 -0.2165048839024013 0.32784779185346763 0.7597630410425109
P 8.81981957414888 0.5560592540293496 3.049325778064441 0.14167652593760116 -0.05756262890581699 0.3310824967406814
Ni 5.036621717075023 0.4475266855182883 6.27644209554193 0.34648854688310654 1.2642214517066033 -0.6357908743632082
Ni 5.873686185598673 7.762759416540163 6.423450695510566 1.613869627264614 -1.9673307488108116 -0.7408867729632982
Ni 4.134817676362402 2.2601836357183656 10.693135052077649 1.246461556620021 1.218810884782288 -0.0837004636434494
Ni 6.071656305947044 7.824295438470212 0.6586796473234406 -1.4480247316109256 0.10333777825840267 0.691241599132345
Ni 4.904347591166835 2.992134513137722 4.893011666076718 0.7000977639713942 -0.8040644340630475 0.6804573640326474
Ni 0.6095613290492015 5.238324669899005 4.765152868134087 -0.6264225457744309 0.31277958466643546 -2.081494156929809
Ni 7.235566471756919 0.3229197232297849 1.5044809866836666 0.19000066696428566 -0.21577263372206712 0.2421290122284088
Ni 1.6543969245829355 1.9906211313228117 6.931340624994552 -1.15040848494849 1.1151316640240665 0.6324450978194269
Ni 7.512789639815109 1.7750361273768396 -0.4290324505887456 -0.1777596448134035 -0.18654690408773034 3.2449877571970305
Ni 7.374340554712191 8.282384554190015 8.56377605184597 -0.5270326964201827 -1.093301969743485 -1.3149922545015675
Ni 7.663514358084094 3.0065644177822515 4.864689496091983 -1.5594506861941015 0.5141962067771467 0.1921318543746756
Ni 0.5335721883423117 2.57386227715778 3.885657608572356 -1.325464614787801 -2.2359696344042908 -1.0829095707655674
Ni 7.9326590080980495 4.561688426950345 7.079164505289951 -0.2998806172165803 -0.848743265027661 -1.3947483887852883
Ni 4.861178590721264 6.135708739819608 7.741279844195423 0.9898806306323404 -2.239893652049046 0.05491027888463446
Ni 8.338339898712494 4.703823916264253 3.0867952447450104 -0.49523123563886967 0.8666450850087463 -1.0033848357663622
Ni 4.5058073676512596 -0.06784283739630707 2.024154409728725 0.06820365355943092 0.22298740630295144 0.8834151053782334
Ni 0.5847834927857122 0.20868669238842968 7.701446250280299 -1.488770803180036 -0.8214139810850885 1.4083775495329487
Ni 2.4830207345982998 8.50591807703928 9.09812730646864 -0.033895881416496465 -3.2916221692261183 -1.2842007230420076
Ni 8.342982725174698 4.0742937906011125 9.403668930250396 0.7990615815318174 -1.4255424913480093 0.8197849301220979
Ni 2.259691496113372 7.450780049585915 2.7946946035713345 -0.7779875344703375 0.8540999013538838 -1.2349113898885766
Ni 3.5171824720954272 8.217728552877364 11.900866999733683 3.3014252713594696 1.0769114442006034 0.06625218626001494
Ni 6.026444461858103 1.4917029996943894 3.4063210618309245 -0.249979361510763 -2.9642942544318625 0.9677830274023524
Ni 5.291940029884534 0.32261701094444917 9.922486216095825 0.7025372266508223 -1.219638780000222 -0.09714733317697463
Ni -0.185928485635999 7.638749521734699 3.294103946239458 1.3610538247463206 -0.8195422179836724 -1.738965366025399
P 5.932362226428006 4.5131337478086175 6.2508239076887815 -0.7648990767174956 1.469525838907495 -1.0759426525294307
P 1.4873944567374642 2.268392152903542 0.9086735667460977 -0.3605200852755081 -0.16849981677803239 0.3354970808686093
P 4.425662897260698 8.223717799013606 8.032796417800155 0.4849244543962229 1.2054660880442658 1.204620966435151
P 7.900233508086018 6.284251329651356 4.681638634297257 1.2248861444420904 0.04686092621759671 0.3307680508240562
P 7.0818517732462745 5.7686561653706985 8.892543879287548 -0.9056600328193628 1.7726869266475598 -0.8991530849387805
P 6.103580380701158 2.1962426296808943 9.287021629648693 0.055091284547188986 0.11942491362825239 3.0961702493392744
P 3.6521308660458436 7.672586440991241 0.7601430482631504 -1.2360383044041678 0.6369614976325418 -1.2136704782319292
P 5.855913445901357 7.766947246009071 12.0297592908468 0.14404913993483578 -2.6701983622178593 -1.7018651187389917
Ni 6.010900278862644 2.7579317750783123 7.393377071772519 0.6447123452225543 -1.1469688631393216 -2.7235544092414967
Ni 5.45275825288235 2.197941904166061 1.2520050122343156 0.016550191049197305 -0.40717146658546 -1.8167065267616196
Ni 1.7796696681861188 2.141902988767261 10.781459254129324 0.18988882397676976 -3.0084547509991606 -2.409398255942509
Ni 0.33843604926647003 0.8911181113272126 12.429850218400752 1.0666000349722664 0.177892570846842 -0.6109558175973994
Ni 3.3671077495311508 1.0748978968765037 8.757631699383536 0.612686684245577 2.8607860120338664 -1.4684277207473095
Ni 5.148801690054791 7.086438885790932 9.867960862123702 -0.18006849545223827 0.16624778751906208 1.1113626838999375
Ni 2.538558224739182 5.787858895618373 8.284831323735595 0.9653397080681828 1.8753487618848605 2.294043398618572
Ni 6.822939912755016 5.97555908383235 13.144709923047442 -0.20119859256263412 -0.8660796994235794 -1.307613445538993
Ni 0.42800452881001366 9.17038082900404 0.977782967201294 -1.457530871329148 0.6799966223461451 1.3991514029489904
Ni 5.829635048125283 6.11921742022586 4.263948608755676 -0.23361737521297188 0.23004637003226186 0.7191095291872067
Ni 4.033167633798911 3.4997625872092386 8.391897687649893 -0.6724082684759258 0.8188639609697252 0.44864850278332413
Ni 2.6355282982287713 3.791016376836209 12.000064701359836 2.109263356623277 0.8552124176917724 0.028611750199421693
Ni 7.58041705006357 7.074729677453254 10.669542065127313 -0.5081543714584409 -0.5215837574904694 0.48614315729467245
Ni 7.546635844724575 8.446629183116936 4.658684500268122 -1.749855016354709 0.9909502095474354 0.3043337678919275
Ni 8.3119779300601 9.302274243142326 10.280581849733851 1.2343876561746223 1.030383475842393 0.8003360773688668
Ni 8.624319437478402 6.349575897974565 1.0022255913942122 -0.5354797987462714 1.4768408845116694 2.041785525486277
Ni 1.7455077510772232 5.234814693093578 -0.07320994478661469 1.3679428385566699 1.9137247905598975 -0.08122809084355688
Ni 9.298559981972565 4.044477559060839 0.6076921271155182 -0.8302331220386154 -1.6255614617802454 0.41455670330593763
Ni 7.963431661889536 2.557779526292706 2.044716559564533 2.2754939177511586 -1.8271282363155759 -1.2203800290416207
Ni 2.745943997152902 0.6281911345114406 13.775050686210884 0.6515018573405618 0.6632615689796513 0.4640190717021234
Ni 1.8740861871214958 0.47920469046990494 2.8606357392487234 -1.023736659949837 0.7323735932859645 -0.3896170026414644
Ni 3.8992035190584815 4.667702726388306 3.6025538365171386 0.19543032262028923 -1.2460046715882604 -1.9133969749068336
Ni 7.884447898114525 8.632583668581123 12.8673827556765 0.36769166332328285 -1.0736142615065705 -0.4136213359758618
Ni 2.401139847110873 6.422338274290222 11.100115934101511 1.2662654787198258 -1.0504007995045845 0.7152963260887036
P 3.605516888365317 1.8271750685473884 6.586087977916273 0.8585052295104313 2.043873261253241 -0.36591374548725364
P 6.463520145009971 3.4307609003279653 2.977336896637386 -2.6429151010218743 2.7624613707193393 0.5930568258297915
P 0.8202500082081335 5.059835849386041 10.872121583587361 -0.012563438487307396 1.3929254766439365 -2.2098886210465234
P 1.1481431271442313 5.77952966494518 1.9238155013581608 -0.29088458436555714 0.6323790204681818 0.5555246332122884
P 1.9123523628229797 9.206697017591399 10.97119578602962 -1.688219245820783 0.8154935018355955 1.1840233447894575
P 7.705318367549777 3.824426156058227 12.648453059547156 -1.2177317927854963 1.4911233625726128 0.46820354209711623
P 7.3145502355319305 0.08816634595195808 6.612969943132435 1.076083291872353 0.5319586729668903 0.7480447241643182
P 2.9257792373399045 6.326083196075813 4.4451376971390575 0.5536600691997239 -0.7839211263459532 0.4302206350954397
