# total energy = -340895.39838373545 ev
CRYSTAL
PRIMVEC
9.04271921299755 0.00000000000000 0.00000000000000

0.00000000000000 9.04271921299755 0.00000000000000

0.00000000000000 0.00000000000000 13.23493362029335

PRIMCOORD
 96 1
Ni 6.428369687531836 2.0415476104497325 11.495969270775884 0.05914411446032395 0.6268766025927139 0.24944534338416394
Ni 4.66857512534156 0.2277671097071176 5.936039738973478 0.009038456053184433 -0.321960222724439 -0.15924487383866767
Ni 2.7631656541031413 1.5990421410172748 4.690685478326322 -0.7475382168415449 -0.422983236806736 0.3125103901654489
Ni 3.6201712912651383 4.124013525776994 4.845242732500075 -0.5853352888158176 0.59971212636278 0.33368162492642534
Ni 4.989211866633806 4.331471592185893 2.801174011906728 0.8544526567076123 0.9181759058981863 0.43032322211157503
Ni 7.150602636098321 5.976722028877017 2.613502319619933 0.10434539358731061 0.49621879636311955 0.6170909839608598
Ni 5.160833636417369 4.60205688209756 11.616023125150589 -0.5187185201275325 -0.021150151715053897 -0.059690473882097195
Ni 5.61202011638738 7.684177331701297 12.336427635872601 -0.24847063817572043 0.826631520730286 0.9825427022100303
Ni 1.766811712374798 6.6573765540563485 0.2122470905554485 0.6911950621651257 -0.8508078608661735 0.07196672014628895
Ni 2.766990724371251 1.5268450700466254 0.23264113541518128 -0.6312179102805452 0.27337485761656793 1.1824248899540861
Ni 0.5900745101234808 0.20410954744842352 4.517546340242549 0.9508284018258851 -0.5161260768100079 0.4419577210267098
Ni 8.539609535703361 2.4488769017664804 1.4150662081124576 0.670490996848555 0.1532068951747039 -0.14537891448985285
Ni 7.230259950499681 0.5540456035768426 4.860767273011398 -1.5673228898533265 0.25989713484510724 0.41253247378705726
Ni 0.7629884844964351 7.515919453501037 2.3285544786282713 0.4387379285378315 -0.7542950759494043 0.9324221314045553
Ni 7.519816865523625 3.782858854370468 3.955485270269366 0.22748195173919533 -0.10737389600098926 -0.12150647874762945
Ni 7.696140849348362 3.8910459481947237 12.829865317546428 -0.5333308707240687 0.28164789625863756 -0.8996094557499087
Ni 7.830398102943206 8.738703086750556 7.130651684484776 -0.24080078033528848 -0.10686173225126112 -0.3506519342321768
Ni 6.893798450415019 0.6609857064082555 0.2538218968548797 -0.32284673909445044 -0.5701500964349471 0.719426289096677
Ni 1.9810337328275398 6.5238608034449195 9.218422963231186 0.11134496483359535 0.09815571983683095 -1.0882721206290613
Ni 0.03139541717221927 5.075940587535547 1.4071511159004575 0.5101822005217472 -1.1343948831290527 -0.29315306868475965
Ni 6.255102142833863 1.8310964039492406 7.052393278760666 1.8313877829228784 1.0503321510501782 -0.5152537015073836
Ni 3.5642059014558507 4.440210291888055 0.8154715230994602 -0.49480700361725755 0.0018326823333645855 -1.6308504780933268
Ni 6.044804662561639 5.5224881524995535 4.784680024193609 -1.0279926070127134 1.0384217727658376 0.12295863781312372
Ni 5.416833020082085 2.930998524495834 9.372159138491595 -0.7675321434649685 -0.18682998254578792 -0.33277633950333657
P 0.18913299572728248 5.521909418463717 12.414248373982112 0.9387025650966286 -0.04389875826547924 0.09020124087644465
P 3.9115638783090025 6.140693658124361 12.656474791865838 -0.3512304324434661 0.17082100871204128 -0.07939489428956004
P 2.3732164693001194 8.527899214196974 1.20768138772997 0.1610706141934968 0.6490893912443273 1.0384425987014438
P 6.314992072823669 7.72800739219663 5.661904277460724 0.34233158729193947 -0.7824967351946008 1.1778912637497907
P 4.705017284160664 1.0611902391806929 12.640804663573626 0.7532080135328124 -0.08468262505106061 -0.6158403993832103
P 4.034237408467799 6.126234349947749 8.092725581581025 0.7163250244635341 1.2684221200515122 0.8963238430201015
P 4.635668669772648 0.9356320815620217 3.7803205630601653 0.04339867870060913 -0.6762032167419838 -0.8919169722016574
P 0.1267210513219309 5.492041316582948 3.5550619036896283 -0.060771365651101784 1.2414921284298877 0.33684845269018115
Ni 1.5152161330140281 1.2410860971328603 2.4600962036143366 -0.5155766320644412 -0.7295497506839242 -0.28168492014416
Ni 1.61476742989728 6.551929404183008 4.830551930709128 1.2308670446158738 0.15637372293845972 -0.45525289547371917
Ni 6.249540870458243 5.843432346248338 9.175276532315685 -0.9770585391670075 -0.8776301232653401 1.413714645475146
Ni 8.680169564657241 2.4353851645560334 10.041993145744637 0.05442948259347401 0.747372637797958 0.8956443004545737
Ni 2.3586667339304084 5.238510595289849 6.9786480942441536 -0.761550729070553 -0.4975007483993367 -0.2347250064548538
Ni 0.531044542740051 0.20102417161986819 9.211526985485417 -0.20384220083306828 -1.200877440232319 0.8036404591517514
Ni 1.3445167206000812 1.1282058319867405 11.262214072341717 0.3720774510958043 0.35676910287350816 0.906468130542955
Ni 4.0047219726401195 6.733959343892324 1.7040244951180834 0.01679675984236462 0.9191518966582106 -0.7065136948000671
Ni 5.6577220197798725 7.899927571717421 8.144778186744897 -0.13148235901341873 0.679546936403236 -0.5188229069158807
Ni 5.441619113710661 2.5663418256027453 4.839353209413503 -0.028305274702596413 0.49884697801458605 0.35365755382771996
Ni 0.8386905134716217 7.5481477051217025 7.090139397704264 0.4013283775411217 -0.8574158531009944 -0.312336840702062
Ni 4.930705472698422 4.335106765348493 7.273853091749093 0.27059061000321144 -0.13978856488626892 -0.4346845844040643
Ni 8.358321098977463 7.174339774286943 9.0192100482891 -0.6987703034092224 0.07437070160209128 0.24821172808737896
Ni 4.745673350178203 0.5775774720371284 10.429035096289512 -0.9506710503124145 -1.2263043649458558 0.3764069317090937
Ni 8.304815328820482 7.294074420670006 4.754424893926373 -0.727575657676689 -0.8303742756021699 0.07364359362807961
Ni 7.002247783099263 6.054588884855007 7.002233314748367 0.8813476813262434 0.13661299537176474 -0.7104695941240217
Ni 2.2590340525733668 5.0464161089885575 2.7222536791291296 0.4307196862190453 1.928559284469569 0.06523171541530055
Ni 2.3471824804067705 5.20322590454242 11.185371756461546 -0.2540219070112529 0.5293983684388818 2.223721413164557
Ni 0.9758088834561345 3.412279174329362 3.6460388941231843 -0.8274239347245944 -1.2646271717854543 1.086832302858741
Ni 3.6047805829996014 2.545823895488466 2.530744256767192 -0.5023665611320702 -0.462704466655758 0.7262358558193428
Ni 1.132202713921739 3.2270119411070834 8.053033469441926 -0.199506806682508 0.62843623377035 -0.12395802561191556
Ni 3.5249604996506627 2.346748429879893 6.8391523933530545 0.2350854751180661 0.6162880284435902 0.5053675527419232
Ni 3.9289711129806584 6.811762900835143 5.971813640835576 0.6809265903595821 0.39797617323943724 -0.6965889794871875
Ni 0.6710809982458849 7.3100257775327595 11.201624235877322 0.683901613827506 0.3573244611563459 0.1277141502202381
P 0.2975877540431121 5.465392422776522 7.8731050577002435 -0.41457110148364085 0.7360407577249065 0.16738241534413753
P 8.525692790685348 1.5709735402791867 7.977872195081475 -1.253837280258802 1.3497026613995593 -0.5580227170437938
P 1.8623389991651216 3.29061842873328 10.391673292916586 -1.0137368684246477 -0.6951100809488159 -0.8294648764140231
P 3.911808031730371 6.086979905423251 3.8150491265700324 -0.05284825414928318 -0.2213627262153349 0.30724271400860637
P 6.85301578632714 4.045631234798337 10.496573358271673 1.8887678635042442 0.4662042522789003 -0.5266948534647897
P 6.398176047755909 7.850798477706456 10.317702944689255 -0.030020714731806362 -0.4596705649254406 -0.9343576578643715
P 2.377918683341294 8.50124127767124 5.752140669182796 -0.12695361790512974 0.3973233701467867 0.03623301419010534
P 6.821176371636803 3.959734444073112 1.6904052555653661 0.7976377046010973 0.5963966888363019 -0.35825751449357657
Ni 5.226782188344842 2.7263437010730205 0.8616129026504169 -0.4796174403610128 0.48497741912134534 -3.1381278247179827
Ni 1.3993608132149344 0.9093358538086838 7.1799254620047 0.8603967901061892 0.17720017276550773 -1.8277231895870973
Ni 6.8835078358402955 0.8196555893241747 9.364787513710125 0.004461378205463284 -0.13737584167971825 -1.3668542334781815
Ni 2.7344911911712866 1.663616199609636 9.15230079109296 0.5568245829706346 -0.41794593149314474 0.3232331758995917
Ni 6.373634107548702 1.9880689684506818 2.608432971174775 0.9121109306510292 -1.1236669551885874 1.6056523815611443
Ni 4.130668967189118 6.866851146871365 10.547183649705609 0.140600519264603 0.35013591382770665 -0.8913906673845422
Ni 8.170675630576667 7.158053836809721 0.5486281104382509 -0.7015733200756562 -0.09550182715375165 -0.8137778046960694
Ni 7.603579574491702 3.9219720482347564 8.248248598177081 0.1661032915213978 -0.4900108677801948 -0.5929742934183143
Ni 2.98162870991225 8.488482000724899 12.307032468211744 0.7817297751215891 -0.5840929317682845 -0.985818801858141
Ni 0.13386751239258526 5.059799333567286 10.00517300125838 -0.36628398434247883 -1.1676035086705374 0.6864050969756501
Ni 8.85074237900085 2.3029274121038696 5.835401507229171 -0.42899987531446115 0.43171367470119837 -0.07592287658055956
Ni 3.6520378341134054 2.6989623470024884 11.521565592054632 0.15627884923180826 0.2670576571492884 -0.3604115847221019
Ni 1.2519554457434214 3.346683288454977 12.658605256535264 -0.8179738450552881 0.352547865703309 -0.24157365394557107
Ni 3.284713533023882 8.378323594091073 7.98452944503746 -0.4313478067213475 -0.15892528571571984 -0.34370301371816936
Ni 5.464451979968287 7.734798474398403 3.602046064680272 -0.05465573967166716 0.9532156711111389 -0.09336061244103276
Ni 2.9477275552192435 8.272822187901875 3.473230719566157 0.22669673683373862 0.2708333221416368 0.24501378997537157
Ni 3.4956078327705615 4.412087434834107 9.280653148978407 0.09981922358218294 -0.6277993715172995 -0.0451367444376384
Ni 7.429552441371693 6.134454181800495 11.48366122552311 -1.0343437460417217 -0.29276328944550867 -0.3153833408378698
Ni 0.41753580860188966 9.06179944769511 0.24101740631198895 0.4397704835674039 0.7105066180095441 -0.2611778013297437
Ni 4.7633699518677775 0.414327451790719 1.5639853267964565 -0.7633160485010918 -1.2958632469816005 0.33454063049261096
Ni 5.926109928899221 5.610564238578477 0.5085073734038599 -0.012837518084300472 0.33521245974865493 -0.253764282474492
Ni 8.047287725592383 8.946242537633243 11.212053204057487 0.15905024132935836 0.1475736081483265 1.1118720194361884
Ni 0.037536327855607066 4.911146070830998 5.720019121649988 -0.5667832368452432 -0.6431843386138019 0.5991968772892584
Ni 7.89270243898877 8.76913183722854 2.667977469286941 -0.6171179805440533 0.19657266375484853 -0.7571826819098443
P 8.416917920105945 1.735379220053408 3.497291587106074 0.7229998653805485 -0.04783074633003375 0.3728811779440223
P 1.771803293433891 3.2869561274127492 1.5630195643741538 0.04937675066091496 -0.7900267250230588 -0.796063675245758
P 4.759074660195551 1.0730452441960387 8.237899205926842 -0.7536612990201472 -0.5804314237562971 0.4004688577543038
P 8.445203546107471 1.824332449905397 12.436563092423278 0.9497295123347514 -0.7517512264816278 -0.41851980171874376
P 6.282212215325096 7.801633212818252 1.4305907486237817 -0.12079505450290165 -0.7399951143869643 -0.03613274116681519
P 1.7829981799396104 3.410606271257021 5.814278619193056 0.1900618592195243 -0.6693561119131634 0.2622586930987483
P 6.695057565420914 3.923988574640876 6.091033756489903 1.1396057379060307 -0.06683968333236874 0.26781716102313236
P 2.4411905903530218 8.498763572580312 10.009275683009305 0.0035830893655680227 0.5195435871319891 1.6046974738470425
