# total energy = -340862.07274912886 ev
CRYSTAL
PRIMVEC
9.28013561014246 0.00000000000000 0.00000000000000

0.00000000000000 9.28013561014246 0.00000000000000

0.00000000000000 0.00000000000000 13.58241651592904

PRIMCOORD
 96 1
Ni 6.2159184283752795 3.0157285853062605 4.044571760231752 0.12861892142269463 -0.7361469442854678 0.43270252097702894
Ni 7.150409535393153 2.207233880997297 -0.06455448011517331 -0.08498164434871816 0.22049832133251057 -0.5209142422272707
Ni 5.140851825427928 3.7654614702182436 7.217505844682809 -0.010048385374937534 -2.973160189462925 -0.28404236463274307
Ni 8.704396102588765 2.8124936129762106 2.6573594401247504 0.42547412154938985 1.2098482762723615 0.511131451808894
Ni 2.707655919715362 6.352113700243582 1.898753817448166 -0.5809019356348125 -0.6567898452123785 -0.7655127990420945
Ni 1.617536936625575 9.13894773794616 9.984176003486814 -0.8770289993462316 -0.1407522143511189 2.1380756528692793
Ni 7.6142678393632535 5.105197543980802 3.681894776047702 0.5765572855128716 0.45384135983817325 -0.6847971290585819
Ni 8.488187500518192 7.517819388795846 7.572645502632773 0.61174077539254 -1.305309994216797 0.6042699209367915
Ni 6.048495499799643 0.39989032843261163 4.3588147880647625 1.0291233781830469 -0.203007877857231 -0.3104704769172847
Ni 3.446976492346326 2.4117680723285435 9.961276340577149 -0.5752143983317319 -3.2507020339729884 0.8995665183271153
Ni 2.0020500801654517 4.058286872816527 12.815783912011344 0.9862255503782563 -1.3317095672562484 -1.0717908351445864
Ni 0.9450704617419021 6.962041340491081 4.203934890932107 -0.9895564145237021 1.2601884192878103 -0.9263363302217917
Ni 0.7141825409849532 3.197266600316327 6.691961550549462 -0.9682792503124806 0.6956772663061955 -0.6370753975025867
Ni 4.455012674967652 1.5513881291932186 8.091914568990342 0.07925656893948285 -0.5576475930925622 -1.0794738056111408
Ni 0.05514256646507574 0.3396538954692727 5.727120687663636 0.2834731223928344 -0.9189863176146237 -1.8596868869778875
Ni 8.640242524336816 7.625979370645469 12.729685596815612 -1.0738688007195376 0.4969410192411248 0.7991765098431268
Ni 6.9218769130826585 9.146362566388703 0.6801884758186423 -0.5069896617263784 -1.1471570678907275 -0.7612625084061728
Ni 6.9161232289345005 2.0799660996943605 8.310428356774464 0.32764544603467444 -0.33276631220100755 0.029717324558774627
Ni 6.13753840206023 7.738287573163198 12.238476876843176 -0.8272290451049689 -0.5425480184469624 0.36715018899751606
Ni 4.0362743908819665 8.588552168360636 13.498667339243896 -0.6201117730650545 -3.294785397445448 -1.109979687509482
Ni 2.3694692137038698 8.626777047402985 1.86436349048649 -1.0579770691899455 -1.4457994418248328 0.35084810940338285
Ni 3.006299967411862 5.640104567044917 11.27887929064075 -0.3501937636488356 0.6643874550539783 -1.0695490902982612
Ni 6.908708400491957 6.275914505823398 9.442686580154495 0.34323687271502823 3.3063574185537634 -2.2727127554615953
Ni 1.7571287381684342 4.057108295579727 9.96532433577945 -0.25459423457495506 0.1507556054207339 0.836996408904378
P 4.280852367857239 0.757324963946833 11.378180454929357 0.18404856314590884 -0.7274890115001535 0.6318560580851763
P 8.479222889409936 4.083705164561367 -0.29099350380659605 -0.920440276452331 0.9972962063701213 1.3332146910468652
P 3.7627423904514536 8.343491624327775 3.62425028499175 1.001540840579088 -1.7743157205002345 1.385886567519284
P 8.275338307579288 8.538300233421493 3.990608699017048 1.0440627731016985 -0.5727841916236845 2.309072525037552
P 3.025314965507947 9.148116512040318 8.543095279549481 2.9438532129686914 -0.18959211867195735 -1.3617408235110162
P 2.8517671473552415 2.7023569622176242 2.8814422373561452 -0.7884591234256229 2.573157729822078 0.8720022355556014
P 0.3909971743694205 5.739921706879712 2.517351888501508 0.2518058731965405 -0.03109492163259161 -0.6439633828716715
P 0.7981603451680166 0.26042473673558303 0.7155894095605347 -0.5960069095970509 -0.9461322819017964 -0.17678673937717296
Ni 3.9086632445572853 1.2542474634838179 3.88755928790999 0.014451142428323498 0.6386779661030162 1.4065435816480034
Ni 4.533262779382584 0.021620860207057127 1.9613279166000868 3.030312213193884 0.6570842365243458 0.28303269242130613
Ni 8.851012966873808 1.1965992603735771 9.891069329793197 -0.48994196221547237 -0.5372546312585069 -0.380270528429558
Ni 8.688675552674285 3.002058945386527 11.445087449450268 0.2448970618918492 0.8368208025584619 -0.28671682614111266
Ni 6.401252018895984 4.2036880393218805 9.389972625208083 0.007314274273226113 -1.6405587065200264 -1.8135867501857152
Ni 0.36797594168178777 5.564759145111233 12.273343274767434 0.03120702173042367 0.09688328088231056 -1.1282728293917148
Ni 6.873119079994892 7.489514974841205 2.8580665034839003 -1.3665058489998272 0.7536533286003473 0.35696219272092067
Ni 3.5814270986987355 5.322445521252331 6.5484229072836815 -1.4206972474405661 2.5463146414873052 0.6407801000476836
Ni 7.02603715643574 4.461694372688092 5.885274616679306 2.2448347981044052 -2.9041782629765724 -0.18030375139149593
Ni 4.065367616373049 9.1218537279447 6.255368285333044 -0.3523041251236191 -0.3651251881476873 -0.2858706760907334
Ni 1.591905201759109 7.426771977219128 13.428310918274809 0.6787115849861343 -0.27106652119836544 -0.320558457280906
Ni 2.467912893451685 1.8252542145097537 5.940758692138982 0.3995052082894539 -0.3248185181088406 -0.27436807476777264
Ni 1.9193919112821751 9.065597545192883 4.290372859095294 -0.013661299537176473 0.15437674711308896 1.3636987185683354
Ni 1.1845536442053395 1.3515404064020025 2.7727013190102734 -0.9133679429865817 -0.17269508580630258 0.7970728332365627
Ni 7.618017014195279 5.918341596286905 1.3744456373930998 1.0430839541281973 0.09298086050411085 -1.4631657010174222
Ni 3.8592001211545837 6.079918039357158 13.352398480048459 0.2853328013093925 -0.45698581900442586 0.7095974759317135
Ni 6.97484792778859 3.8634318630441955 1.7921863068885815 -0.2879604687402267 -1.317850549885969 -1.2237777418692601
Ni 8.932910164627812 7.788817912174027 1.5869969379753026 1.830043610190158 0.7615733547783723 0.42030671841583744
Ni 7.667090371897621 2.0319785178715892 5.961797687836217 -1.0943728342101604 0.16380421107457596 0.2277586024393497
Ni 0.05372363371305452 5.768727248163386 9.536527312583784 0.37043991549238137 -0.24047090779969554 -0.2789914324723969
Ni 8.82982641701858 7.708758181293143 10.353917026983085 -0.9588407306074003 1.8181460874216235 -0.3755484403635403
Ni 8.039446537640586 6.630619853421534 5.397544091575788 0.3931712956516261 1.047104645251816 0.13158237492639274
Ni 2.931409272128597 5.716786328522688 4.021726850122853 1.2711598306976495 1.3117410945541215 0.8073832140236353
Ni 5.01541223086239 1.1866509548786999 -0.10587799647537792 0.01723796114484128 3.4233562392390264 -0.47655602782686957
P 3.8603137374413237 3.4485541154192076 0.2616506426645693 -0.02719712924008219 0.17972628162147114 -1.276095320326054
P 5.122950443618583 6.273046943885042 10.76312832373571 0.5953085979784457 -1.1465605719573093 0.06217518797716389
P 6.205376194194141 1.6867017881678517 2.092642765091751 -0.00029876218734142096 -0.2880237178779943 -0.2674410086306362
P 1.5394260342464865 7.197988791244119 11.02843348384793 0.029296692081588253 -0.16242532844917834 0.44931621827431006
P 2.8897229024616293 3.3709443403691526 8.266829351135021 0.29807853101083503 1.8301881061878222 -3.0736296450345972
P 8.581452864532668 3.412482227864555 4.7430207591122135 1.5355126873212652 0.2859663211283333 -0.6295045271338643
P 8.35058164802002 5.347566848654041 7.470953775381966 0.8210653394964182 -0.6722362616744357 0.5530833707606475
P 5.425213744246988 5.435032127841746 5.031673812689511 -2.073199006800552 -0.728565532393784 -1.721071002243481
Ni 4.174529852880737 3.6492092100183107 11.468924406067938 2.0994931646103905 1.3541195595203324 2.882561198927429
Ni 8.9518045209595 3.6727621944828615 9.00921700862238 -1.4833249495741163 -1.6290147104361687 -1.0303816760701803
Ni 8.144980241080647 0.6700573516500251 2.4825124029708467 -0.2510466264330128 -0.22077600047392945 -0.3037233880014383
Ni 2.7386144524867344 1.5008856305895597 1.1697555397817094 1.3815596580091563 1.4312580536755481 -2.9643474762673017
Ni 2.1842933854904527 6.355185425167839 8.64319824756454 0.17158385501999485 0.5604552377446864 -0.2595510643595982
Ni 1.120650629617909 8.722863572677202 7.642160215291802 0.8481010034579718 -2.021770515816931 -0.789591437257853
Ni 4.607095539193446 7.578158831265709 8.518130786441487 0.5125563571808786 0.6121498379055006 -1.399238820456474
Ni 1.3409146509993586 3.9529573323623683 3.857420191122944 -0.6553441139047875 -0.34602214876964926 0.04445848742369118
Ni 6.181795369322421 4.963601233121811 13.285925795879375 -1.6189611828549084 -1.0491291318810125 1.4859004236107767
Ni 5.351418104979016 5.556713267439536 2.634200861428419 -0.07900022995430266 2.1922238567769083 1.4142311801002483
Ni 7.013926579317443 9.160301330244398 6.612708263462893 -0.12409557963104434 1.0064305645712215 -2.05892707026257
Ni 6.057905557422596 5.8350616583102 7.176079318816082 0.11993990559145797 3.3145612945207943 1.6466378228345704
Ni 3.6207470337563805 3.7996680504926075 4.984733030176275 1.0810447496426865 -2.608435579187766 -1.5168580483345555
Ni 7.181377348300247 5.574781691691892 11.474601993103168 1.4884504437261399 -0.27055281478674054 0.2788039990519392
Ni 1.268269748561019 4.09393187412793 1.323117206710109 -0.20757621395420378 0.37441715497257455 1.8338326449189448
Ni 3.8248914593872687 7.883401055461144 10.653327613890289 -1.5981208490707897 1.9634692089728767 1.3806368890845706
Ni 5.714716858256497 7.442798771612463 5.404892103041127 -0.6607213190563007 1.198990250511935 -0.6383951447552747
Ni 1.4858239703114011 1.581947616128509 8.179358503865883 3.1324734546456825 1.9868297380756879 2.13294321673872
Ni 0.25785042708606903 2.2476952727488504 0.2181685667352337 0.8721590728484399 -0.4762662645005927 -0.17027387795931967
Ni 2.2079762918551236 0.28700768551363914 12.443259775811795 -0.5504901561121746 0.9999896940418843 -0.7707012852215694
Ni 1.1673482725752065 5.377857211653368 5.781898544794804 -0.4889492592848998 -0.0109986651033488 1.5454196620223322
Ni 6.367407363914811 1.0613320020775583 10.485096385493193 -1.4041912793657427 0.6914737697478092 -0.7363048100195706
Ni 4.423608695681585 5.295839372134967 8.75801023070029 -1.2871189251300672 -0.5710510109826618 2.208463458564222
Ni 4.780003027981276 3.5993934414581408 2.2385181465325403 -2.537706845213636 -2.9655900904251506 -0.7215438496603122
P 7.63282811080892 -0.15550909033466292 11.529543180623058 1.1339161437204213 -0.1614421386003026 0.7840273129065142
P 2.314929856060778 7.307596474266503 6.2000605324521025 -0.12147048330337144 -0.23867627779311795 0.32901378713711077
P 5.530960890808673 6.897665038981787 0.9883261023596006 0.09001123635282562 1.1229465320827952 -1.1674163323603959
P 1.3859789900694373 1.950248362560596 10.969703216912407 -0.023481628061707945 0.29938876518182633 0.38582745369204524
P 6.441908293497717 3.1802282711292045 11.09735055576641 0.04236998032577864 -0.6799850523819193 2.414806314331957
P 8.919546769186931 1.1197968571314083 7.6209309768122475 -3.3674118626629235 0.7359065461398875 0.2160991638235504
P 5.013268519510415 1.9154849741428623 5.831542630844101 0.056802096590708624 -0.045768464484366334 0.03145384763390712
P 6.68075114659628 8.204484471335455 8.287895259225854 -1.8488496871530675 -0.8689865886577293 2.7930014482897256
