# total energy = -340892.6465578468 ev
CRYSTAL
PRIMVEC
9.06867903586965 0.00000000000000 0.00000000000000

0.00000000000000 9.06867903586965 0.00000000000000

0.00000000000000 0.00000000000000 13.27292844512677

PRIMCOORD
 96 1
Ni 6.35772448400518 2.014017610418293 11.173191302244105 1.04298548087712 1.0467912277764553 1.6499121227104683
Ni 4.684462492883405 0.277331997881374 6.230803784873724 0.03883548480995892 -1.158339052649476 -1.7075709108745172
Ni 2.6539489550798727 1.43524543798654 4.968177027154956 -0.29126510763342744 -0.7910919330627795 0.646701607738441
Ni 3.114003048677009 4.412383980837253 5.117523662971929 0.7584358375906551 -0.2615603814801431 0.13261364440438453
Ni 5.098855786928766 4.398463558332392 2.756336156489894 0.3160158322155461 -0.19295435027597094 0.2196236320370411
Ni 7.288225377512528 6.008398962905995 2.3862469875945322 0.30431011374284367 0.6241957133264411 0.9054371181752794
Ni 5.209638771501654 4.66814793908129 11.30213794429907 -0.7710211304548334 0.07982786806192059 0.3735447796699502
Ni 5.668368837941975 7.835746881571804 12.648768783910201 0.14015674685896506 1.0770358855936095 -0.014622120788549013
Ni 2.0352564570022573 6.204890034184708 0.6231307096566898 -0.43547159908173394 0.5417270652075639 -0.748410335033853
Ni 2.87318427368249 1.5565571590598475 0.4192350618468885 0.41138653310807216 0.1308992328164391 0.3146199803092839
Ni 0.6447839948780948 0.004824537311131018 4.720212132985303 0.37013652531934965 0.04116027628839363 0.14675959688746337
Ni 8.710275887326707 2.410074035209693 1.588146089164853 -0.2525275818539135 -0.06347899439025197 -0.004268802578682971
Ni 6.633512085826243 0.6606405803828177 4.484086399454149 1.13208988914496 0.08193308733038147 1.0713879432792128
Ni 0.747036072968688 7.297139889123132 2.5047873203176865 -0.02883003685781486 -0.42362241305263176 -0.42770223954896014
Ni 7.467884980277221 3.653462496966369 3.642967314578828 0.7267305360675743 0.1042857439939688 1.423798254963393
Ni 7.83575595025096 4.073151899638987 12.61125982005199 -0.20728619351761077 -1.0285032281005448 -0.5694276164466258
Ni 7.990249968357029 8.792075373316184 7.002386051714665 -0.08673616514597966 0.1443800409116933 -0.09061441715446329
Ni 7.162542553085903 0.8332810254805643 0.35300921857245904 -2.610215553906324 -0.0708968841208779 -0.6512234068681946
Ni 1.8907289172889208 6.593365043201474 9.407984693760744 -0.36205503386279586 0.2004696848164096 -0.7304740622704065
Ni 9.113750491667929 4.753502347300023 1.311276593920448 0.5170059083117999 0.7073017379190012 1.0338349247261034
Ni 6.325975038279109 1.9887613389681054 6.862250473316706 1.250806463852278 -0.2999572360907866 1.1775241102183591
Ni 3.6705478884967655 4.198417564824424 0.7321108408133131 -1.6633811037311805 0.44545930642206516 -0.20613845306641274
Ni 6.1234079519657 5.869729789927602 4.839562298757111 0.2678482713713839 -1.2430653864542787 -1.0482580421299688
Ni 4.947091441248733 2.74826321830499 9.41622721624587 0.7511120502357322 0.6869062049817848 -0.6276499904236288
P 0.3785466190764909 5.60868786041462 12.399025521758006 0.03295434343883357 0.49746243896223363 0.3746956054449418
P 4.116155576197977 6.310041369001558 12.584753884614067 -0.7569199151667609 -1.506423997485425 0.7089891529237531
P 2.1602047184172255 8.406393517479547 1.2720110269096678 1.4765254101537795 -0.20886125131421449 -0.4803864573165533
P 6.50993319496387 7.855498464774141 5.693834595880673 -0.9324835807701102 -0.02941007773100096 0.24205136491293797
P 4.967468763312852 1.121995122570962 12.615573790726621 -0.4899481328630594 0.3947813204512233 1.890539610692686
P 4.1219413934996725 6.152264489040924 8.112148432971747 0.44286943420770186 -0.9033252140385991 0.4282398572199851
P 4.600413974463176 0.9624679875331692 3.8690322554540253 -0.33838442971873334 0.09866402693181717 -1.1437979216105074
P 9.286327456011582 5.442313872613851 3.591070891239207 -0.2996908698032774 0.18046778777318595 -0.3279547497449771
Ni 1.5399705448830456 1.0215867069528366 2.5171316063851896 -0.3847396199445051 0.8289177456613015 0.6841970335807378
Ni 1.8164745723574531 6.592793716414629 4.655638603053145 0.3909213232751848 -0.2872117634996602 0.18283474534346578
Ni 6.190325735459752 5.679777236320552 9.142313203538489 -1.086383645357097 -0.00041266205738638606 0.05853810544520886
Ni 8.691313279210965 2.3016670445757454 10.238817175869118 0.36696969755559383 1.038215313181986 -0.4551302538529258
Ni 2.1727013582945536 5.360541592661842 7.179672381144164 1.4678487083153882 0.0983927755483015 -0.20265023740749613
Ni 0.38495273403247393 9.1106671407548 9.335063444665247 0.5491488115929317 0.36790223667219224 0.4621339388642686
Ni 1.7211808917834592 1.2173522838990496 11.614077835576566 -1.0712002527484392 0.5623282863976831 -1.016278403899579
Ni 4.15963989275225 6.797646109875416 1.542831713156846 -0.28646640069320345 -0.43461670728060636 0.2123075579916021
Ni 5.860724591525434 7.952388232879637 8.08039989411359 -0.8939975088797699 -0.026642285177876698 0.21733355045128377
Ni 5.181389835929901 2.8304889322148115 5.057371114128448 -0.4569637075172388 0.32918476549733633 -1.3990968955619711
Ni 0.854532568215347 7.2888601850534664 6.75301369853996 -0.9889673747894515 0.7389689871152951 0.40311246602473805
Ni 5.278660488559959 4.338320078168067 7.104201926337842 -1.4208278594811594 0.797037352012937 0.7302447198684199
Ni 8.215252966903027 7.13283356016999 9.267238793255569 -0.41761323074407436 0.27858674083481055 -0.127132052464523
Ni 4.324825883583551 0.7249547460911073 10.608520925900338 0.31326758004644756 -1.131328071278271 -0.5553225445038114
Ni 8.238758983276057 7.392333814226408 4.383703376137661 -0.8204660153495226 -0.9333538991902054 0.3751602037861862
Ni 7.208656786595491 6.187677681146123 6.982569174022403 0.6377953063877468 -0.3230981929836242 -0.16397236122132405
Ni 2.4746974428772117 4.9553711453183995 2.8200327451476426 -1.3803592099431516 0.6409474788634832 -0.5763050602927494
Ni 2.3872300324150713 5.2440544088996655 11.631797127779986 0.9060228154754203 0.9138564525872263 -1.0803490091272427
Ni 0.9912610438542988 3.2650509687036977 4.03393530349565 0.22115780929338041 0.40757924354684005 -0.7010894384607023
Ni 3.4106395438783164 2.7379611987834775 3.238807118093393 0.47276493621555354 -0.04017322978477597 -1.3337235123624835
Ni 1.1302385519240035 3.604908788763746 8.305654095072219 -0.5411241415162422 -0.8674956059344995 0.37311514833169934
Ni 3.6741481541218013 2.376311342710933 6.985024972337919 -0.2618815122649877 1.3521241263568584 -0.06027565696160587
Ni 4.10998887437172 6.722530240424104 5.817405324931806 -0.40473097546476744 0.6689228810304866 0.7118312503582386
Ni 0.8739114287043619 7.590167050020248 11.396746939596763 -0.04791533562404006 -0.31851365893673533 0.40642456111710645
P 0.06993130557767785 5.6452165000560415 7.944538384201977 0.5604094721084155 0.12459411653401768 1.1892270004775842
P 8.427450990480386 1.6797551653976577 7.983706009477871 0.46906923253152116 0.021232684126531176 -0.02019472978032006
P 1.7947097423824259 3.2620401672238186 10.468955767421308 -0.458023773350637 -0.08750286810867511 0.28153759593301836
P 4.099986121262364 6.055093591881583 3.6779415826128656 -0.1641338264998528 0.3647004419054429 0.792940299125428
P 7.085758046669838 4.149147430968457 10.413701212190123 -0.014715708943619817 -0.9594660228962251 -0.5782629553500687
P 6.2882130582724365 7.936245983981492 10.411152913347214 0.13685545039987398 -0.09627855741877613 -1.0471617237419966
P 2.5198866711128614 8.425909315023821 5.871877253151805 -0.023769591615771968 0.198580952434129 -0.6956849796156793
P 6.917497773604565 3.912164707257036 1.6009537847372404 0.9294437655025218 0.14013386404082961 -0.6437967753868202
Ni 5.60056232389061 3.290996459769761 0.09825551118642879 0.08705626748955975 -3.0860881825129236 -1.1454177166021178
Ni 1.2330229614810693 0.6829903401634236 7.231596010521254 0.5411940755222293 0.8848706068778374 -1.2685229072954345
Ni 6.857789590039741 0.892634623690379 9.154817098359144 -0.8966406029295719 -0.9068494251417738 0.35640734865871526
Ni 2.5469838844317705 1.6657531247803903 9.055362707788257 0.22470027522900007 -0.49396085356687836 0.7302444627581036
Ni 6.1865985083265285 1.8843082924462877 2.350370385984447 -0.3089398992053711 0.3119074664741273 0.3684362547987913
Ni 4.104538598198807 6.913017846101372 10.493962650194698 0.6618343496148215 0.6359011746888275 -0.8097879668103861
Ni 8.227658919988793 7.041140145221032 0.08800246253235977 -0.18228015839157638 1.024782584715848 1.167638732783847
Ni 7.75820967478577 3.8679548963702617 7.9600938895587126 -0.2516150973419731 -0.3711104591968447 0.5541094980323167
Ni 3.0515198492903686 8.402484916763198 12.38300570002847 0.6198919437447648 -0.44570793209776144 0.8093110271739675
Ni 0.12534909703367508 5.000406206008393 10.262667802050085 -0.08491839521095053 -0.7637179119252008 0.049384721080714955
Ni 8.720586975527377 2.1953639875060507 5.76342401225416 -0.26421478838385465 0.6509914933630466 1.3237203784031848
Ni 3.6101958287118463 2.961422521872912 11.643862098529475 0.1402955864296745 -0.5095983029938191 0.2688024077545371
Ni 1.257027755207693 3.5904533141886654 12.782666017916569 -0.2189201782121133 -1.6069297056116711 0.4006920295087035
Ni 3.207700641719501 8.11058227208146 7.950935430478805 0.09215167973459613 0.7177381027609768 0.4895478121008472
Ni 5.385099575816998 7.79893711287654 3.4524615715432465 1.1683388441746654 0.42586312945769234 0.5853764264663983
Ni 2.9796959103727785 8.367434471824248 3.4190398613807615 0.18608667662186018 -0.1326907774992231 0.5027614825776437
Ni 3.335968039705661 4.412520011024598 9.460943966297478 0.4753756343655232 0.8565784448013636 -0.8321388237017604
Ni 7.111667263019276 6.178853856327081 11.438888184767995 0.6837141804070483 0.1869734501021877 -0.23226137540570968
Ni 0.38919324840594166 9.324234534884756 0.38443037811307323 1.1290806700049911 -0.7657215726187908 -0.6975045493229213
Ni 4.579755523345212 0.021003060925901196 1.5596223726146639 0.21662264042718823 1.3643168117683084 -0.8415230931301378
Ni 5.859962822476309 5.518499846205602 0.5038603482614565 0.46252268966225507 1.350641371163745 -0.9515452253872516
Ni 8.00438803916164 8.992892204552435 11.367387090828368 -0.47768525633530634 -0.3747843085040061 -0.021438372379434044
Ni 9.181493524965202 4.914453264965348 5.78262966097129 -0.43112900584232194 -0.5406189197450496 -0.10686995978137724
Ni 8.199999448562195 9.025757097814726 2.361771529419699 -0.09578979070781567 0.3382211646679917 1.2936063326266238
P 8.563036812545649 1.6313737620990034 3.7380016309289528 -0.294267641905177 -0.6506384808990021 -1.2731506358754332
P 1.8059095611404088 3.1125974034077886 1.714981542712239 0.4450602712114335 0.12480880364798505 -0.773563951481345
P 4.725679639648613 0.9917416838495807 8.23910449995191 0.5285594174773542 -0.44788385670315767 0.862766061669314
P 8.613603767520962 1.7693627841406756 12.374219056793969 0.583240611070318 1.1679657771059626 0.025274972516704856
P 6.584477737628338 7.988127897434463 1.4596374643131362 -0.8066941583764107 -1.1724459243645033 -0.10408339817517559
P 1.7439976885406128 3.1256109579970235 6.247434835578392 -0.008037525592495836 -0.07397038083987906 -0.4516986024635575
P 6.948703098581261 3.9988159365951126 5.879297246437458 0.33416396387948255 0.14149012095840793 -0.6312441355327902
P 2.4699091802827056 8.721439431368065 10.135978354237114 -1.0101422090948537 -1.1087049345621165 -0.0336156311719163
