# total energy = -340895.6123144652 ev
CRYSTAL
PRIMVEC
9.04740822418885 0.00000000000000 0.00000000000000

0.00000000000000 9.04740822418885 0.00000000000000

0.00000000000000 0.00000000000000 13.24179646214371

PRIMCOORD
 96 1
Ni 6.340550434832278 2.0597148899608833 11.276820049116044 0.2582644843376907 0.07676388442461618 0.36152487239093867
Ni 4.552637786497891 0.1758047153373697 6.019839713151707 0.5438849920908311 0.3237293988097199 -1.1308488176490072
Ni 2.8255056274533903 1.4068719982997187 4.721772752400233 -0.4321294220823784 0.26209491382737443 0.9141436448103418
Ni 3.5596485305404153 4.060730194552194 4.862943988576887 -1.2925506376685998 0.9458394332517259 -0.3757024494429014
Ni 5.147703928441099 4.50131183893291 2.658065241134851 -0.4614885919707859 -0.05096029309795095 0.38525872567276875
Ni 7.455697798320574 6.4451475227573125 2.713866941610177 -0.5618508325406324 -1.0789405588154901 -0.5604868623135701
Ni 5.102602597820366 4.4689673540845405 11.600992309231017 0.30812923037861767 0.060828187030966215 -0.13553493181623757
Ni 5.6003005311095455 7.873959486303828 12.418859024440653 -0.700381099539768 0.27211193174374426 0.18345540964660018
Ni 1.9295226838159771 6.222934126292751 0.4558437175249724 -0.7354920843102882 1.0001755848004452 0.03215730145883494
Ni 2.5715267802748065 1.5104829187146922 0.2627123104580606 0.3783108336000259 -0.7591549751448667 0.5611046984032272
Ni 0.7033364776580183 0.02076832586557559 4.683385503515437 0.1506141947468632 -0.16322956951802856 0.3395972190799119
Ni 8.54053634383907 2.1767883539994584 1.5226082553842826 0.42800537261167576 1.15276875765055 -0.9072862555688761
Ni 7.144132196999369 0.7855285635471091 4.944711751014401 -0.8320848305353735 -0.9482840381374764 -0.5621544798239803
Ni 0.6265348376633774 7.407520348861113 2.7073645692296107 1.2488328850656751 -0.30323513551111003 -0.4778942870223189
Ni 7.702366339553008 3.923761479553741 3.921425438717979 -0.439384818093211 -0.7949763557188503 -0.9792971986895392
Ni 7.351616412671443 3.9451947899329824 12.615883531320222 1.7588461641097257 -0.31829434383707766 -0.5410050994398747
Ni 7.78128688258303 8.907843027999661 7.165215372675497 0.47456702242129883 -0.41295310626424364 -0.4872523311984512
Ni 6.848046711363635 0.7512153626419545 0.14019230659327095 -0.30680305536802643 -0.3974547535183284 1.1277105291303415
Ni 1.8972053411926548 6.526049448215809 9.061401070947197 0.7935936164387106 0.36254817144913043 1.1229154217345436
Ni -0.025922634402111604 4.639728139267234 1.2447171079387787 -0.0020519974330222724 0.41247256708339924 1.3057676505795062
Ni 6.596166862922065 2.0346626162419645 6.993893648175152 -1.3660073120968539 0.3195279591338626 0.25347014827284087
Ni 3.7010866652633703 4.22371925596293 0.5579048168897288 -1.2571845994644801 0.4366522496533964 0.3066948119249363
Ni 5.988606250048618 5.773630780263411 4.6147663396318075 -0.05893816909710495 -0.3940920076936826 0.7006618640049804
Ni 5.187213960702031 2.6437612885347748 9.21442350732046 0.5184747795478426 1.4554531628645127 -0.028594780918557206
P 0.036831094648735206 5.567322727676732 12.480393162846026 0.7318745421623589 -1.705965256950294 -0.433686225046537
P 4.175577996136867 6.0914209985288625 12.705146166834208 -1.177523338887411 0.28220222610021073 -0.3118740421330306
P 2.122920084688355 8.371711704043104 1.3933551702260225 0.48889578033914516 0.19791272272251076 -0.37976016445204275
P 6.392410179489859 7.789556213814194 5.652406365274226 0.1432335860120759 -0.23740923815523632 -0.04628757021262996
P 4.621895697410973 1.0115545378900217 12.471865980476911 0.04758083510275676 0.5386772226376465 -0.09977114395306688
P 3.9902599309203195 6.102286935956245 8.229445731456197 -0.48107782695662316 0.7657100026545651 -0.4251239372988227
P 4.643491861140499 0.9345429980216794 3.614970718373234 0.6418355378953915 -0.5367249840072821 0.35911343473596863
P 0.1259914944483755 5.476975307901678 3.6767437083590275 1.1281699852652636 0.5898133791918293 -0.3512175769276596
Ni 1.4855392138959636 1.2502704071835142 2.6525309414476483 0.18561102253702227 -1.106920588968184 -0.6331678349180643
Ni 1.9003538392981745 6.3470283792103 4.749978047928846 0.06413565413764438 0.5911079296335369 0.7270403539985092
Ni 5.976998425136601 5.618169162599205 8.964378473292106 -0.10587340019606283 0.9866472112967072 0.9521077827589408
Ni 8.723031617650669 2.461238872498128 10.282122642462241 -0.23366185529766212 0.9745699684171989 -0.6337201078771085
Ni 2.4479572770415103 5.1237825807658295 6.95855085219986 0.10215224259073376 -0.10694683576589968 0.18953889683651873
Ni 0.5212763841880156 9.269974594584513 9.3330169359617 0.08939262893222023 -0.6248058361066142 -0.6510367447786852
Ni 1.3741384748923335 1.0557782699008835 11.41987133674766 0.2542620480465169 0.4521308049049697 0.2757574989161315
Ni 4.077829796332171 6.9404840824673535 1.4990641846371742 0.22177050317671484 0.1767260613425666 0.42119503455806173
Ni 5.662528605735305 7.777866962227034 7.751443101402378 -0.24663744162172363 0.23681788442814056 0.9124670284388672
Ni 5.34489219341179 2.6761691052415886 4.824675260741465 0.5852424719916953 -0.42605621930510496 0.22235234382211386
Ni 0.6309590203461334 7.517636355879159 7.117465865630953 0.574202669237766 0.21540445174937098 -0.5799336581842722
Ni 4.96870095425229 4.6612971607717135 6.846458891198352 0.6504893569156475 -0.8191241566096474 0.1696303308380498
Ni 8.267069379076322 7.238523808306514 9.361446607217372 -0.37454673857190335 -0.3104216259572202 -0.5765917382952328
Ni 4.621542848485354 0.48844967247463383 10.292424926349469 -0.32144163121680774 -1.6600060166113606 0.38443571555084116
Ni 8.43441024390302 7.168614483992289 4.853343783577557 -0.9452691625705527 0.12090201239441115 0.6652390044209961
Ni 7.41879341966421 6.107443958715285 6.850418037091959 -0.6678990677516626 0.1267463869903301 0.4807106734251914
Ni 2.125996203527081 5.236332340629807 2.5554947726800346 0.6246693105287501 -0.4510293443106748 -0.5727021734328396
Ni 2.24852525480022 5.29582809793411 11.575237051883366 0.9109325940722118 -0.564759264436679 -0.747806382901267
Ni 1.1390687111635667 3.5035365039587116 3.7770505152448757 -0.24598695252191827 -1.2331386142588698 0.7371558451659562
Ni 3.573237737880905 2.551767240440167 2.647657102569937 0.5849874185580958 1.0461721061352176 -0.4530900834944455
Ni 1.1378654058531237 3.4496501398309105 8.132965978302058 -1.0043906513230574 -0.24046216604894713 0.43563820656658525
Ni 3.700055260711562 2.5631307853267544 6.98404102048288 0.09911422709535833 0.4725055119065798 -0.08020941977105542
Ni 4.082516353857054 6.726675728359194 5.952147908623869 -0.1280262821440182 0.9485272644965341 -0.3278850728493063
Ni 0.7135437637575793 7.252303011222336 11.426863173919918 0.7904951800190451 1.1134506767772179 -0.3857235811243292
P 0.2179665429854502 5.624900434411005 8.045635869211461 -0.2373282484056558 -0.5779757631269529 -0.0035193260071681325
P 8.439223465144792 1.7374914416043272 8.167553315680193 0.6662959849306009 0.36363137721098016 -0.9654505226144341
P 1.7880664542763236 3.3125547611155683 10.2577045920686 -0.10494317507230959 0.7321393657879713 1.3006359857798955
P 3.8033947588760597 5.985792506052019 3.7225733553518716 1.1886315329854302 0.6887882524958461 -0.1033902287628929
P 6.7838734439428 4.069343327300627 10.243337307610082 0.35396968575150006 -0.4985608142327349 0.8510665138441988
P 6.268876865889959 7.752308033640561 10.121102297108292 -0.21428576476389546 -0.45649499541093636 0.41885507357097534
P 2.3352175216021998 8.313428299457593 5.958265766149594 0.5558671041533717 0.2044798344170672 -0.7406636012088986
P 6.952879031905749 3.927217589543133 1.6846084350624515 0.36391291300714096 -0.30298033918782663 -0.3835042048755073
Ni 5.540931437522133 2.826564174230246 0.3016007857654026 -0.8349714080545491 -0.5200359533873753 0.6921882793163304
Ni 1.440501215133674 1.1059371017888169 7.017688332133534 -0.09237330882709899 -0.40742986245316926 0.31587493576230763
Ni 6.955647538860603 0.6128804889827733 9.341623735524287 -0.48874922745895183 0.15162206718608726 -0.1228110564916659
Ni 2.720419979477498 1.649442063549968 9.306334319258257 -0.06462442084860484 -0.5173015851753477 -0.5009709663361244
Ni 6.433702551195582 2.03223791080438 2.6750019895645427 -0.46022463765669774 -0.5858608223019846 0.1627570007569842
Ni 4.016967880367141 6.82979808872331 10.517403210805545 0.5695065493136773 0.5360166450863477 -0.2743583045757597
Ni 8.186601729218587 7.066840187472201 0.3328948665044309 0.2751270644209843 0.9118957293164296 0.503859343627513
Ni 7.593725060095883 3.980425398044745 8.221208970895091 0.8634229785270227 -0.4187355172739756 -0.4569876187766388
Ni 3.0252995460286485 8.270552631290762 12.51275664725193 0.24088356985708193 -0.16505505276254157 -0.005865200531525383
Ni 0.16293296747897087 5.058433150259599 10.276018356049041 -0.7032005712664341 -1.1197066849892587 -0.45910723622280286
Ni 8.759537910339667 2.5390013472594535 5.880827188607171 -0.7253909913205443 -0.6196070655144942 0.04205913395357917
Ni 3.417712788358254 2.862174773492675 11.694042189879978 -0.039868811170479725 -0.6686277183875711 -0.6423441021006937
Ni 0.9224918501005526 3.443416475478316 12.582924727444942 0.0575158348282816 -0.6935144543269217 -0.5011568570946853
Ni 3.248363398878035 8.458358733803337 7.99420497170963 -1.0229686714355608 -0.9222292500319537 1.044813535224794
Ni 5.5258403603956765 7.813667557064797 3.507963400863973 -0.3536328712373716 1.3121730398852178 -0.26482953914971813
Ni 3.0207034625872575 8.252132107891802 3.4259576915868752 0.03214624571524141 0.13131703708014802 0.44596607085515455
Ni 3.619017624127828 4.429167804756435 9.622085251681797 -0.38326817760530124 -0.055688037590923445 -0.6145548478025674
Ni 7.032794789854183 6.112112421423469 11.482730015735358 0.39304171205229727 -0.3341261686630117 -0.9181512233078382
Ni 0.34731553067221177 0.11289265664041197 0.2530026318177052 0.7257697148162017 -0.19399770393882074 0.2534377523730087
Ni 4.691171703140753 0.4872608430175497 1.3672018269110064 0.000601895250057028 -0.9314083454280603 0.6674331838588375
Ni 6.103037870849228 5.624610917343831 0.5759055405412858 -0.4226765041995946 0.6978801874947852 -0.05664320241534116
Ni 7.883459265070481 8.628079067025874 11.524031434849432 -0.2768047092337233 0.573516956024651 -0.5834036190107437
Ni 0.27370491160233174 4.879511602745932 5.89357951067536 -0.49328979564178266 -0.22912977175526344 0.010561834676246327
Ni 8.080421344832443 9.008848294810067 2.35930443685026 -0.7328960414483378 0.14943817216089103 0.46228846216426184
P 8.66159066755129 1.655965244969737 3.7225208803834464 -0.24355648870355473 0.9060845219512912 -0.16347305298740233
P 1.8095630965140093 3.0999135226844543 1.468250521281488 -0.7274177919425859 1.4379655476027104 0.08318290057708254
P 4.659831480619144 1.0019100005897805 8.062122056705363 1.1764167360867932 -0.5030386474984304 -0.14972073639831635
P 8.411547443004606 1.717777138811433 12.299815034863622 0.06562920796403536 0.10950791162485657 0.281728886008218
P 6.475564909627304 7.874348524862843 1.3513516722240528 -1.5716037766168673 0.19231928779513333 0.29902135454007855
P 1.8160319934836835 3.060919192699427 6.028976690843558 0.6290445567783102 0.7323597093288936 -0.9470691918937689
P 6.83699077836092 4.104447271695501 5.866433666664437 0.2450808957678811 -0.3860395697028513 1.1830751219435753
P 2.353610902776112 8.444914284996434 10.35251600312315 0.38932209710886495 0.004762968606282119 -0.8120286832154467
