# total energy = -340867.6887858264 ev
CRYSTAL
PRIMVEC
9.28875086366772 0.00000000000000 0.00000000000000
0.00000000000000 9.28875086366772 0.00000000000000
0.00000000000000 0.00000000000000 13.59502581030651
PRIMCOORD
 96 1
Ni 1.0740303804016353 2.5663982273305392 11.518901752020486 -1.5249238560618252 -0.08020453467504897 -1.0116211076332253
Ni 8.771580953514436 9.207789976441964 2.50140298073808 0.38910123934731056 -4.590056262258688 3.259426301219864
Ni 0.6085283531789643 6.996918683217408 1.437741632773871 -1.9997857840157238 1.7372506973271369 -0.12155892925211968
Ni 8.700837827971622 4.7676092197981985 1.2384264062822716 -1.4484181103946023 -0.5688136370117107 -0.4755538118146004
Ni 1.7531495236114771 9.390741210776422 11.244200882372327 -0.6325037189715043 0.437001405462699 -1.463399671405099
Ni 5.568169490023106 9.304820266544409 1.208407021680215 1.0659680578152222 0.06514558345939749 1.7178265271642543
Ni 2.953609090168999 7.0541745427034765 1.3338692488853385 1.4735498724652234 0.8411790795271578 0.25963745342581734
Ni 5.386007799500507 5.1143397069649685 11.295726511534426 1.475234459256498 -0.1859511794852604 -1.0548020138960739
Ni 8.466659133373426 0.9867439898126367 11.49653815576827 0.26460173940962817 -0.7587929638197577 -0.11093333121747347
Ni 1.757570968957903 3.2653952970978417 13.641928400737305 1.3521506087194195 1.6545617056673376 -0.2538334451495306
Ni 1.6728204073175896 5.1745493891824745 1.841962984820124 1.5588199945886378 -3.027882520706469 0.9869120349223196
Ni 6.596044068058376 1.9683327229713525 5.079400999977477 -1.3919736542536285 -2.2012155187525573 1.171113578706325
Ni 2.827727940306052 3.545432554039114 3.7245066638197963 0.04729852797564757 -0.8026626686195144 -1.0144197534242851
Ni 3.2397304788369707 9.482328292952387 2.2095996632499215 1.4189416982020402 -0.995974402234904 0.6946022880744619
Ni 9.080329738955292 8.614805418730874 7.474123607482015 1.4317529910340954 -0.194080236350298 -0.3031443755695166
Ni 4.683536736961013 0.15755578984469495 6.53801074013639 1.1307197482703109 -0.47337788720920404 -1.25644077931992
Ni 0.0851332581702982 7.880102391165965 12.197348389677636 -0.2306248682435512 -0.34069482301946485 -0.6105020178894324
Ni 4.791230512898956 5.001258455604911 7.249411078750505 1.045540643198806 -0.10217641096044984 1.0887086939458475
Ni 3.2760030504289728 4.97147872077163 5.495340111066832 -0.07568787775161805 0.9384665378264224 -0.4471950581662492
Ni 3.1920606101019766 4.603532726942598 11.624141440016148 -0.9199774778832995 -1.2437210177604063 -0.2863411879692488
Ni 6.251960874849023 5.604228420348368 0.7155106108111591 0.017092950926544757 -1.046956549709726 -0.04620503780115268
Ni 1.0080430952314483 5.581693911082761 12.05897758558611 -0.011219008644271002 0.09520666451083604 -0.00806426506537321
Ni 2.4851588134653286 8.676872851093936 4.673657221686941 0.5283437019221223 1.5687778771322982 -1.285997152820798
Ni 5.519607901218244 7.708585608977408 11.259182708421172 -1.0088119203192045 1.0285502792883965 -3.9438375076939374
P 3.942898197681049 7.381983844637748 5.62477885245852 0.9253328286579419 -0.4612677342092314 1.9880553829526733
P 8.343694651239003 6.205136282430257 13.239175600181113 -0.49859321013256713 0.5063432863916311 -0.0802839817627327
P 0.347188422577651 3.5656541643735027 2.7537671915111344 0.030975108225275685 -0.30472920355813327 1.2613333315255308
P 5.459565416513839 7.0845208913311515 2.232058933634634 -1.631064650986662 -0.4371618422999632 0.2753828891855322
P 2.2640958348947655 1.4758152931319903 4.259470897859919 0.18604142520622155 -0.19126384994742546 -0.10343625150947992
P 3.917437731936189 3.3006646836112425 1.591094262914243 -0.9680781900452683 -0.8261638370652481 0.9932562319727928
P 4.052644787529832 6.092584489861682 9.115492304835325 -1.107504486496112 -1.9897386841923668 -0.500744195037299
P 3.0760069585090264 2.2203922627205355 11.534985223905647 2.052104905134414 -0.27885387845326814 0.12219784838769923
Ni 8.510632079318762 1.8092164230043897 1.826301222218005 -0.057565971339926664 4.64800378530775 -0.2554666098775794
Ni 2.378431067603075 3.7061279416298003 7.521583550450561 0.8411603104740802 0.7016157432778174 0.4297488376653438
Ni 1.9278337697982084 2.0049768445924654 1.9757516481776345 -0.8993073511284577 0.2839968561067883 0.7023832175714614
Ni 3.2859977462120695 6.98210312580659 10.886883077126026 0.09138034878621036 0.2404768213369665 0.2969122786168758
Ni 4.504839750459879 4.975027023549645 2.8834093565437615 1.2280169767615883 -1.1290233344044944 -0.91727113469573
Ni 7.029856593298134 4.428764881999316 9.76459949444369 0.29588486579362594 -0.6145296509915869 -1.0790930252329545
Ni 8.423754393761786 6.352660221488944 6.142667576035755 -0.3584691162837504 0.6911986617095515 -0.2216620026233086
Ni 0.5151745506145761 0.8609213590792747 9.289099984812704 0.10857588672889042 -0.8150283892737189 -0.2585753307098902
Ni 4.030862667073176 1.6460966714737513 13.552446149476257 -0.43709885027251166 -0.6833994773801069 0.033904108946612575
Ni 8.249032992572143 1.4024713173853973 6.792129595921924 1.1368423162282808 1.3528334937190571 -0.6088089464577257
Ni 1.8067920590644375 4.478208902123318 9.789369806009475 -1.026981649249696 0.08039531052961638 -0.12510268073932002
Ni 2.3510292529561085 0.42731597298074564 6.948580953305085 -0.0347559154239466 -1.1539707483784514 0.21393763739585736
Ni 3.7736478706700725 6.970668673660686 3.601702877072965 0.5683906905416792 0.8794944301675884 -0.5415427171108996
Ni 6.457771724724562 2.8118348878108113 7.534458687834345 -2.2252234516313805 -0.07016540527149207 1.080817464123229
Ni 1.4857542564107207 6.458449803527691 8.320808098320814 0.4008013013930581 0.010315780103711267 1.08897351757146
Ni 4.037058263808609 8.18160595103915 8.299885187306478 -0.4830251804909811 -1.5592287999912824 0.09391597072387052
Ni 4.64382732759973 3.9833785733527374 13.367553566239689 0.776746720084701 -0.04726407519328635 -0.4545856942033655
Ni 5.693948463628047 1.764667574513931 10.297538780825155 -0.2544646509756263 0.9813180857743099 -2.4176075312261784
Ni 3.918403762011879 2.278344778511188 6.074896850725833 -0.23650626672499267 1.642127850779359 0.24264734662572401
Ni 4.517518895203306 6.429283126242446 12.898728952881688 -0.313068319551448 1.2925784055827416 1.337185245658839
Ni 5.875877935382451 5.627338832159098 4.836811341595272 -0.013085629539364561 -0.19495749674892876 0.18956177965465418
Ni 2.6429003783245792 1.9540930681056576 9.343739203218757 -1.3671249706410649 0.7185744826193431 -0.667620103058663
Ni 6.646519139513161 0.17415292964510176 8.041852051964256 -1.8400937953373082 0.08044698970315824 -0.20239312709136756
Ni 8.449837205805407 7.01020159675814 8.908629968377399 -0.15318684057004583 -0.9319703885791176 0.5486073372671648
P 4.675251171311828 8.707572172249266 13.063079463883758 -1.554809073657032 -0.058741479705266574 -1.3124915995669009
P 1.0199419849137414 5.324302628415829 5.987126516223917 0.3334345419126258 -2.143917970582669 0.724232709346385
P 7.220145940707544 5.172524441523817 7.6176868232303745 -1.132671986900675 0.5145659314117397 0.5476393169269408
P 8.957263080562864 7.238082518362898 3.815498337074109 -0.5841376689632908 0.7602898600802583 -1.1113192322565117
P 1.0711601564267499 1.938237170613328 7.409383801534569 -1.1562448891246087 1.1430553870175282 0.800054541572706
P 1.2838539705915786 7.216727680439719 10.447655210211968 -2.0249203742998225 0.2639399374559132 -0.5312981565647559
P 4.506037999303763 1.3974739694938487 8.360369816545523 0.6812466927031622 0.267142760663927 -0.7136515913964291
P 7.650465895673656 8.944704689578899 9.72881829776519 1.569217278662562 -0.18395163255672833 1.7720804034118127
Ni 0.04129221248529695 4.066122764835849 7.994759014649457 -0.862873790891772 0.15574637376710598 -0.19180481005256
Ni 6.724981216910764 7.991678864908123 12.892367087508228 2.9618038839098406 -1.1711747709615636 2.991955982013189
Ni 3.8545528895090824 0.23234602407960414 10.124364885506763 0.6965072184066585 -0.6438489687809943 1.4325230364309005
Ni 1.5749912846525542 6.331741954849971 4.0411081591259235 -0.356544902677844 -0.9007469117884616 -1.1239909141869093
Ni 1.692976996396884 7.2333081004888165 6.172984200661101 0.37577109789730767 1.2947077932209186 1.4248338953167592
Ni 7.739554303903845 3.864705494054552 5.979595197133828 0.6797539102077196 0.9125133082957704 -1.325893989015736
Ni 6.7259658244879095 2.6607998009770215 0.41739001395303427 0.16248729203536533 0.44206879268327737 0.21304083661320083
Ni 7.645747210303941 6.313721778438068 11.064120800887826 -0.02525234680888554 0.27133057349302947 1.1967251086268422
Ni 4.5883641970041245 0.90549250057148 4.201501662317956 -0.8407543332849134 0.2890719566368506 -1.110871603196132
Ni 0.09054395546923316 9.103300819505105 5.014294288376284 -0.16677794899091922 -0.409096708632631 0.3665788898750783
Ni 6.820878279424419 3.158844037499416 3.0772340024801665 -0.6546270332331049 1.0155924335761477 -0.4574918121065669
Ni 8.51194179317138 9.184159394590477 0.2661580056038156 0.405547814939108 1.2563358783109395 -0.5085068697018532
Ni 7.453340027728596 7.183956967872093 1.8380069058851602 1.9266134735971079 0.9331325272080188 0.4261315526277306
Ni 4.0930601419464265 3.747221374849523 9.588734648039459 1.2989845662194015 0.7279410114359076 -0.8602792906917185
Ni 8.002537414508904 5.249890446335541 3.6356904159859313 0.9719150472928552 0.5054585697938327 -0.016874664268151582
Ni 6.025621885865077 7.218966269365116 6.662596109272812 -0.5613674651463106 -0.451311651437784 0.3108144905202647
Ni 2.4064087847951647 8.428454501630046 13.08536131912957 1.0695100095302095 -0.5268550331917378 0.7021443620877779
Ni 1.2601119237313592 3.2112418803548533 5.469917729199956 -0.44103906586718233 -0.36105076096799754 0.27736469550225135
Ni 5.9725088092036005 6.817339265397133 9.058882013524837 1.595958808422464 -0.06790386293082498 0.023678574563862447
Ni 8.376994822598114 3.9817809082275586 12.296374832311482 -0.35795103899675124 -0.1720602804357811 0.47298990774216604
Ni 5.863867580691425 8.253946741707143 4.3677963088473515 0.7488322530626199 -0.2612071119057824 -0.34988471704884905
Ni 6.221800301235904 1.0071327976601254 12.270013357746029 -0.5327212621645278 -1.712133590544535 1.9961566719035686
Ni 7.872039755534248 2.0296013227718244 9.275464098744315 -0.21905104736302275 0.46419982025436185 0.032686177379111454
Ni 8.695626838813334 2.1001308070478983 4.461506799439687 1.633040286655794 0.19231697380228815 -2.02555543678066
P 9.335194481424265 2.0388064747430596 13.506318213362075 -1.3275981161910362 -0.19436948545594268 -1.5034916543299783
P 2.8068839836729014 5.418211898273738 -0.06396976851211209 -1.53421068068039 -0.17867238643566002 0.8946482550898914
P 9.047029567596182 3.7037221551913038 10.201204218152222 0.28248916121301026 0.07956253021567589 -0.4296177114041182
P 6.353171102778973 3.103492371912543 11.902554094455132 -0.46706351495540205 1.667925014348121 -0.11579965817083927
P 1.3945851680175074 9.019135449160643 1.3455312754240734 -0.46040307221609095 -0.02379041755137838 -0.5701655230539149
P 6.710630097036335 0.9451675415550694 2.927117573093355 -0.4156995586611293 0.10165473412902493 0.8319225939258963
P 7.392006406673029 8.715012461582223 6.067092442364348 0.503869628040158 0.5115163459521385 -0.7916663175090107
P 5.306867643299776 3.5564025686486285 4.911719542964424 -0.91250868031008 1.5161826195340855 -0.33655149027505266
