# total energy = -340866.75839486986 ev
CRYSTAL
PRIMVEC
9.29223429829516 0.00000000000000 0.00000000000000
0.00000000000000 9.29223429829516 0.00000000000000
0.00000000000000 0.00000000000000 13.60012416899066
PRIMCOORD
 96 1
Ni 4.654907604323041 2.382315153476679 1.5199363400120622 1.4534726420993742 1.7062048837649264 1.6350370053708485
Ni 7.868357362649485 8.685813798607665 3.7140038356714538 0.6133533712952985 0.42804959558604994 1.2359478015728906
Ni 7.361326597996434 0.9421210513450642 7.75209757318817 1.8611948389819817 -0.7673364825143946 0.7095038877766426
Ni 2.1532708701827534 4.346777114890344 8.209538471045217 -0.3334101164325935 -0.19581084588815953 1.4727623435669217
Ni 1.4590201688261455 7.562187534654372 -0.10604390707041274 -0.7232675172196383 0.8173467529942505 0.009101962301268196
Ni 5.5144392771977255 6.015448674023501 4.1660989111349345 0.3529535857821599 -0.7111391093872204 -0.14674674137165694
Ni 3.7524365167418288 5.8857012064737795 7.305810144163031 -0.2973833047160233 0.9157140746212552 0.33771620000711516
Ni 0.3708279819341823 2.3399332728282305 6.38528517455773 -3.2820399248543217 -1.4035343625080343 0.5844811683456386
Ni 6.06121292795764 1.2615230209852966 3.8114487091193987 -0.4801370603099086 0.3422670526025912 0.18020476391978643
Ni 1.29622022386653 5.268334451726525 0.8064033232567269 0.026909679906650434 0.4073581286749694 -0.6530010675939075
Ni 5.119110461081179 8.87756834565028 12.902723576125801 -0.4221018626430472 -1.4649143082774128 0.4259014388947955
Ni 2.5096187634051454 8.12539914789337 2.291933307321188 0.34615687457530064 -0.11152031406919502 0.30792971277330194
Ni 3.009355124131637 2.5868465226836483 4.474019396072421 1.1656813519471603 0.8512148664966052 -0.17201117236540053
Ni 1.7436505977107342 7.759312993123166 9.35487232354989 -0.6858373973976382 1.3490845681995862 -1.0159112503681471
Ni 3.013202109132395 4.886395745238222 10.563529035924526 0.9584100708278849 0.5270375815161891 -0.6462688910763966
Ni 1.4380568882423046 4.316726029159785 5.927124128542329 -0.31925799330192756 0.9436593948812716 -0.36766878050514745
Ni 7.61422404674192 4.768625967702937 9.472663473224065 -1.008375089892102 -0.6622238717437563 0.47994268491091546
Ni 8.023695643465118 5.771406724567201 13.155971342104447 0.3804371359144093 1.0079683413719864 0.5028985223761403
Ni 4.336880885359408 2.290563631985169 12.773725991884197 -0.4490956176230717 -0.6660429883795302 -0.8119245535374146
Ni 0.6268002310099837 4.273870244561968 10.44014860731809 0.9547681031999234 0.23903674645633025 -0.7504427920828495
Ni 6.250904598985357 3.753560877092292 13.399780985703213 0.33475480338594604 0.1806649913856566 0.7412115032925687
Ni 3.247366413526363 5.393844660434831 5.132278486309618 0.8185572283625838 -0.1330057376364806 -2.317257889061822
Ni 7.432086962201199 1.5500840649793552 13.15806581171597 1.4395452333850047 0.4874783311663282 -0.36163620115782236
Ni 1.8305329884283372 3.970478794622958 2.6361529763334604 1.5920800421933485 0.330559791467992 0.9564061530239786
P 7.605526515435859 6.028364879702375 7.388702449471636 -1.8595354490016878 -0.1687039623690385 0.9226542533845142
P 8.920071025344647 0.02267212247185882 6.1798691846452725 -0.9105407579504318 0.45035288706894055 -1.2052778832928597
P 3.6309126765488005 3.6763238255794874 6.7418532937330635 0.5872399620376983 0.8181183410529522 -0.6657216004843697
P 0.5487296660803488 4.079105013605715 12.741996728638815 1.9653070335125638 -0.14959475234341332 0.9685592434467449
P 5.043583180679822 7.364959861608261 5.770560202022348 0.3700910167933949 0.4251211090853453 1.1915690183471994
P 7.128639758856381 2.668246495163456 1.7078085915635748 -1.1137075299830304 -0.6465200878552543 0.42235305942190493
P 0.580200605212154 9.032358384642135 2.846927797767506 0.867754516022841 -1.091473144064862 0.7506664780578814
P 7.362999200170678 6.727912154610752 3.2599090713863226 0.1574078206299289 -1.3361069249929958 -0.375147862491012
Ni 0.5556923372423488 2.1303748048642324 11.371118048278104 0.6061733086070915 0.8307974791825176 3.3702501034426664
Ni 4.271649400563946 2.7404471556849295 8.680047967223677 0.6588824660753491 0.8308720411741949 -0.8719009340910467
Ni 2.4871873098016914 1.8510316572971106 6.719304757977413 1.9548336447850658 -0.37958095856170115 1.5144016163742628
Ni 9.034356215016924 4.590094270071139 7.633246179580208 1.42094870132974 -0.6906769848781267 -0.49935219978577866
Ni 3.4635967057187296 4.207681659633467 0.8748294782049928 0.830378389367228 1.0188237960292517 -0.41380516985189386
Ni 5.480587667637914 8.296664318301515 3.2615138402501653 -0.46286361794144154 -0.5482018742986301 0.37063429089137456
Ni 8.094418838732677 3.857290088598239 11.83364458596828 -2.3660155180814995 -0.6808831387161564 -1.0719103914415862
Ni 5.242975944318146 5.263809133621769 9.10637103085237 -0.04423531566929156 -3.148712542212364 -1.2825449326061396
Ni 0.8867523440370523 0.9677397413138804 9.564056314471543 2.157269966409543 -1.382138927551394 -1.9537792353786223
Ni 5.302418367143869 6.057356650722581 13.260311053403992 0.13144147847315427 0.25076380508527135 0.0761427059008495
Ni 0.5657010028083306 0.5418664218253731 0.37622862851012573 1.9772089271564721 -0.7737457284748481 -2.0984798928545283
Ni 6.600534206807874 5.970697273628209 11.226970405231585 -0.009929600408886125 -1.870109367862792 0.648558972662154
Ni 8.832881990895098 3.727524036579915 1.1369373895899741 -0.1240564988629928 -0.41743453907436495 -0.10138502540740603
Ni 7.949729458426388 7.292052991279886 5.73465593790537 -1.3675723425911286 -0.1814723177783004 -1.0876067191309204
Ni 5.6032172837128025 0.18683337975662206 9.591705357635202 -0.22276526298981636 0.8981354423075434 0.9233949882052807
Ni 1.4567528636566165 0.602868081566862 4.813763925045165 -0.6268786594752429 -1.1342745555011045 0.8792509466982148
Ni 9.182530183186218 5.114956832348476 3.1637697568577168 -1.4291651757022612 -2.0837708687791276 1.5996858795650646
Ni 2.872062362329222 5.996353132534232 12.741262642129008 1.4769493850650757 -0.970921058810702 -0.19428952414762668
Ni 6.199788018093642 0.6615057969020881 1.3135948435631903 -2.525796724039611 -0.06101819155458523 0.39504742962841644
Ni 8.604757638797006 8.034075069179723 7.915163276048804 1.0681992611385862 -0.982013826289754 0.23018212427917775
Ni 9.154021608349682 6.355544449452836 9.741578875458213 0.027477122374346227 1.3485166115112583 0.51663001302962
Ni 8.27119430408152 2.0813954378618273 3.631926459311077 0.17008952986265546 1.0306045907142638 0.1227876594528982
Ni 8.027858564432123 4.5908469410495485 5.229124939868557 0.737741028245465 0.4905022055943166 1.0558376542494396
Ni 3.2786998275905086 9.054297349827618 10.97270235192665 0.7911824358940568 -0.5814837762802115 -1.3429422027472744
P 3.133508666631947 0.8000455765477447 8.856727722559217 0.22627327614307483 -0.3349268101874361 -0.10264255196359096
P 6.045183823787815 0.9038677103967051 11.709516132500584 0.3051542069106938 1.378108466235762 -1.9387028006614742
P 1.795910123421515 6.2214853851872896 3.3468546492971747 1.5956474478296325 -0.5594869602941462 -0.7124393162558827
P 3.782831415141538 7.6155807129499165 0.4646851237183773 -0.7414087069050393 -0.3904515827276179 0.07500062187660632
P 8.535679169000787 7.9143539224411565 13.548484611227684 -0.09455026187375974 0.7563493873752715 -0.5370152615541913
P 4.513182446758883 4.373176352540473 12.143904855502845 -0.9852724424363676 0.19646647719428745 -0.3935348496386319
P 1.689625547482697 6.607577720408296 11.041886753193907 -0.5760600341614789 -0.5262659934574871 0.928684004518362
P 0.5220776796572226 2.811263273295502 8.592680521875545 0.24499219270881675 0.6637176826804634 -0.004795878726746579
Ni 8.101220754241263 2.193208893209947 9.848148722990082 -0.14975801739415498 -0.14658424765186367 0.6643871979436622
Ni 9.464976937009991 9.013039829529632 11.563029634080413 0.18392052220847682 -0.8366521381910816 0.5675828499284031
Ni 6.877721556017082 5.2840197432272 1.5847682587325664 -0.13582032426714027 -0.20689435739583076 1.3009720289630755
Ni 4.585652582075095 6.287107143823408 2.002509943983964 -0.6096630669279048 -0.3347941412643137 0.09166445568553246
Ni 3.8844234127581747 7.860003644012572 8.559809243034525 0.022289407525819677 1.0962499966282153 0.019710591055049922
Ni 6.74810417974758 2.9874626201176615 8.268032156748772 -2.0397921492053324 2.063329313095324 -1.1139720964983266
Ni 2.9837828953343273 2.6027269511046516 10.520770819786874 -1.0028647015968342 -1.5890484544558763 1.0112053602520457
Ni 3.218839254221225 7.855097344301461 4.770651674780631 -1.1187227238094344 -0.6209805488232532 -0.42844503125225564
Ni 6.2234181699219695 8.037745501728756 7.8849988250597685 -0.5610105960275241 -2.2673589473488502 -0.6156174847391268
Ni 1.6999770964943988 2.5379879547271607 0.6864322154154539 0.26428832193426743 0.9946572260853773 -1.8988278188434073
Ni 1.4986050869498877 1.6050104619346228 2.7804093385213062 0.327316601940346 0.04213498149683711 -1.4287175466418816
Ni 5.651769207937346 4.99351662226416 6.4043797868235695 1.1631521577674033 -0.5181461925638302 0.47705122229573327
Ni 3.444268858371926 0.7057033801330194 0.704294677412935 -1.7816590482391834 -1.7810772075937842 -0.3726551779761453
Ni 6.6002554397788336 9.271986522805294 5.8701803875202385 -0.4621434519459654 -0.12522326547758436 -2.100395878930318
Ni 0.054138415486513325 6.880351258324365 1.9961856493184666 -0.5531682171649699 3.4999856549683077 -1.4285661086656818
Ni 1.4882163690009806 8.979578493810479 7.10029844423727 1.428951002808926 -0.675523931286772 0.7131183446007784
Ni 6.488953057317288 7.705631755564279 0.9894826403556044 1.3946468302104176 -0.6830022419416882 0.15683317907338148
Ni 4.916474707671684 0.8490193682095688 7.296208478459448 0.38475761766663413 0.82658344110117 3.175944895565756
Ni 8.296729363941624 0.5568473619660064 1.813304256810208 -1.0607664590096249 0.9727840801613697 -0.3810053497130535
Ni 6.181194257256645 3.6403535865989696 4.307635436342776 -0.23842893766900225 -0.9345160378191067 0.014364496251788166
Ni 7.077699730416391 8.179340568012694 11.089881143360369 -0.04265460144573299 0.8603937047823956 0.3786167948762189
Ni 4.1609231366290835 0.55742440971612 5.435874365403258 -0.8738403172056047 -0.28088222173720656 -4.062274603487623
Ni 5.991688430914954 2.978978810200531 11.02412464732688 -0.3983448694327656 0.09330199128895544 -1.1946985651151167
Ni 0.7101701571616773 6.711845881503721 5.048556384477904 1.2643852309779773 -0.2603149391088162 1.513226365119239
P 4.1471427531601845 0.6941187516295289 2.8426031919236583 -0.6331678349180643 -0.180273926594825 0.661823550981544
P 5.346686571355491 7.026090661106705 9.895980499056272 0.5525660648045967 3.7709310772077766 0.705369811003611
P 8.30642116431793 9.243803176169306 9.58064852804003 -1.0374905192008197 -0.3074702566383801 1.5111152323135073
P 2.3049480106836557 1.0618329058493294 12.211864540289184 -1.13259793912963 1.1769019032533279 1.9120214347155455
P 1.7532401835097253 6.721435467302712 7.329024933118089 -0.3242359061324932 -0.3664295087814076 -0.10372370084291169
P 6.497697049794857 2.3236532783322694 6.1712329820856 -0.3790839643206246 0.07518728396611567 -0.8987057129887167
P 4.497199803760564 4.050131827054113 3.0627483024271824 -1.527012620270054 1.0029258938520726 -0.5551870473672116
P 0.8018334024273239 2.9672613027465315 4.370168456297127 -0.08970656062821325 0.9244085170714597 -0.7374088417170268
