# total energy = -340889.06196415424 ev
CRYSTAL
PRIMVEC
9.05336750320161 0.00000000000000 0.00000000000000
0.00000000000000 9.05336750320161 0.00000000000000
0.00000000000000 0.00000000000000 13.25051846934640
PRIMCOORD
 96 1
Ni 6.532864658915984 2.2039698699351087 11.341794337601984 0.2525779754758746 0.5810382041023606 0.24044236855460527
Ni 4.58864495344842 0.560227807582531 5.730743548752764 0.2737296698528254 -0.3333682074510646 -0.470698540604828
Ni 2.6433841107282774 1.796459695907952 4.6157118060052715 0.5885939049624315 -0.6012203354771903 0.09043392571254102
Ni 3.4170124629669822 4.294057431172813 4.747382170997189 0.239100252704414 -0.28255626700551983 0.06531244805456493
Ni 3.6189116096607448 2.7394946591925153 2.5131459884612135 -0.13210533730939827 0.030914944411301597 0.16268783808194562
Ni 5.065739309417564 4.456692123393195 2.179868900542998 1.3691232320180162 1.609036981762661 1.8183309497389202
Ni 5.158889406737511 4.94485874770934 10.979578160745756 -0.12548706066193227 -0.20395121560710683 1.351375678226608
Ni 5.5914955152355486 7.932723488530333 12.25580148894788 1.2017773263387688 0.5539274639284977 1.1076898630340406
Ni 2.0761996956250304 6.729811613634432 0.06035246319019896 -0.13827058557984576 -0.8679717742399697 1.8291879470580819
Ni 2.6218370962835817 1.9267014395219813 0.12953014893530934 1.0145966453217816 -0.7941399758604838 0.16261610430374573
Ni 8.035913770312114 8.777728589458945 6.831331549128378 0.6718343982503269 0.6696492176735499 -0.4531029390102519
Ni 8.714164896847093 2.34746574344285 1.1560099996722923 -0.3609939395881331 0.6138688774791363 -0.4303962414413556
Ni 7.072155649017506 0.8029277651997844 4.785782028882556 -0.5837304062225431 -0.09342926089543908 -0.998945569048086
Ni 0.9593400779967048 7.154586559319585 2.4195314533929424 0.2784671845378108 -0.2227531788049583 -0.9492931961282812
Ni 7.829026218173382 3.7933881064582957 3.992315032630128 -0.23998008420620606 0.4679181496462135 -0.5435036974920124
Ni 7.728714907229169 4.1929856373658465 12.516333864359973 0.44167515678928454 -0.3881231917047574 -0.515310522887248
Ni 7.992213165806003 7.55225572296801 8.887427337074463 1.849599163724582 -1.0227591265279161 0.1925496586383845
Ni 6.768451385756263 0.8684415531525552 0.4682320146078363 0.5927063844689083 -0.7985072516902442 -1.057244304788979
Ni 1.512817694835553 6.849343223598009 9.265040575891234 0.23592442607959369 -0.7626179939928027 -1.031779327748655
Ni 0.14686191551216862 4.814743751239103 1.5520857706558984 0.7181741618571309 -0.08006338111149437 -0.3160286877313525
Ni 6.390681523683235 2.1969897236591174 6.862509535827808 0.43548162638406296 -1.3864254707418897 0.2719401820525704
Ni 3.8543625359898184 4.186195611805543 0.16162071507004364 -2.2860212996450437 2.271477340392598 -0.7423857261063279
Ni 6.151563983551598 5.780212958974909 4.4035841648074685 -0.4733151522920687 -0.6902563524009403 0.5752460229006158
Ni 5.387849068630935 3.1476476223060477 9.241335238655104 -0.1644423588792071 -0.21010489391332848 -0.0792776519854054
P 0.2964516106260964 5.674569214624004 12.155283761226634 0.1387737504685094 1.1297309019944801 1.3064849883615048
P 4.223069977281696 6.302085270172398 12.444011944112072 -1.9123801036065449 -0.5638107844804806 0.12758328106932867
P 2.3583750511764037 8.428467781371776 1.2731388459242639 1.0826426902574258 1.6352915445838159 0.7575428934627405
P 6.6083516364117285 7.829225392256485 5.443114444671354 0.025026861061640766 0.11973576000045184 -0.05155036127346606
P 4.917445151180543 1.2642846525936284 12.560855609290511 -1.18536340375712 -1.250214081683918 -0.24215780858381522
P 4.061901930582339 6.206345909772124 8.054049475915313 -0.19410286205811733 2.3656419367921644 0.18479572572457853
P 4.908255983255599 1.1855294094615252 3.4611412917517637 -0.5330069117257465 -0.7200248419126245 1.5592691663109146
P 0.19365967701051964 5.64917451902847 3.8353097242676077 0.11832576702680267 -1.3444180159618524 -0.47590065363105777
Ni 1.1486550439853718 9.014356453551805 3.9719359025818046 -0.14726944664434638 0.7581008228487396 0.5961223521289927
Ni 2.0714738378350592 6.466621169549666 4.648268620561814 0.5114083596193645 0.7501841391048241 0.2171422603760841
Ni 6.0189683644099965 5.404371464161005 8.86707446179164 0.849759107886685 2.20944587708215 1.0056445783348165
Ni 8.710751777332115 2.4244646332966884 9.999145547348528 0.042354296596494805 -0.5752758476972866 0.5443225938488819
Ni 2.505175403790159 5.27590418056007 6.8524521499678865 -0.39610852390307916 0.12685514465405248 0.5635647299079456
Ni 0.9010861853730102 0.053545236231809665 8.906534469001157 -2.2463419787775503 0.6072398021983929 -0.6733930009866983
Ni 1.445505908114414 1.1604606350928854 11.46960887341239 0.20240495416590948 0.6509220735776919 -0.9416531630845203
Ni 4.264054571563686 6.981404694062199 1.5756326739622886 0.2723420454766794 0.0685450960592497 -0.7691300840797076
Ni 6.0078598825933405 7.960508273123094 7.764088224388125 -2.0370693509575304 0.2789533801456099 -0.26580141614468417
Ni 5.448959298673664 3.0261785917159303 4.4165567349746135 -0.8388676577851617 0.22250712423242322 0.6518247878976194
Ni 0.9730740363633447 7.443995555434536 6.721444491470655 -0.3963620346747819 -0.8028377607447981 0.6461668182808936
Ni 4.961616530792168 4.633006453775734 7.035031410600733 0.31130248590027676 -1.071038273249278 -2.084923751436648
Ni 0.6150169764969882 7.777793211979041 11.638698616598768 0.12733774071742587 0.170864460355467 -1.2881195984804394
Ni 4.882653060209549 0.653091818492203 10.320749223323467 -1.3426609240614296 -0.6275993396913514 0.7611460374329666
Ni 8.558555617739772 7.617141207222267 4.296162339096506 -2.293490354328579 -0.8065254940090303 1.3963321883326403
Ni 7.152169310220118 6.056793333464592 6.694082499136115 0.7121629226660445 -0.33395441897183775 0.2672962555226558
Ni 2.6045904313604114 5.166684356080738 2.5253499277349314 -0.9807424157764981 0.7500273018119857 -0.46511590431072797
Ni 2.2887908692344165 5.850774904597579 11.243263824028054 1.042062197731902 -1.301397032315636 -0.12913082806210666
Ni 1.1018129209866936 3.4996787608218205 3.6437468071501096 0.7042917474480839 0.4193075877273617 0.153431095370368
Ni 1.6286464775269118 1.459475254033811 2.246718060189295 0.4439017321269581 -0.7666559115076023 -0.4157705211083807
Ni 1.3544380852996274 3.2573291685234786 8.284753721709365 -1.1267083131180726 0.6940800970224046 -1.2738877711517738
Ni 3.7705645672082633 2.6192387798358387 6.838394081047834 -0.19679454995766751 0.3103403790973236 -0.19579156261444988
Ni 4.645101752640488 7.045104187185257 5.846949856865275 -1.492451337355417 -0.4752668767018008 -0.15120452003269444
Ni 0.5137604939947813 0.111069427441957 0.29681646133287 1.0431153215867648 0.18829628267866927 -0.11548315537168499
P 0.0624591817873757 5.687035701552721 8.040321854905862 0.3655499343899318 0.6021456755049373 -0.07298307722594527
P 8.578237638497237 1.5363745568460982 7.923439260247545 0.3795485626618689 1.1166972087389737 -0.5269162254469765
P 1.9887351130409112 3.2109578206303144 10.356035628155253 0.19527631354092823 -0.6150356440937279 1.2099598621495615
P 4.127049962491595 6.074447399921381 3.612461990715198 1.054890716955138 1.1883137446346952 0.9403948651973868
P 7.163929634490563 4.14544640507631 10.36973608906246 -0.5316714807437746 -0.03432834096822475 -0.8641025210925505
P 6.16738926979081 7.954696011243474 9.910764763982137 -0.13644433100438438 -0.4790726236011362 0.45323355105084523
P 2.435373941030242 8.579242562280163 5.665060462829356 1.6940463940255213 -0.061943788692648154 -0.6326602991540266
P 7.117866101089467 4.137968323592562 1.3638363860118285 0.5529776984207186 -0.3783316595356323 1.6028277676281557
Ni 5.586959778161266 2.923169377282424 0.5182301414869436 0.5498630640511368 -0.8552283585313724 -0.4540223655007278
Ni 1.5681156629986623 1.066839762667425 6.899293367629823 0.6102235674170651 0.24911392818667422 -0.08330399953597911
Ni 6.869224418438576 1.0079204475388208 9.103596401485758 0.24331506211671 -0.3335479275620385 -0.645681651114359
Ni 2.9171307812174607 1.6525383141317653 9.021218000714676 0.10480947770792272 -0.8840892486271226 0.888773027256037
Ni 6.672748238825643 2.0405565881171452 2.6448561882697508 1.0719803254475733 -0.03883548480995892 -1.105797016886702
Ni 4.114040273518055 7.21459227853784 10.267177732326159 0.11199853925719422 -0.5662273643417732 -1.3687738190983976
Ni 8.35181291947966 6.965869115580225 0.42044290937768103 0.31198639934117883 -0.31584639651721735 -0.966916051416367
Ni 7.7722163376521785 3.9662168903865465 8.064039866856373 0.4374865726292336 -0.9125760432129058 -0.06942338489914496
Ni 3.3703333005817515 8.508662509922663 12.190013383962473 -1.5730813896036586 1.2150329057970946 0.90948557721304
Ni 0.34844238367296726 4.679350641566657 10.301470077415914 -0.7711532851573235 0.6952684609035509 -1.4986307266932513
Ni 8.922120746340646 2.0425483289481674 5.637445881543973 -0.33753082346918645 1.2507591555541104 0.22008540216480804
Ni 3.913625879080145 2.8335500932538356 11.453019482963457 -0.42023138509321173 0.11889423793576298 -1.1284672047907083
Ni 1.028516858405074 3.5444567160501665 12.48738119537084 0.5292093923565273 -0.04267105650596522 -0.566566749959063
Ni 3.5061971853597114 8.473100882721504 7.6784768661135985 -0.47407002818022226 -0.4007007712594518 0.9361872548739426
Ni 5.9174439022323435 8.12407546218709 3.2067181286704614 -0.5382936140459826 0.1718432793289686 1.5044103094895058
Ni 3.3809347938232386 8.579858191264297 3.4243710400008682 0.21760891559985748 -0.6754167162849465 0.30297931074656204
Ni 3.291967352248439 4.667354929743455 9.349473185728492 0.2071648374483981 -0.4219069730234217 -0.39896347685337097
Ni 7.357209975406446 6.622999984887155 11.19430321305456 0.608587574475539 -2.11916724600055 0.05070189723024171
Ni 8.199082611209906 8.79525590877194 2.0525586372975373 0.3755648954237725 0.9245509561865949 2.2361935774896393
Ni 4.482747714809932 0.5691281730869764 1.4503883891606426 -0.4866676623395748 -0.6667006765681872 -1.1196118112826072
Ni 6.046671668696034 5.622783953017426 0.14700405338056427 -0.11897599901629187 1.266799496846425 0.3009023736128753
Ni 7.5399250365505 8.970655849045693 11.233286107801375 0.6030509609280259 -0.630035974157302 -0.4048425613419672
Ni 0.27763509179338414 4.803888763710031 5.950980291143051 -0.620948410033737 0.09773971534533489 -0.16690856103151255
Ni 7.463098160677522 6.09467262272367 2.5190958615255217 -0.596492848094534 0.042468196466539765 -0.36776211154990207
P 8.86360883274566 1.6651315482042743 3.4245041245018504 -1.3126584641620684 -0.03902317534073279 0.035300217963190814
P 1.967242418800698 3.677740391115212 1.2424243916364177 -0.31318813295876385 -1.9589674644477808 -0.3483145443482517
P 4.899981205439443 1.3111720424293756 8.181400479314137 -0.5603914743862864 -1.248776835016759 -0.8784816726323581
P 8.430396148630903 1.442635990644259 12.224239639470108 1.080327668971004 2.315836583234263 1.1446175892983257
P 6.531162625842201 7.815681554605533 1.2480211833715902 -1.2702218922644124 -0.6642311319817722 -1.7100029173547773
P 1.8501190045691749 3.2493531518319756 6.00830168692313 -0.160565135311988 0.023984792950371595 -0.20597878756009688
P 6.754020318098766 3.9267804219323055 5.8507794312812855 1.1734640812163726 2.379223017910709 0.10541908626746362
P 2.3892470340572487 8.686959527768813 10.170594598082923 1.7771485619633394 -0.1926440181244037 1.2641376337435455
