# total energy = -381172.67905906355 ev
CRYSTAL
PRIMVEC
9.19609359534211 0.00000000000000 0.00000000000000

0.00000000000000 9.19609359534211 0.00000000000000

0.00000000000000 0.00000000000000 13.45941253216543

PRIMCOORD
 96 1
Ni 5.385305855667312 5.30478486197832 4.064877429944515 0.7752161423727875 -0.8835470029704073 -0.553336367311718
Ni 3.545185961288619 0.2466153147733169 5.770615731280967 0.5018723951044711 0.08359890506857862 0.10254922091883628
Ni 2.588212895247329 7.5281611443175445 2.843395290619169 -0.9057852455433174 -0.960093886288211 0.9869323466372937
Ni 4.954937881289614 5.361828229252511 6.631465711594349 0.10078158749545224 -0.0677393123285027 -0.3877033305585194
Ni 3.917756488734462 1.7812189162405032 1.05736497831904 -0.5171473189856707 0.26393890901464867 1.6983064548534557
Ni 1.89660229995633 2.8382546744163197 4.174800173407655 -0.6799344016496419 -0.9222115094201409 -1.0433588050561386
Ni 6.342959432619176 0.39826993002273425 7.024629050959763 -0.49305402548189275 1.0342213615312446 -1.998458837674184
Ni 8.24877621814841 0.6614014285175482 13.363312300154387 -0.7040955722768778 -0.24922988493924822 -0.5714801281002803
Ni 6.299002106233454 6.756562928753949 10.491167262782145 -0.8791943824286664 -0.32477892312015677 0.6497655913757455
Ni 7.885981137972029 3.215735915730359 12.366360137726216 -0.7663769468146028 0.739726691216926 -1.2284869744194713
Ni 2.3441761650594843 2.8267503615902654 13.004833866213454 0.2581323296352006 1.6728964994207833 0.35412986547844816
Ni 6.929670190654541 3.3100878338720965 4.830111948884905 1.613195484015725 1.2264056664104104 -0.49721921260317586
Ni 1.128443423319149 5.055662692147942 8.59970282020065 -0.598074333649041 0.8870002516263303 -0.8887997667289144
Ni 8.105390730071806 0.09048771970088389 4.928110118054245 -0.7464395844607273 -0.9194686565676808 0.6005482491108303
Ni 6.098426113388479 1.3191244196806426 4.6801871188014195 -0.7152022237130005 -2.1942933377114273 0.2643104334214545
Ni 2.5477408882549524 6.060271521929407 6.433666019342649 -0.7971101142324014 0.3809739822544858 0.5385939188952208
Ni 0.20829611324263406 4.12293972436589 0.1256407062787207 0.8782106783591584 -0.34063440209517465 -0.17843301673134432
Ni 5.63820761987939 0.25627489126611236 0.47295416323954637 2.201410408372183 -0.07996336519852035 -1.948480191763212
Ni 1.5719342229588598 6.345000965350897 10.53589338257495 0.26532499072889787 -0.3784028790931999 1.1923226086837724
Ni 3.786243157219356 8.385273832278802 1.1503917394038357 -0.6107280178573095 1.113928387744585 0.26603512942204505
Ni 6.168316423123099 1.221866536028887 9.203829139890676 0.4591596867272931 0.3350378818440036 -1.1088633145168516
Ni 8.543805286162371 1.4434739944479502 11.123234992616604 0.8328091102959077 0.11132285334640829 -1.1752211731167952
Ni 4.367804102958487 2.5550977629638596 11.7992747625862 0.014278621406201217 1.048606426608323 0.0646303343858758
Ni 6.172473057333632 1.1527303059519294 2.374738461818963 0.16273514638011327 1.1229293056916145 0.8422298893891753
P 1.4344250385559942 1.6510298221730004 10.164615825859196 -0.05441431308482242 -0.7653947854069915 -0.26805241696238996
Ni 8.266828149465393 7.571345998858831 0.6715198900703118 -0.9058196983256788 -0.6545606987715437 -1.1021465646183082
P 5.571526746736531 5.799267999444146 1.5441445483553007 -2.5676581401600878 -1.037405158575865 -0.4221250025714988
Ni 3.0046855725185773 4.009947324930458 1.6454266424728288 -1.597449276925062 -1.3422986556260044 0.3270180968633207
P 4.5530777964089335 8.354595664742659 10.273919672237449 0.28667697404211273 -0.5448211307518552 -0.16842268368319382
P 6.9504625578005905 3.0503257839939617 10.069282684553158 0.1606985755660587 0.5389870405685815 0.8823948916438352
P 5.035495659352151 2.994597458073988 5.537740299635874 -2.5941659566426294 0.49975714853368125 0.8981786368406531
Ni 8.37476269753845 9.0618304226967 7.320964883843893 1.6004980910537145 -0.0007175948923148932 0.061540382606642394
Ni 6.875845456065497 7.230759484209963 7.804197520661121 -0.44740151775010045 0.5218976891864624 0.2618390890628265
Ni 4.517038306428673 2.0299364579618904 7.606640605274815 -1.4727998816730765 -0.07265808978635874 -0.8060531823583021
Ni 1.336118800258219 2.866698191259633 7.757480446650221 0.6954273550789184 0.04117030359072264 -0.06399475768440592
Ni 8.842466811063852 2.052577239878553 6.18034675249084 -1.1827005122129761 0.2900152943867263 0.16393610866674993
Ni 8.764667861017157 6.605103270684318 9.588956013245948 -1.6134052860336858 0.36996271874564673 -0.07164661780270887
Ni 6.111171898821661 0.9196461229869705 11.433124947542556 -0.40020172013584626 -0.3053375265660935 1.5756044131358282
Ni 1.0597302135379538 9.040283975892986 4.117839570973939 0.5938027028568805 0.3071105593061163 0.04419932022503356
Ni 4.6075370614416205 4.104317635258968 0.1071188545897077 0.12278637390131758 1.9597925314522375 -0.19536913036505063
Ni 2.247451654824124 3.4991503177976306 10.69519914752163 1.043121749344668 1.0322860921817447 -1.2040542952984037
Ni 7.558223173596818 5.52825912735477 1.8383809131193751 1.3159343066998626 -0.2516801462519537 -0.5792296901387121
Ni 6.446424679306571 3.163033104534423 7.143798466322661 1.3759914198927592 0.3822407647820514 1.1645420961363944
Ni 0.7273530514548874 1.8295443869846388 1.0767245941155297 1.6094596711223765 -0.03706862271752325 1.2217967068834894
Ni 8.741751196298912 6.113250215926927 12.002269327991726 0.8479055996177138 -0.5473670371021606 0.07187570309437945
Ni 8.696699534800238 2.054508419489641 3.8688406287949366 -0.0798350671507722 -0.44015074972495816 -0.6460955987233261
Ni 1.3999396883579907 8.47220450305793 6.512484816145867 0.485406279128648 -0.38712046147185586 -0.7268948295595804
Ni 5.5332526060634395 4.548755632517451 11.355289213122315 1.4808806017986818 -0.0035715194013422364 0.6000507406491213
Ni 3.904863565807102 7.016462920032875 4.804687509500259 0.1416328171838593 1.0369441597790465 -0.05874070837431819
Ni 2.4407811260808248 8.750423112362036 10.717568644683402 1.5352326941870014 0.0211789480704603 -1.2193629006310163
Ni 3.8584784707674404 0.5117009831126844 12.595075256723423 -1.5935175459708233 0.45460831991118483 -1.4919214329938757
Ni 2.893964608149521 3.7314804211049264 6.092120352153607 1.6533810550956751 -0.5828873414959574 0.35415094852437073
Ni 6.138613041485886 2.517458152734412 13.42729779832577 -0.012780182483803795 -1.1479667082762164 1.0406979703945238
Ni 8.323797947992494 0.06598840731088361 2.500718503943632 -0.3243063543591124 1.090475556038283 -0.5009845931828792
Ni 1.5593999476735587 0.7888160612104542 12.54761789719494 -0.8039962998292735 0.2966006609137279 0.21860136142011383
Ni 8.996105943265999 3.981623357301164 10.33789229587809 -0.3520652696399356 0.4906402738340775 0.010169227223517971
P 0.21424690527280155 7.0621950924421215 7.641043190632343 0.30627597921996286 0.11665994928860554 0.7136652182431839
Ni 7.387948308459155 5.527459067230175 6.101447949675163 -1.3697912046193184 -1.0330373685254726 2.6378729106122765
P 5.3325754561912175 7.697893439945425 6.220483102074624 0.25543035732300523 -0.3499543939445199 0.15117418101539126
Ni 0.4407089813904052 8.371571653133463 11.470057378190608 -3.628585550227609 -1.1659585168679467 0.6456585111859074
P 7.868011971495522 2.2402878980763252 1.4349078334587662 -0.676047665000726 0.846494321092484 0.5497951869276789
P 2.298885405132773 0.7471513209058958 2.57181074308382 0.8454789924540923 0.05694684969868902 -0.7969121392889824
P 3.091597851110932 4.305546550734358 8.393679981243068 0.22103671033448385 0.286505481461255 -1.2722494642174025
Ni 2.2690624742815393 0.6967502918845097 8.004917892172257 1.164067727603137 0.7757879557158575 0.8844893122790186
Ni 0.9059246320455197 5.8111309599122585 1.2696779451527376 0.8683240153730659 1.1821271562080091 0.5417388922821056
Ni 3.161046748363018 5.135788253821332 3.547793053763588 -0.955972922141302 -0.2107687527495725 0.7191213562617486
Ni 8.4697031656569 2.1286197360884973 8.638559993194422 -0.9219942512030121 -0.04292122484355834 0.13552387607264402
Ni 6.667710274457121 5.922587611752205 12.948116040645134 -1.0134350209135128 -0.006219755657466707 0.6207275522721826
Ni 4.516679658786614 8.721041593993336 7.954136144884686 -1.3760194449172172 -0.8238015074806586 1.747881951788738
Ni 7.505741068642149 8.612693221717903 10.22394442233984 0.12887448907692642 0.3457275003473658 -0.399275351666835
Ni 2.0560533631785116 7.585112550657874 12.859055554637777 1.4796364449789356 -1.4695695476612367 -1.672581796393842
Ni 8.972232884835593 7.144187461072895 2.8710001237456666 0.6149222584443151 -1.03677523830135 1.9810185307105497
Ni 5.980964412567386 3.595718494445426 2.265730729647743 0.9909319547149901 0.7863904138220521 -0.5032031981007528
Ni 6.076953235331856 7.835007192332687 1.9626376073434826 0.662681270996149 -0.8304151561424344 1.319461603126831
Ni 4.834331116530463 7.735854913443387 12.564886321355422 0.9174583110058715 -1.3580502620333061 -0.5910529080258854
Ni 8.986422456930399 7.050562034308662 5.5656955039203835 0.05086773338414466 0.06329644606580066 -1.3959336673426412
Ni 0.6581919919257874 4.565538502947145 5.572277147956839 -0.42070935317089486 -0.4815897335960351 -0.1711277413191827
Ni 4.75310202365074 3.6678526509662635 9.472733945813305 0.4682169118335549 -0.7050566506385664 -0.6643712571040622
Ni 6.627642895573733 7.309560808435747 4.499616307508642 0.015217588280702823 0.8196244932848336 -0.25873859576063185
Ni 2.3614280362518723 7.476607844794875 8.596203706667225 -0.13270209035313274 -0.3047312604406623 -0.3807143008351959
Ni 6.879422736392703 5.104880183950534 8.801553391588941 0.41265691518006353 -1.4952165588053796 0.15986785213464727
Ni 3.9337852795064943 1.3288630825765588 9.893286929719983 -0.9258545054893668 -0.6143519877631419 -0.09101679479920453
Ni 9.210163409015045 3.816020107603659 2.6149753662196566 0.31302821034213185 0.6692308991892087 -0.9217569383812255
Ni 4.387640076392378 0.045111436105681614 3.4429042518200172 -0.8849012030054566 -0.21418137797554726 -0.31999127192352633
Ni 4.2446960007983074 2.7922650113922622 3.514817702099587 -0.39270669731038177 -0.6169909680478857 0.4004937974549683
Ni 3.2508466002786194 6.177586085256323 0.8087035327673082 1.2081577759438162 -0.7818981823786534 0.0008487211535404738
Ni 1.1271651663384763 8.306923116628937 1.1512966349930311 -0.11630847948645777 2.449365026143433 1.6041791394497276
Ni 0.33836749731479426 0.02251295621859528 9.304747068710114 0.8525585250086931 -0.7519882821930984 -0.4730205038697853
P 7.0159203505230945 8.13899325530474 12.347840125255882 0.7159141621783606 -0.09706788608929089 0.20832414786382186
Ni 7.829388379273758 5.126031198738642 4.07797266692637 1.6836737925419456 1.1650136364561743 -2.416837742939689
P 8.519674737117153 4.064057138414472 7.315392051251894 0.05395074318484257 -0.36232679946694374 0.5782423865247783
Ni 4.583001884287414 6.171755762049513 8.81393685094271 -0.5513779580337665 0.1491628070123173 0.5073254477992424
P 1.4175042267255071 6.181098992929826 4.316661868810177 0.20459244873553153 0.8536610140442525 -0.22597040019067535
P 1.9414056669335757 5.017903532704476 12.27417665840493 -0.458293739182572 0.6745592533806577 1.1437105041030238
P 1.649613623791536 1.4134119651686774 5.871655048533101 0.7147682214993755 0.3512330035466274 0.11649796978944453
Ni 3.740354651222546 6.151699082374354 11.356715527206504 0.07967385898255955 -0.7518000774416923 -0.1648781608650451
