# total energy = -340889.97632638115 ev
CRYSTAL
PRIMVEC
9.11333981693201 0.00000000000000 0.00000000000000
0.00000000000000 9.11333981693201 0.00000000000000
0.00000000000000 0.00000000000000 13.33829401258613
PRIMCOORD
 96 1
Ni 6.79517940291889 2.005490624821606 11.460475652201426 -1.7378551636803554 -0.5391410496479424 0.6267771009003721
Ni 4.9264982321114985 0.4585094304168487 6.154795965519876 -0.5235799619848919 -0.5276006531085107 -0.4488989282312334
Ni 2.5932828020803838 1.6572608055212374 4.489763303991223 0.598284392777318 -0.11492702575789886 0.20111091794483427
Ni 3.616829312118914 4.416196781436978 4.792315242568834 -1.5713857470687904 1.4419103911830715 -0.7369781819375115
Ni 4.082602985527685 2.9657814447247333 2.608596857937397 -0.7182605509233501 -0.5215030248512051 0.2351888334651498
Ni 5.254469097490098 5.0469583548906005 2.36586670313544 -0.49566318096996576 0.10612768229871399 0.8872105678649237
Ni 5.345128599790484 4.678105048084626 11.43906750615661 0.11394640701218439 -0.41106951608828557 -0.9030326224988449
Ni 5.904660310962259 7.985746087732167 12.123868449412262 -0.45160964229417705 0.021981646477413755 0.39648416207494297
Ni 1.9813493882319673 6.634584132559279 0.2308800793253598 0.0044426091523858974 -0.10427520247100751 0.5847989566963735
Ni 3.139809777648756 1.7601686362385638 0.5069687023842868 -0.5103763188104242 -0.42927858289714454 -0.4170100499424366
Ni 7.874818518170416 0.26258903311546483 7.058038190886395 -0.008785716612430031 -0.19543392216471506 -0.5767568031181873
Ni 8.60313839199855 2.3049914173024963 1.2503939365926875 -0.6942541607064237 0.07186336179920527 -0.5667809228523981
Ni 6.866500398596697 0.6484086442471967 4.673324190132597 0.30926488664495766 0.9014205408167186 0.19430649342849118
Ni 0.6868259273138713 7.874654478057688 2.1922019924612948 -0.028505563638860587 -1.6143059434710845 0.7121752639612187
Ni 7.879803514929393 4.170646959364037 3.640793749920391 0.08779391698653266 -1.3102755657521885 0.46112632353536065
Ni 7.900217395624294 3.926418571532507 12.64647655387714 -0.38235157932830277 0.3006493770618048 0.5458380020521438
Ni 8.284736533195685 7.348286209675529 9.182961865114642 2.361825648369868 -1.218904730047675 -2.3062497108767768
Ni 6.851618315036531 0.6223709216876436 0.35590963057786495 0.1661472573854558 0.8654749759600451 -0.5049371500727239
Ni 2.062038897014398 6.538365493105371 9.197793825307029 -0.2274765524225566 -0.013940007119859862 -0.8358008459343799
Ni 0.3642146169516428 4.637076793223715 1.2854010079825626 -0.9857108155253668 1.3173455852250926 0.142827865933225
Ni 6.242582943179623 2.2644461694401703 6.887348074256363 0.4457125600834518 0.8579154184452321 0.7436087998801516
Ni 3.7997704911677634 4.416096534701421 0.20778505412133497 0.6888874970778717 0.3018122870216544 1.6212268389606335
Ni 5.969419702130992 5.7323726259010614 4.865169101966677 -0.012256448769849859 1.1148228745343962 -1.6252331319065494
Ni 5.500647739995157 2.9609422613992913 9.341060080424965 -0.4161060500709285 1.2826626891309263 0.28756014797801444
P 0.34588951369213167 5.488627245068116 12.280833876610812 -0.35276152437601177 0.3100231049672209 1.9638854705746889
P 4.0710654975992275 6.259260354640189 12.218184223558538 0.2358454932125422 0.5396164466224643 1.1029628898720165
P 2.5295167649276085 8.573182844746704 1.469239850981612 2.782391533984363 0.4101665446580419 1.4055151403834891
P 6.452025713773459 7.856910805864399 5.5981750550150435 -0.5032057692039139 0.22725543755068606 1.4490148634383369
P 4.911843982041231 1.1008185164724844 12.641208132256727 0.03003382735792892 -0.6194471428978621 -0.6260970441142121
P 3.9323604689490588 6.276548359853682 7.91323580123709 0.41390724264739687 -0.2236533220217245 0.9570674407570614
P 4.784175207641742 1.3047021499127986 4.131642777227384 0.02401667462957154 0.5711569404329067 -1.6435481281656534
P 0.2952020301934868 5.8451866567591715 3.3321322284776644 0.9384027744680224 -0.6172869020217499 -0.03252239810773754
Ni 0.4743110499422448 0.17660467402779434 4.397848894828476 0.3835754244330749 -0.2259133217004948 1.1279720103218445
Ni 1.7918374913344464 6.950516276331645 4.517413176325298 0.20543011414547846 -0.26338740738655286 0.010519411474085109
Ni 6.2960235665702005 5.8284727919402215 8.927639808992977 -1.293231208675392 -0.49844202926668346 1.8554918750599334
Ni 8.837460579689296 2.3724301303124338 10.372844138124263 0.5326613554608697 -0.6992958368953892 -0.20870878489675024
Ni 2.172027792597768 5.552320375504124 6.524479497563041 0.9868156185537715 -0.05107239319578301 1.3353762174745583
Ni 0.8128433645785761 8.986445455403683 8.49310484105116 0.3711832214163091 0.10964186609955956 0.669651274556079
Ni 1.7470818805787973 1.1406073571483475 11.35879721099559 0.19938879304740498 0.2741497881093795 -0.3946633068161203
Ni 4.221672547761691 7.052321392957864 1.3283421528246604 0.3376665777161023 0.7551939336145896 -0.02196596274812991
Ni 5.850691113875118 8.118254045457098 8.050153703992496 -0.40740646541440156 -0.035623148520248324 -0.24634767829544674
Ni 5.504429775927472 3.373102157965161 4.729012163067533 1.3376529293238768 -1.9696295721473178 -0.7237693965567212
Ni 0.33297408881676904 7.506284178250299 6.584448917440148 0.57785774949185 -0.4095880464467527 0.473637568628494
Ni 5.1473782438982365 4.814650215250557 6.832140374318134 -0.40561877738635954 -0.66381487037996 1.0503149246589976
Ni 1.201794319195472 7.221793056083917 11.275059290118318 -0.4190805593182202 0.5661520310191476 0.1294002796734094
Ni 4.577402645549516 0.541618530862001 10.306872672789272 -0.06751485502252244 -0.18699864691316825 0.4719329272325614
Ni 8.241648663586092 7.278222854861962 4.516866375949541 0.15465545469577235 -0.018173328474917087 -0.18900822114402932
Ni 7.241332056177607 6.339211682915349 6.897912257515975 1.0276092555313656 -0.2870541548758734 -0.2232049216303962
Ni 2.715902786343723 5.288206680674258 2.313006599477123 -0.6942017102019336 1.4397905166265912 0.860770114285208
Ni 2.3518704361839986 4.891539461421482 11.968558004684336 0.22516538779087672 0.5557789153149396 -3.4168402924973797
Ni 1.3215982815236669 3.6753642923436205 3.5588967236414986 -0.6480514368981161 0.012280874249882076 0.3153951679124117
Ni 1.309732713369756 1.3083292590719817 2.357770412238409 0.9696437347601752 -0.029433731880084787 -0.13438050649682018
Ni 1.2896742529190977 3.677205186942 8.134905028232836 0.20156060388774316 -0.7630121441074279 -0.5750305644557
Ni 3.737407908312763 2.7670650748353163 6.787724691129413 -0.05322054988703737 0.28736654390996963 0.2544229991044134
Ni 4.235242310420042 7.268234634664815 6.030042548457128 -0.32735619692902973 -0.7245304430924618 -1.3911501299110687
Ni 1.2273481234224808 -0.060845211812276825 0.040127856908832076 -1.642695807467687 1.499833488752101 -1.5102413143489861
P 0.4274138043815503 5.730504391283894 8.109802334315827 -1.1018943393981862 0.1077950426988079 -1.268139812924403
P 8.808452819755427 1.8435010135038163 8.283933647977284 -0.18854079458930753 -0.2408804845332884 -1.2325670580261159
P 2.277769871929431 3.247784625181424 10.223695222297149 -1.8163005495724525 0.6494999964191847 0.3695821954777764
P 3.967574413147761 6.486373890710547 3.645488942480218 0.7202012195894888 -0.631117894367571 0.8066237101497914
P 7.191327161814698 4.0202677426914715 10.532290216360826 -0.021462283638834005 0.3967667263123683 -1.4787766680818015
P 6.653375838806102 8.013013199803213 10.112867899470954 -2.7616540443266957 0.5001394715737645 0.31399777334425283
P 2.127490901992421 8.738425918300242 5.9976172861747825 0.5462092693486336 -0.8448629561366481 -0.8198993442127751
P 6.982595231709345 4.076834241563456 1.5875100382558103 1.0037080234337359 0.04395198010091786 -1.0418750214217605
Ni 5.602744483488446 2.9491587133017436 0.3186114656135715 0.17950259564643925 -0.061758155044403316 -0.30941092530451875
Ni 1.404374745073567 1.506043161605846 6.698277262995287 -0.5715199801992802 -0.22422076448942033 0.8354822862526966
Ni 6.7705095926326875 1.0787824613295074 9.179000296392287 1.2602089881131007 -1.1460975162779616 -0.2932284020073853
Ni 2.571073593485084 1.6291279261885783 8.905111633511819 0.34158159649979236 -0.6869761389877718 0.15769038486735423
Ni 6.415472108654153 2.0364212994102173 2.4999968353084476 0.4971078838362923 0.6313971161708868 1.0603314283547352
Ni 4.230968154149547 7.009807663742815 10.134528485022578 1.0665493842399891 0.6269395946201655 0.20182645595462018
Ni 8.658975823702859 7.506229498212723 -0.17505540629648494 -1.28274547865272 -0.625243180754349 0.8859844087673064
Ni 7.804600236583717 4.111401138650847 8.166170162384619 0.47129863608267214 -0.7491749811140194 0.13132680727216092
Ni 3.3315088760493023 8.346060195336749 12.30293554779888 0.4940809240845104 0.7005600483197935 -0.11468148540599604
Ni 0.34881216170054885 4.58030980088062 10.203607599159783 0.33793448666550835 1.7268868375943098 0.32554099809716197
Ni 8.422922101488886 2.5191731244862194 5.794554764632061 0.8818295060586684 -0.5990428682098974 -0.5934874856093069
Ni 3.7605193375280606 2.8495681381973386 11.616613588164665 0.8202798674806453 -0.7888062223523964 0.14414452786211948
Ni 1.1228454582758653 3.1231141395089987 12.681102687671903 -0.4110633454406985 -1.0734530533383577 0.5917571331817615
Ni 3.3262413657628502 8.448813099280944 7.976393067304856 -0.33943781068391216 0.685762835405961 0.03986958250142811
Ni 6.039173203398297 7.771509700510868 3.4031187645923007 -1.7756982026700578 -0.07015126420410499 -0.23679808693379864
Ni 3.450756924662145 8.581430417081027 3.7698823826289267 -0.025849356962936127 0.5007490801333053 0.022282722657600337
Ni 3.7688853832771314 4.604095617226017 9.34120680519246 -0.06782364451219287 0.1604322092785495 -0.1965772917405389
Ni 7.665229934143045 6.214905730826761 11.328252942005847 -1.0356061576939133 -0.6903496834456949 -0.5274708123988658
Ni 7.8774704999928336 -0.048553139365276304 2.5248853657449537 0.0035236968825423185 0.04913275297090893 -0.49002629439916257
Ni 4.689123075656115 0.4992159843900228 1.8575574284965903 -0.11384381999604909 -0.8147201140046807 -0.1572748945964904
Ni 6.001826737734146 5.776818383110448 0.08943011278889444 0.9728087627517182 0.5652269481017169 0.6633407589570189
Ni 8.440319466777531 8.815187577716825 11.038358520793034 0.2968778258345145 1.019214346599451 0.5601361638423707
Ni 0.06012890332003614 5.06833824958267 5.698252282453871 -0.23328955955990788 -0.4381157215728004 -0.5000150301807583
Ni 7.500788834473949 6.161765847642849 2.3706685217685393 0.02713722253642423 0.4814930601171708 -1.419557477409168
P 8.51841167377512 1.8304962779004137 3.532847153740471 -0.0392039238929712 0.9122507986630031 0.00537000606266172
P 2.1505385378305473 3.509902498639779 1.4337196985724858 0.2264285707740165 -2.538384845117267 -0.702532598665132
P 4.623999150903544 1.2761227169399387 8.148843881144822 0.9784093967679474 -0.2161405585844471 0.472493941942354
P 8.650099430936416 1.3641120107387152 12.452510967919082 0.8315988920378904 0.48932823989087343 0.7385344706810377
P 6.444571001983982 7.838839053445654 1.185077720374644 0.10722940000332501 -1.1798692134117679 -0.2220175861905144
P 1.93223760114946 3.3305155220333447 5.724315522364293 -1.1105216760558811 1.7539430703811534 0.15394762999547035
P 7.134806229640693 4.169216165047474 5.929324653244705 -0.4232282629380066 0.9271719387492097 0.5081875386892216
P 2.455416200673041 8.643729206558856 10.085804014872897 0.12193019654860938 -0.1646588457653874 -0.1985292732605871
