# total energy = -340889.9967281162 ev
CRYSTAL
PRIMVEC
9.13710386395886 0.00000000000000 0.00000000000000

0.00000000000000 9.13710386395886 0.00000000000000

0.00000000000000 0.00000000000000 13.37307509752227

PRIMCOORD
 96 1
Ni 6.398942278970133 2.148498607756452 11.479500975331733 0.6802377918226736 0.5717449517258927 -0.7719896650156898
Ni 4.968556076926886 0.5670176010125841 5.9710909935349825 0.34649266064816453 -0.7655287398816946 -0.7822879616179044
Ni 3.2723075631123972 1.9328903673582678 4.918683936496264 -0.8842648549730384 0.1499793893763417 0.18412929578517323
Ni 3.5945549429642067 4.483321037956425 4.631537654932952 0.6543951197279568 1.0135100971258222 -0.3005125943736244
Ni 4.016040408121975 2.8199021384043714 2.51651830952523 -0.33408503101243103 0.08391489364710064 -0.20109137756080853
Ni 5.139538701945795 4.931898016136212 2.221521428303057 0.9614167188646927 -0.8242247110610064 -0.2850481801894381
Ni 5.314687846336725 3.189296974307994 0.23529687185175893 0.49037313621562 -0.7564409186478133 0.38008463767099704
Ni 5.794148235651228 8.333577833170628 12.369425655096695 -0.5500795509373172 0.3486115067633802 -0.2216226647449409
Ni 2.2087121223652595 6.693184435411321 0.22283294844085233 -0.8328795585225268 0.8789069330952347 -0.6695430311129889
Ni 0.9553298968018024 -0.1258718294232887 13.089833301306065 -0.11104465998435714 0.4250804856553969 2.0555087886096404
Ni 8.26440995675353 9.031104343828652 7.145501230211653 -0.5311621452075239 -0.5138758473232504 -0.8531835601872017
Ni 0.038765076946787116 2.2080999364048965 0.888710358658513 0.10391627646969198 -0.1618979951907986 0.36877358353355194
Ni 7.292066772515978 1.1504618873914374 4.671054715529557 -1.038856803420727 0.3978303916901923 0.6955199147927247
Ni 0.8617805723752751 7.6702240910462836 2.733858031109813 0.24330297793185193 0.1981844883266587 -0.11189929467516857
Ni 7.676948999506388 3.9515690031022856 3.470567184362214 3.2721419490143195 0.49956148758310737 0.17298279225005045
Ni 7.80427454215794 4.4138607742149745 12.50322300843071 0.5170825271860062 -1.5699125049573737 0.7018080617942816
Ni 8.508114791601196 7.43150811492038 9.387537284159581 -0.17073950474182853 0.265171238759853 -0.7972679799665044
Ni 6.982218442637484 1.0428999004453248 0.33341474822129147 0.7099309480117323 -0.6441320472390519 -1.0155924335761477
Ni 2.122823345836763 6.390855942031013 9.247909544835903 0.5092558320527358 1.7461490282580316 -0.7645746034985413
Ni 0.2577887667775618 4.788089138074297 1.187904825405919 0.6953566497419831 -0.1723983805014902 -0.04391058534002115
Ni 6.797027621075828 2.4297569395756193 7.055286948703519 -2.176301529119697 -1.7410099072592533 -0.3064916947751947
Ni 3.522956596913431 4.69427849247663 0.29565840754351985 -0.045756894520140555 0.0975049736267095 -0.034791910868204594
Ni 6.3205367905242795 5.894674652605113 4.6103678989394545 0.2003943514937839 0.8014120840418649 -0.6311785724021776
Ni 5.507160939695532 3.077943089249187 9.259704632242356 0.5581605281732388 -0.7882174397284619 -0.22709500071342179
P 0.35584176970950365 5.800836595695788 12.429096425734674 0.8796183573399625 0.46344700124873733 0.29050560375958356
P 4.298724128147359 6.563199995528939 12.28879985040654 -0.1604129260048399 -0.4200043566840702 0.6738316311860136
P 2.176851041114742 8.791648262287982 1.4951637000431173 1.2671409393462434 -0.16680031758842243 -0.5359883629515737
P 6.595965650064172 8.194931418804309 5.83217229347286 1.2338477245107524 -0.7851652831656994 -0.37914669923775995
P 4.852295567081291 1.2151891313199341 12.659461088908765 -0.04115744807491621 -0.5137568052468829 0.43122285110770897
P 4.237587766046065 6.5855219403224625 7.760569033139988 0.17387239394385537 -1.135600730511696 1.2841924955118917
P 5.062302762797351 1.4002703076349579 3.828965515739023 1.149079481724421 -0.37894101098485705 -0.7662347648097837
P 0.4528686758750466 5.689190323312628 3.443178715463898 -0.8676606707574541 0.12080919557028873 -0.04968656859184992
Ni 0.4744733580135178 0.4534854303873523 4.823734807754399 1.1945558688896654 -0.8293355499250105 0.5785941134372423
Ni 1.9943739394072308 6.551202978126608 4.886307522586576 0.04837119221453605 0.8024148142747665 -1.0477235097827375
Ni 6.166019226707959 5.670075501983095 8.901373001723913 -0.6112679495211795 0.40807520934665203 0.2791829796579127
Ni 8.939303861085907 2.7644581920240614 9.942921524504495 0.0567290772609281 -0.8939869673568087 1.286646356369023
Ni 2.4933054971028206 5.523626000898123 6.962598339463054 0.80977176886047 0.11958689312741341 -0.07660807557304225
Ni 0.9345338483572431 0.19147989016639674 8.944059723658576 -1.1943923467286075 -0.33985587205793727 0.22947352824792738
Ni 1.5098059090204488 1.2378126005416956 11.410041625300671 -0.34207627674802377 1.313505642653712 -1.11329512503596
Ni 4.502993222623005 7.114697311880747 1.2613781051741046 -1.0413356039785227 0.7136551909408548 0.4528712826154201
Ni 5.903482820751227 8.10739796357633 8.087674611127989 0.31180487945799207 0.4373559605886404 -0.9127220818724668
Ni 5.773653711634907 3.444432326117058 4.394111837875752 -1.5625437232971284 -1.031027022963663 1.2005113151421518
Ni 1.1146444401582773 7.697480071938253 6.8985810485065 0.22947609935108865 -0.014468111709187985 0.10790277192126577
Ni 5.272373918240612 4.899369926302016 6.5711547581721 -0.9352282333947829 0.5006948298566022 0.7848256404380934
Ni 0.9649147187782272 7.654818933894471 11.258109861884092 0.2527522962702099 -1.1223137835948025 -0.660361878834353
Ni 4.929641151476368 0.5102012616285951 10.151634906310298 0.4414733251911236 0.17436373175797712 0.20513212328908542
Ni 8.607791457893683 7.274779371963646 4.720427970088002 -0.47919912187667146 0.2495615572470541 -0.025328194352143476
Ni 7.6288330104426585 6.445093790698371 6.864092136178367 -0.705425603942211 0.1775138473511846 0.5318866820783743
Ni 2.5292234524787274 5.734976350885426 2.417945405382174 0.230484486010945 -0.43097653942485775 0.5472063431545802
Ni 2.7155472749222485 5.363735819996829 11.298884187975412 -1.0063164075908604 0.8822653080445063 2.5539914413062723
Ni 1.4159769892150096 3.8141652348644635 3.78939454622949 -0.8363752303806112 -0.7299924946482976 -0.5274990945336399
Ni 1.874412902487802 1.4963286807885836 2.8764279178847856 -0.28892180421223146 -0.6403790079545228 -0.8343214331753759
Ni 1.3767605393362536 3.76285125944063 8.1658672050533 -0.40208402476022365 -0.5501944792486266 0.3294927836560584
Ni 3.6832670845934805 3.3037117891686143 7.349935706267636 0.3677574835642118 -0.697865789317082 0.17448123117244788
Ni 4.394709404469897 7.2234653965398135 5.606314049935349 -0.23662967967673443 0.438718902374438 -0.1708786014228541
Ni 8.477267928882027 7.417537483078671 0.26242676071010057 -0.08183949917531068 -0.21049981535890203 0.29949469463207123
P 0.3509104747422239 5.828110850795528 8.149391179326045 -0.20165470626344625 0.707331305605356 -0.8812129555205921
P 8.69239190277425 1.7885332630631918 7.944275075320167 1.8640955575685445 1.2662184275319741 -0.21710395093898094
P 2.0251751166069716 3.4727938965792347 10.31667201783058 0.028459798002589694 -1.0242552514574683 0.037394381488058175
P 4.445420331037254 6.4737112000693555 3.4160049685069036 -0.8412343582451254 0.7872303932248441 1.4316370342815217
P 7.133784721898622 4.212469867463423 10.372812211527004 0.2992753795324136 -0.005135521454352447 -1.0826457755812193
P 6.481057431593708 8.042743816478923 10.169300582963508 0.9865173705870622 0.1499691049636966 0.36714581812214186
P 2.594434962913182 8.912915905063109 5.499088308412242 -0.4887865084547905 -0.4109687288443632 0.9925481501621747
P 7.040111132859245 4.151982239738035 1.2942872122403477 0.43599636123695235 -0.11573100971643295 -0.5298354559763003
Ni 2.854148003769138 1.4424014936533511 0.24190665280289878 0.017263157955821885 0.28970701911768815 0.5239643419075041
Ni 1.7179491355437624 1.4313730092629366 7.112028363835643 0.10352418323759591 0.18532742985833245 -1.4965630455309453
Ni 7.315229330867013 1.0201667859769312 9.27894828673668 -1.2375470277392107 -1.2298226625117594 0.965854185810756
Ni 3.0044076771745765 1.6062845889528312 9.370780749343027 -0.49445193427068396 1.814765600985165 -1.132529804895856
Ni 6.548361338818059 2.2272969916694043 2.3054375041025637 0.14266305822058656 -0.3081330870333597 0.41349997990664916
Ni 4.356260471317566 7.221482644996549 10.049023402249624 -0.16843682475058092 -0.19924892503543104 0.19496752405125778
Ni 7.302894240620899 6.285943715211844 11.187620760245078 0.24476310741714621 0.6964192866785426 -0.23119051093903412
Ni 7.947261080870115 4.134119201640885 8.132006925472522 0.660839846912036 0.7030131378459763 0.4470251082472882
Ni 3.3641720055823447 8.679124827931764 12.110068047581906 -0.18227347352335704 -0.5385836344825756 0.575118496183816
Ni 0.42424304311056504 5.043854950051497 10.25899404955014 -1.0664282852810925 0.48486557613382947 0.8216957739915656
Ni 8.916972779188498 2.7380062762740613 5.933205819692418 0.6067572061350195 -0.6111242248544637 -0.7443708748571567
Ni 3.8533816847432196 2.7298468425038545 11.36225914052878 -0.2652774253204141 0.2067604029211278 0.7280423129004622
Ni 1.523237451732884 3.4986244892649854 12.692385729051615 -0.4286867149494165 0.3414820948074506 -0.7135932273546678
Ni 3.536616567223016 8.78498731355508 7.991027808484104 -1.0618717762586618 -0.7448758395180333 -0.5882447491531289
Ni 6.188624421721949 8.436872792601974 3.560340143752653 -0.7359260865239132 -0.690743576450004 0.508444391895034
Ni 3.593449353394 8.807208750205856 3.464442583627421 -0.4782082187183119 -0.7738668274337447 0.01633910347965573
Ni 3.8292780046919246 4.604049591602278 9.557656452861263 0.21711654934447125 0.028339470374641518 -1.955615517256413
Ni 5.39249942302999 4.585373351259273 11.645193217200642 -0.6951738443072156 0.8266742010427635 -0.5207026404370968
Ni 8.315340173814151 0.18404320131357302 2.480959442332044 -0.33894210199441627 -0.4091347609594179 -0.7603482241220195
Ni 5.048048880735175 0.39309922451509904 1.4998702222548013 -1.001508444679256 0.4063083472542164 0.14942017443876202
Ni 6.238677476809513 6.21033418055511 -0.04007259651287519 0.38181267610569725 -1.3154802498815796 1.1790500599445826
Ni 8.001709082926851 8.905989980317512 11.711390621144398 0.3597310137153095 0.18507314775568126 -1.0724744914751723
Ni 0.22878759904336524 5.050333156706677 6.038171041714127 0.4481278543931637 0.3749072072351156 -0.8012989555027684
Ni 7.62523299151157 6.033275381452003 2.2039224525082126 -0.40170967213994047 1.3796614125451787 0.9673593096013727
P 8.939175941631504 1.9783840076067127 3.436492182840116 -0.5698137961414509 1.197046496522003 0.29546911841244594
P 2.144131072098939 3.2198240383911543 1.4620115460135064 -0.5903162869701769 1.022476819400807 -0.38116938609474355
P 4.800899357722484 1.4651894307450608 7.8591291453376035 0.3886880630692919 0.6436090848560465 1.5542647711177877
P 8.437530664081768 1.8617123280862478 12.13361801913771 1.4271100929454454 -0.32853376217689867 0.6517108880275744
P 6.646649165319872 7.97651808751312 1.46530090341247 0.3986788557334166 0.08094192706170575 -1.0560978498893618
P 2.0790200698072296 3.5496369402605805 5.886666894759414 -0.8969740750095907 -0.14132916990051145 0.7903568546689678
P 7.1676651031079475 4.249063968526894 5.978593469535786 1.3187116123346836 0.734189820559097 -1.110271764828604
P 2.555218513034426 8.775292846332023 10.126948279031076 0.6939335441422113 -1.11607782998742 -0.018414497951445705
