# total energy = -381169.8434536778 ev
CRYSTAL
PRIMVEC
9.18075776562409 0.00000000000000 0.00000000000000

0.00000000000000 9.18075776562409 0.00000000000000

0.00000000000000 0.00000000000000 13.43696699520756

PRIMCOORD
 96 1
Ni 0.8876507516128891 6.750822390296883 6.327548140894318 -0.881442812143211 -1.184779763339508 0.5108267760842815
Ni 7.058763369452083 5.911985728069488 3.815171331387481 -1.1572054532656653 -0.30252191149416935 -0.8157981775602079
Ni 1.652977085890382 8.417974566277769 3.345106431625295 -0.3034449375290709 -0.654447313122131 -0.8631920934631392
Ni 3.7898535555179356 6.95972135397518 7.357048945596801 -0.31051110034723295 0.7049103548686892 -1.2996759358594712
Ni 2.1193871259601917 4.955773076977406 10.017057849474966 0.6132944930329052 0.0038813373322771866 2.0585010384687448
Ni 8.029995740355083 5.1892672908839765 1.581732568973079 -0.0540669570477327 -0.30021640328944427 0.3055820384767318
Ni 0.4376173473613684 2.98625264184452 8.073682376492165 1.0376306443231098 0.0028158721822403115 -0.04633744961395891
Ni 2.670994598698305 2.889340562184325 8.920560464503417 -1.4059203462417076 1.23936479767424 -1.4292898742055835
Ni 3.8181761934254483 0.4059033375112188 6.633910947778431 -0.5183122858280492 0.7821730333065948 1.204299064319358
Ni 3.440856227344132 8.715403577716888 12.49080294810627 -0.007697368644257711 -0.464606054553845 0.6847665329309626
Ni 3.992472880840076 8.809166657441175 4.4854474436928315 1.8197237163213886 0.06017846926210926 -2.6163576622483196
Ni 3.306578463313247 3.230433257865951 1.1600319014626845 -1.9089744203591057 0.07376880635203426 0.0189333465693932
Ni 5.640675972658527 8.437933533801571 7.93080683275289 -0.22551531493112775 0.18938360220557707 0.4978198223016523
Ni 3.592201020182169 3.5604447788459987 6.13906810070714 -1.1567174578856532 0.14603171758250336 0.21870806220130723
Ni 8.955489575745855 2.9052508155048176 12.197044403647839 0.3619344491245315 -0.1318849937684761 1.1898515214354604
Ni 5.023012947328987 4.290728160483954 13.140883229335788 1.1028389626996427 -0.4640812923986265 -2.31948883527487
Ni 1.9399675756760688 1.2411099280923819 4.588858581821334 1.3027139513548467 0.963543021179076 0.8436769062483469
Ni 1.1481088512680375 0.5504020392349507 11.83538772850137 0.8250068406426694 0.17809851621006104 0.9562153771694112
Ni 8.60601484816486 7.342044833074192 2.4718511082908434 1.9359450354106789 -0.26742249668787493 -0.5076422077087128
Ni 9.29873056875985 0.8451667947516203 5.956916356892621 -0.276424185965853 0.03628983556996976 0.27705333490941964
Ni 5.370486269702905 6.387181753383216 5.69653537560325 0.5537500578103689 1.4702951129733517 -0.3767164925297125
Ni 6.9335194711265435 1.1530664604965812 3.3580861870462484 -0.6048957274462486 1.866683887121011 3.4235457295420133
Ni 6.197498115844442 2.423830236381918 9.279609804425982 -0.3336397159448964 0.6401913174237491 0.03230951076598307
Ni 6.549038513937331 5.273427297917419 10.5089711167225 -0.8990371281862065 -0.5662103950609088 -1.5488186604015521
P 3.6338632992175963 8.468551361166742 8.943941100470699 -0.3587565656171821 -1.6764158254279515 -0.1826290570905629
Ni 3.998578084797449 4.0225674050089015 3.462356644107699 2.596809050692431 0.3387860360325262 -0.319064903454515
P 2.4267588981298904 2.0142399065259156 10.804974356470524 0.060671092627811646 -0.31044322322377504 0.27562688687553816
Ni -0.31949129058192194 5.380566741800942 8.109801313949454 1.0517796821299823 0.10336786016538971 0.23946817756679403
P 3.887243034585324 1.8265668549520508 2.7499693137090033 -0.3977010652011796 -0.4083901694839096 1.991466722627067
P 1.346385678136287 1.9841545631149209 0.2797441176299657 -0.4782496134792086 2.867580409247881 -1.7477968482740995
P 3.769995576330269 5.5536423884240955 11.852936747094633 -0.43657125990381584 0.45300780819328434 -0.9544369451127498
Ni 8.62769979816082 7.4958225267373475 13.410026325898716 2.2006177372675584 0.6028226469673037 -1.0529533907231092
Ni 0.6859742901199551 0.1938875065494223 0.9934543952320558 -1.1788214888735438 -1.8733690124506706 0.40486518704978663
Ni 5.09566028404281 7.460577597425536 10.547051982128195 -1.0858159457790848 0.7593390661312148 0.04236843766388187
Ni 2.193989964091941 3.750027428048636 12.259096227749327 -1.0967855574167111 0.5576337091354912 -0.38817255688545405
Ni 2.976539400059707 0.7998661813879122 0.9559262114477644 1.258612333049942 -1.1309305787295363 -0.13753782117887925
Ni 2.969562024108424 5.346267430545686 0.6349237681269196 0.13990426452852678 1.3075604808138708 0.1935757859100537
Ni 7.506435482789564 0.236743284102832 1.534555408708789 0.9789171896423011 -1.5389196561202851 -3.153281392529969
Ni 1.5761249620901265 1.9684279249510408 2.435409926233699 -0.4923582849664488 -0.46327910821230534 1.222549525889114
Ni 5.118180683001362 6.778098421811704 13.296363035500743 -2.214032210901251 0.23115425838445997 -1.5093506842139166
Ni 0.5939399470951767 5.488605899951869 4.147131927254973 -0.6303751026642757 2.7323437253983522 -0.36393785270780543
Ni 7.936039864716353 0.6646226016332446 12.489755423637794 0.8052350573323809 0.6167492843507248 -0.08446073884824164
Ni 5.0470206290560995 0.6158727775525665 11.41354751347195 -0.6601767594067405 0.21297630192385256 -0.7304758620426194
Ni 2.2912050087605476 7.13319177318505 11.233264053875965 -0.6127054532986544 -0.3152604421067603 -0.18289593759870434
Ni 4.6906327908286345 3.925370721855956 8.234832218693322 -0.5395449699545806 -1.3040570956463025 -0.9902542119216753
Ni 2.0503202848003155 3.8729669561586846 4.165432849914563 -0.2929628070508245 -2.0512063045795452 1.2569151478531773
Ni 3.5343897881226534 7.738387329380586 2.003062333867116 0.3011299162426491 -0.9413633997582432 -0.24641247009511108
Ni 7.363399275788252 5.739075335087286 12.466401411868222 0.6017270999102798 -1.7414763053727107 2.045155984620407
Ni 8.405507097143763 7.6234809643723445 4.706002297512903 0.1233116502771683 1.019718282819063 0.8875244995609167
Ni 2.3349145967922067 5.225512922799329 7.901662517019536 0.7434103107161003 -1.0974905539035356 -1.6150096544063284
Ni 6.562396516580907 5.097799400617349 7.885470414433643 -0.19404578356793678 0.8001668987808541 -0.41123483802155625
Ni 1.5627210556573978 0.43633204126507935 8.394409397078093 1.0940930981862125 1.5594763972257144 -1.3382602238905725
Ni 6.137483501905573 9.187000745961008 5.5689375309699365 0.7426142971773662 -0.6018116892042861 0.6963146427798783
Ni 5.537080301297629 1.9133984625142075 7.239259822629739 -1.9041458886222113 -1.2146621527212371 -1.081202101156157
Ni 9.053870576658953 3.3120960987694597 3.7146089824138246 -1.5847354289028193 -0.7778960031977958 2.2717989853980747
Ni 6.812324287004316 7.2396885640204305 1.1142070668268471 -1.7111285463187886 -0.5074331770217002 0.8205238651706513
P 5.959431884538215 0.44669803493165067 13.248459677292049 0.9692948360611888 -0.00973728189242194 -1.8629267340714242
Ni 0.9920635104207144 4.142486463792671 2.0904961991429625 1.37349359317157 2.216284754380854 -2.9492905819341786
P 1.708566574554884 6.266307895785061 2.3633474037936866 -0.41892089381190434 0.6615867523803897 -0.56658886144625
Ni 2.2608258810989725 8.234322686633723 5.558308967629408 -1.2627363825206446 -0.022434674854432332 1.2519866002033084
P 7.409927356473917 3.758336013885361 0.17648078970253614 -0.7844759704081585 -0.7140033183088929 -0.8604006467609312
P 2.0998871963279204 2.1433856269294744 6.701190295388682 -0.9644938151281196 -0.8787971469902478 0.2807521239172455
P 8.947382966581403 7.215956305028235 11.036560808899887 -0.03409771301465741 -2.2123159995410933 1.8441633374209918
Ni 3.846039793441429 2.3311045822924927 12.483399584991645 1.3364128862691889 -2.79922403216067 0.6669372180590256
Ni 4.0602635966614935 1.2580851493212282 9.26022004388768 1.4956091662581081 -0.29994026680992214 0.1060999143845721
Ni 7.513523027834815 7.329770159854632 9.277554232747704 -0.3168501551913833 -0.4466291583604501 0.5524346814330551
Ni 6.876369253630834 7.851475904338363 11.880213696685235 -0.3368772490455876 0.6258059952363545 -0.4863640150562269
Ni 7.982320064940589 4.890699865473858 5.693767377117314 0.26435594194740925 -0.26237567829258684 0.5905757112791507
Ni 0.6593106151524385 5.317237874285214 12.883055416799117 -0.7242789892032881 0.7642493589486385 0.8498416402981622
Ni 6.448527577207527 3.545324070698941 3.1049341344727206 1.3150943272970705 0.6751925160892823 1.6950990036597517
Ni 5.053906197429077 1.9953183646369743 4.957139173742606 -0.4315144142061988 -0.3321477047804021 -1.9170386854244794
Ni 5.36726382370435 5.1254518432032246 1.64945534718655 0.21488148936636542 1.4787440150716533 2.559930432498527
Ni 4.437041898030802 3.6793814965418905 10.731890933759745 -0.1847175641884754 0.602897208958981 -0.7875921474396371
Ni 8.29346512857868 2.3817272809706203 1.8040602271302462 0.09549282829268715 0.9072206924382634 -2.1213670818653463
Ni 5.3836514764320365 2.538543805475717 1.3863724688676227 2.42512132310472 0.488051687171295 -1.3577286170278293
Ni 7.477681349264011 7.1787099705093445 6.875709157142811 -0.8076179557422608 -0.5179631300187466 -0.9092392655301889
Ni 1.7671489902721733 7.2571503654143 8.719731386958252 -0.32626939162275426 0.09227972067202816 0.9593132993684447
Ni 6.8223680360710315 0.483285191038302 10.140811710804591 1.5085456718141181 -1.5575167023961822 -0.6043218572206495
Ni 5.23114990810734 0.3006422766798428 1.6130811846615696 -2.004677822000702 -1.612076025699301 2.4012082639325487
Ni 7.711588697272959 0.47464058946497495 7.739384359680994 -0.5471734330341158 -0.4053603815186503 0.772597730913334
Ni 0.0746946457100559 8.919473462776269 9.975107294643658 -0.6370522575741352 -0.45662406478963297 -0.6697327785262916
Ni 1.0962283887671125 4.300900440160299 6.33452184454247 0.12535284907691313 -0.30531001576226774 -1.7523140194181628
Ni 1.8029539458116546 7.329366206510084 0.27463318974565054 -0.25172796877075354 0.7250276944438546 0.15301097711381392
Ni 9.158310877740268 4.774342940728375 10.724097388437317 -1.0039911018917935 0.7516118726902862 -0.9374252410461016
Ni 6.52924480005448 2.550653225054326 11.487303885731714 0.5487479766100872 0.6329575186794711 2.0064565111676798
Ni 5.66193860779428 4.195395171170627 5.557691102627406 1.2338780635280557 -0.5124298589053433 -0.05716950723245638
Ni 8.93175731675366 1.9477895813477708 9.930039872528848 -0.5482928913505396 0.690451756241198 1.2050220585283118
Ni 3.0261522153764653 5.9153734277089915 5.163692453795174 0.09410391836496051 -0.2809724674581677 -0.520519063671381
P 7.5725553006858055 2.6629063510495143 5.039279414053308 -1.609246526670306 -0.0789745189226898 0.6445071711902836
Ni 7.543975601559035 2.662823724229039 7.221469350105532 0.9956273033081304 1.8625868342335017 -0.9835045519026675
P 4.635199375047254 6.556814615819881 3.4862348771494003 0.7083497195675413 -0.5319293623908516 0.8544588273551993
Ni 4.353845870569577 5.8116767680119565 9.225821580447853 -0.23391845139315845 0.3754929045352565 1.137810079458189
P -0.04933831065762186 8.094710902303238 7.742178982364639 1.15623151938817 0.4038151485187174 0.45374108681488307
P -0.22751019595256117 0.2410646668137124 3.143269306870325 0.47598035782905757 0.5409367080957845 0.9897243075601341
P 7.753480495254152 3.7953803717319783 9.282284159182048 0.9680347384018425 1.1202335040270064 0.18262982842151126
Ni 6.228685150195113 8.166559513085797 3.2856472535351795 -0.21463054969782394 -1.608382636008114 0.9276648192252283
