# total energy = -381172.783750237 ev
CRYSTAL
PRIMVEC
9.24738490560084 0.00000000000000 0.00000000000000

0.00000000000000 9.24738490560084 0.00000000000000

0.00000000000000 0.00000000000000 13.53448254933341

PRIMCOORD
 96 1
Ni 8.487952704151628 9.088995736063387 8.392110032361932 -0.8772454862324117 -0.6276728732417641 -0.17624552216172226
Ni 9.309897267639304 5.775685452278415 11.309020988338537 0.28044770530294927 0.909567338293569 0.2772885908486773
Ni 6.161625062975032 3.277328708962389 4.480942440778891 1.1115043516841245 0.3183388239217679 0.18356236753810967
Ni 6.244786795789089 6.110561003306488 12.500299633376358 -0.6525135864345278 0.2518701507755727 -0.792126544974881
Ni 4.01834015940785 8.823262882272134 12.447893778152235 0.008482326439398296 -0.20944900549688447 -0.21860676073675256
Ni 6.25521784600751 1.0052369804906138 7.977534969443362 0.017588916726356804 -0.19660814497847431 0.6240584164176285
Ni 0.6633445137659657 9.229028886291706 10.401493726658096 -1.2818561340692312 -0.39713259429221925 -1.064507928329928
Ni 5.963388871900314 1.7441215323986312 12.139199423381601 -1.6945328467436365 1.5075822794595841 0.5922016769183479
Ni 1.4389023448904834 6.155336841212155 8.37391950143582 -0.36590448951587307 -0.09343928819776812 0.9037934119242692
Ni 4.925601096401863 0.5770617885328332 10.113845495284718 -0.6349274979216485 0.1870611247199875 -0.14490326040501494
Ni 6.545465517289041 8.64902365513075 3.220462839979095 -0.789247166544557 0.31209181457079155 -0.10879263072538682
Ni 1.9707934321804805 3.7202599530775577 3.613950166268154 -1.2636056724994753 0.4773322438712618 -0.03679325756894954
Ni 1.1808818101437 2.9681793828524428 13.07230680129803 -0.05111404506699584 -0.997595996998727 0.25827682563286486
Ni 5.573066000739573 7.367215885692863 0.8321083642811734 -0.0928859867974594 0.0882474595841835 0.44812245507652504
Ni 4.409180884125534 2.832899388486064 9.228013523424702 -0.47360285873581665 -0.2197691564759699 -1.0778987478145372
Ni 9.118161988181205 6.889773400961431 6.650587939871455 -0.6073868692992185 0.41423094453540277 -0.21956166845085412
Ni 6.429355351914495 7.845573861533891 9.24368599143018 -0.0816798336689948 1.6161306553846488 -2.1487997241550025
Ni 6.60373328983006 6.1489284034449865 7.111369411146746 -0.26384146420483595 0.6248428599921368 0.45695676553870335
Ni 7.022954238945202 8.32707594825636 6.28031154979537 0.062028120876338334 0.8918904898390962 0.09550902624260325
Ni 3.4372714789781713 1.233471688328237 0.477754121604093 -1.078265901345969 0.03080952918168887 -0.24070590662863708
Ni 0.7071586236373104 1.4759843585215708 7.463184321917817 -0.29467207643244736 0.07325072906503514 -0.8598134067988934
Ni 2.8588845401826615 7.543082652584639 0.8179700374381386 -0.6836625012335065 1.8340190498981381 1.0367844942727307
Ni 3.41040782571176 3.8961822042790057 13.266310464283237 -0.2321708725744324 0.038331548590346896 -0.46534061872702437
Ni 1.3076727051301937 5.154473873800718 5.681437029653307 -0.7222609303319948 -1.5644895341695895 0.03779315958837362
P 3.1431491534045137 5.574970962038328 4.329450855864717 0.3921731934044149 -0.2571352558292539 -0.2015148382514723
Ni 9.259036650439556 4.506481868521121 9.307366258379744 -0.6586639223066398 -0.3514985985031882 -0.012326382775836834
P 0.8926352729643546 2.355327440365395 10.642379781839534 0.5451435470882805 -0.4720036325694968 0.3560188549710449
Ni 8.177906381701977 2.4358999053947383 8.679582563421345 0.08465460002660259 -0.5947702089764725 0.06128892871746863
P 8.832001661045544 7.101880669454262 9.599385728616816 1.0695359776721387 0.2323894163431417 -1.9882050211566595
P 6.132357089622815 8.854371085228488 12.395636805825731 0.7934876869884656 -0.4222723267826405 -0.09607106939366035
P 7.076700040247915 4.336376222450334 8.406808750732658 -0.6494040942712687 0.3653483599020869 0.40217401337086867
Ni 1.2801062506079313 5.444638318617741 13.34943890651149 0.7464881783104756 0.03183437090177744 0.31667506306609977
Ni 8.43421615023386 3.0066300094554506 3.465166215665996 1.2452701074150812 -1.3204116257449259 -1.426225633457963
Ni 4.814049891805402 7.219045036712585 10.754053051917271 0.9573302075001447 -1.0902140748467806 0.8724565494842006
Ni 0.4107605166285877 2.9251697954713483 5.372418091671092 -0.34057063873677473 1.1900294417742214 1.3570192496656306
Ni 7.09098724998857 5.980912666371863 10.285611046953205 -0.5797341405789564 -3.202736047616671 -1.0071705280610395
Ni 6.372890819437831 5.745252308423076 4.474391593283564 0.053981596422778 0.12667722431529152 0.6516669221635164
Ni 7.306590029990766 1.365468861038996 1.9465024014058818 3.2948177933452807 -1.284987480609361 0.88318422031435
Ni 4.665324199728399 4.64814255849983 11.282642822781758 0.018559765280058357 -0.1154841838129495 -0.34295250870539
Ni 2.6433649866449747 1.3006724347265195 2.987709859857145 -0.26494703856418883 -1.743138780676798 -0.006583823865104791
Ni 3.0896715262652172 8.49058820886107 10.164247442191172 -1.9449433822545474 0.11290613867312813 -0.28882821605716064
Ni 2.4349011878206346 6.970012960132738 6.188087379734813 0.703862116109833 1.9972887286254826 -0.731702792471185
Ni 7.774100823290831 7.976202421272729 11.2304801737817 0.9114619842131205 0.36613743146228556 2.702526127816288
Ni 2.9152011145001984 2.3377111720443926 7.1077416620326614 1.3156604842131858 -0.10311177829052565 0.3690404640416935
Ni 0.2813405901021143 0.4330615101629345 3.410337545586175 -0.35472430452933745 0.16642030854118436 0.019065501271883296
Ni 3.8621333329100125 2.97615987606033 4.7657887145138105 -0.7678543026910776 0.8876826224053357 1.5738730322670185
Ni 7.661088531872995 1.9182035539959432 6.02962511604879 -0.5290481841883147 -0.8700715941917919 1.5217387734656243
Ni 7.792151718704267 4.296177840092644 6.384918893036325 1.0906524479357795 0.10857357273604527 -0.8035214170753838
Ni 4.713798991612229 4.349599982922268 2.9602081370295004 0.2426769143120788 -0.06941798558250625 3.126473014087874
Ni 2.268605464347356 6.930693079344863 11.830003860346928 0.22056954089007816 0.6429819927950088 -0.45058865722883046
Ni 5.499854454126775 3.36318143079556 6.8302581561912765 -0.21391449746740576 0.20612174089586438 0.8981434127273435
Ni 4.934977944736507 1.4382180384045231 3.536181508354259 1.2125687605273183 -0.6789656099784693 -2.0180563001901377
Ni 3.8909111948601236 0.1820282994809014 7.833921231764182 0.7322568652024422 0.6186704126328376 -0.39237682477478875
Ni 1.7377223420164085 0.5380026840004174 12.269076170724379 1.013972895694854 0.2467829660606524 0.4271890473579675
Ni 2.040509467283914 4.273087119883959 11.192813725422061 0.1610914401291032 0.21778683593861847 -0.46242987283813264
Ni 7.125322790290872 4.471536000812422 2.182029597011454 -0.9836194802139769 1.6652068440860097 1.2345054126994095
P 4.886050030990352 8.014745521725192 6.425562999348382 -0.059139229364317494 -0.2834258140946667 0.19860589213479343
Ni 5.583478556188103 0.48708473301401 0.8534901677519465 -0.04027607391122741 -0.7319275068874814 -1.0424794877749788
P 3.1603770315578092 5.969390424729884 10.01638360639108 -0.45834644679737835 -0.6147384245682832 -0.1695997347104305
Ni 8.257091738989509 3.273509538979935 0.6800563878393077 0.46951171938557845 -0.9632013215689411 -1.4842724010890502
P 0.8682055314155749 8.773511951265837 5.555539432052541 0.364188792376347 -0.8104705946997075 0.00619918683217642
P 1.082850282337426 2.3842255183197962 1.92303346315293 -0.7482259869371889 0.3399988253937048 -0.35979426285307714
P 4.1922002437664725 8.822069969614176 2.151008319473587 -0.8390453210136065 -0.048225924885923394 1.1927344994102105
Ni 5.9053892735227125 2.6791431189987596 1.0939120042091235 -2.0874159217308828 2.1539002786063612 -1.3748526783026258
Ni 3.6833166502206516 7.170634976523373 8.246302814973701 0.5115880797303383 -0.776408877129308 -0.5506595918105032
Ni 7.104525421548649 0.7898330192647446 10.423324953037216 1.83403421940679 0.39532716565236437 -1.2808408054308393
Ni 2.665817637292426 5.335556165801706 1.841677744618711 0.07580023495976623 0.550749066200516 0.03166622075502933
Ni 0.1612947376948014 4.985579635157781 1.7983944346432328 1.022045388290343 -0.3110417760397224 0.9059706220812462
Ni 2.012850538912198 1.4885053177376537 5.206106647643407 0.30762400860742506 -2.314256383231337 -0.28593701055229465
Ni 8.583062058315152 5.121867594483209 4.087264618359956 0.9036347748592178 1.0573116676918048 0.8781931948576617
Ni 0.4471082878950097 0.5737031383206608 0.7284350069197059 0.5737655817003473 0.011490517138102792 1.2695721744955555
Ni 4.980539810362534 5.197853356579629 8.871271605954716 0.9579092199320665 -0.08445173998717714 0.02590000769521346
Ni 0.6967599392661987 7.360104646669844 1.764680318609263 -2.3326338572972602 0.3982620799109722 -2.4184608803654095
Ni 4.815446246932158 6.68153153937578 2.9056642864059987 -1.327195995656611 0.9186446180044888 0.6266117789671015
Ni 7.635491770344105 8.314527246885438 0.5742330134780328 1.5421636169788795 0.32818614902949284 -0.17629745844558026
Ni 3.3983214935881114 3.0702242757250238 1.8154068487273005 -0.3314213681373389 -0.16412174231499474 -0.6477382765330715
Ni 3.049020022045202 4.568772253513391 7.598569736472573 0.012275474933243375 0.11798998095393873 0.7084975579993154
Ni 4.056393148458206 6.222556082380328 13.147599009523546 -1.444860217840015 -0.8669361338866036 -2.2028648814305223
Ni 3.91846840199744 8.743088054795443 4.5892995986152085 -0.5463252261012075 -0.740172520505093 -0.6531944145516363
Ni 8.454486418034195 7.562881303752759 4.300352109657001 0.6209244987743371 0.0497485321780369 0.1405987194923901
Ni 4.482078019650188 5.573269443208373 6.213626807477042 0.3368299407474199 0.7450005380213557 -1.5205239272219166
Ni 8.46365982390004 3.4273027980070214 11.520240507876608 0.0611446898301205 -0.06762412690687708 0.6126838560320997
Ni 8.038400332415547 1.2026039173804641 12.753800046361826 0.8746522715839389 -0.4177572125211063 0.022570429101348228
Ni 3.8017848987562775 2.3800179581696357 11.457020760697324 -1.1522385961786932 -0.8227625246931831 0.1556296456835836
Ni 1.7667961202847724 7.112163761513556 3.558810784054168 1.1394617561289988 0.03503873677168805 2.5844615848706716
Ni 8.190492072612678 6.009903218175718 -0.1306257855233546 1.6732906495354087 -0.28213794852117857 1.217505021486671
Ni 5.158339280707899 4.881611286216555 0.9577729277813165 1.1458555754704847 0.8625909695440306 -1.5107172255441401
Ni 1.4855276597852323 8.44615452419838 7.901390152325882 0.41816344682058953 0.9920717247463882 -0.1664107954594876
P 6.431704187690628 3.9658520024577126 12.671118252826437 0.23104267250726018 -0.5630412533043078 0.19791426538440754
Ni 6.509326736922387 3.2414858449139863 10.206096482761616 -0.5312927572481172 0.3058581749562539 0.47061035176639593
P 7.234793333274616 1.3572016988978008 4.090607548017722 -0.5682240830568278 -1.383843054726694 -0.10021028837301452
Ni 2.3872494131969453 1.1914515711363016 9.218904849253473 -0.7931565289012921 1.5871422385720988 0.9262411994048242
P 7.23567183484443 6.675992355793481 2.5784816349140116 0.44383796876855824 -0.2428106116764657 -0.3361650534699114
P 0.575088396585483 7.8999299902430025 12.809006934485915 -1.1892498832957197 0.105233966839851 0.899622054155399
P 1.0638931431993388 3.6880790534675367 7.586807987560508 -0.17429379775199014 -0.2547531287503226 -1.1633974410089898
Ni 5.127499251914963 1.1504579136733064 5.856952395917158 0.24612990585768582 -0.08649602411071555 0.46789295283523297
