# total energy = -340862.925166137 ev
CRYSTAL
PRIMVEC
9.33129627231565 0.00000000000000 0.00000000000000

0.00000000000000 9.33129627231565 0.00000000000000

0.00000000000000 0.00000000000000 13.65729531641620

PRIMCOORD
 96 1
Ni 7.988970447327582 4.524120255947773 11.505301398994055 -0.3329025806685557 1.2429291179867306 0.0209532052128994
Ni 4.966918247226192 1.4856356435090945 2.154998435917877 -1.3093443121871708 -1.5113034370649134 0.40710178968978916
Ni 3.3809711712208794 4.851611421983795 12.866428626229636 0.3973002302183351 2.046677820581572 1.0166735824554685
Ni 5.441041399331568 6.203874851105129 8.379965748605745 -0.3857078973950454 -0.5256245032187464 0.18875651014453942
Ni 7.727012973423739 5.270950535002169 8.666591436737216 -0.8016185436257162 0.4243716325138305 -1.1762529568154194
Ni 0.49467439851743944 3.9175953442434346 4.330141273740203 -0.3960727855691372 0.6735328689986723 -2.768059947853039
Ni 2.271741347621777 1.2919459314789565 0.7142285969283231 0.11971184874105191 -1.7715535843740648 0.6619500492570793
Ni 6.634840758997017 6.97046881518529 11.398760393257422 0.18513331156965537 -0.15373628531561265 -0.34117021999398667
Ni 1.9353574564537641 3.388249582136884 1.69586694404026 2.0683020837195674 1.4308775304076777 0.7431434302079588
Ni 6.008822769852252 0.35505488142677405 10.770811758960706 0.004590704694475966 -1.1641967969818336 1.6717323039093532
Ni 7.578150807599353 5.473952880486374 13.602816251878775 -0.1306539495748524 0.8710131321694548 -0.5453021841533319
Ni 8.905453019797209 6.842993979898703 3.0464647368173536 -2.942787490708338 0.46434560180360673 0.06045357730036685
Ni 4.13515451155965 0.4981241786657047 12.629884003977903 0.20639813448570257 0.021393892294743797 -0.16734744834114404
Ni 4.309089869860067 8.027993927392622 6.855442861953884 -2.3196119911162953 -0.9905529741090167 0.7279572093858236
Ni 8.276990231088348 7.991144639306337 0.28352956410335495 -0.6195371315085072 -0.6549751606011429 -1.6177715334221816
Ni 4.475662835580065 3.775442380276237 1.987067766623163 -0.11249321950542562 -1.2088280625379633 -1.4653873912590891
Ni 7.603783877838153 1.2313298323631028 7.065218795237997 1.011110486545394 -0.005427855883790652 -1.3964260335980274
Ni 5.451781721080698 2.376998367022459 10.088425276660297 -1.1549248847616045 1.6028881885524457 0.3455308109555275
Ni 3.275891446445075 7.334314710617152 2.2784598807750123 -0.176047032997671 -0.6830390087168947 -1.2532353850087448
Ni 5.548034039796836 8.14866624786156 1.2983770607139697 -1.6951380844278032 4.925823051848917 -0.3686368008453716
Ni 4.992504660984761 6.194048996368522 0.795206517146502 -0.7036929375218204 -2.7954745924205664 -0.9858877074228632
Ni 5.651294161843641 7.386010090712877 3.8306388626484815 2.098084200078006 1.696035656541408 0.581264975401186
Ni 3.456769289003835 2.724925071399572 11.344705128391622 0.26369696820717164 0.2193886332080996 -0.7661262642563773
Ni 4.564207503762074 8.157717605026335 9.626862982162656 -0.7125429317132825 0.2185859348011461 0.08194979950092983
P 7.127859785595868 7.167256517502754 1.8828763812309524 1.4656054208071663 -2.4571508407364386 1.1561047640023188
P 3.0017193060168084 4.003779194525766 3.5943405866123683 -0.4400535620254615 0.1979389479747559 0.39701175244363884
P 2.082782602687042 5.783938535139802 1.0151330342696274 1.2737383900581032 0.39180269743887364 0.5747140616565457
P 4.690291975937786 7.078338597478898 12.209703208056167 -1.6510050986643308 0.5593638044527205 1.8528608651949896
P 0.665223429482706 6.328932880715762 4.959524128239215 -1.4903690009050912 0.4046823816150192 1.615868402862198
P 3.2003079484711807 6.6457117188907935 8.764200525898465 -0.16778582143014328 0.7722969118434635 0.049068218281560654
P 3.736176286513997 2.691696326179197 13.598609703621165 1.815586040003931 -0.5552173863845148 0.9002820563369012
P 8.371730879845009 7.647808932583935 7.985420822311623 -1.0208431404521259 -0.724996584095603 -1.277357474867929
Ni 0.22812872634769985 1.9757992935178206 2.0140137502156583 1.6281767879159053 -1.6719086815862174 -0.5963923179609277
Ni 6.8599676074066664 6.717394735117392 6.4243640453798365 1.0282492031082098 -0.6811644174020011 0.9646817627692097
Ni 9.287756218808374 2.3918444590318995 11.693485646356958 0.7963212997825189 0.7885565682354355 -0.45702875642721935
Ni 6.204882631078115 8.892510512181184 6.24086504176171 0.72824568716052 1.1341308308343885 -1.01636864962054
Ni 3.1729579197598863 7.203527265234177 4.55589611837376 0.03805361233861188 -1.668753166676371 1.2940539616870037
Ni 6.781230131369171 5.256151099472959 4.346120185089648 1.4037755319845633 -0.13718275183230566 1.6820344571663095
Ni 1.7722930580471221 0.4423090313656001 11.244570057390678 -0.3106699945226004 0.40787260641754275 0.42748960931752183
Ni 0.3748017701196574 2.1199211609507578 7.697988910201764 -1.1161130541007294 -0.598450486041537 0.8056888570403479
Ni 2.7610371870982098 7.656645669939649 13.363649535438073 1.0592389666215047 0.3572406431932879 -0.45734525922637365
Ni 0.11794944828266854 4.767004560733265 1.4351356024368827 -1.1501084372095676 -0.2210675635724193 -0.588454808281406
Ni 3.75422301306727 4.006569252043568 9.099882703603807 -0.9143894422725607 -0.30673800645804594 0.20605797753746447
Ni 0.2864082689335952 4.815751251278404 9.71801201507115 1.831013430302595 -1.0307953665688312 0.8052934213741421
Ni 5.788417557241957 2.0406331384465384 5.88259272945822 -1.028563649024835 -0.574900723746055 1.0066671060620598
Ni 0.9953226927636303 7.834154914625746 1.3784853041406468 0.47993908536648955 0.18582056744466707 0.7316745103364108
Ni 4.817673498263912 5.46164490100149 3.3182172721808505 -2.0053447661607398 0.024708044269641318 -0.5263300139262033
Ni 1.3744532511191012 5.689095242126633 3.209792277772497 4.435595954292857 -1.126267368925912 -1.9016699162778925
Ni 5.710501235256523 3.6124992887181953 8.090868200151647 1.5054418360778137 0.05332725066823074 -1.1549369689464626
Ni 2.219112837921436 9.35845011765408 8.090923254798318 0.4820088234113247 -0.6852146762119747 -0.6936800333705085
Ni 0.22671130247828816 4.81600319627165 6.5412571909500805 -0.5119786303005377 0.2898008643830751 1.018734321639239
Ni 4.062398396287742 5.716016031219804 10.66828694304234 -0.4038156627393497 0.8545012505573606 -0.5584099251798834
Ni 8.002463501410329 3.155060493943352 5.412918739307652 -1.2434214842421167 1.2282447765016784 1.069713126679951
Ni 7.417624521717267 0.19662907028467835 8.983181782732114 1.689311707554013 -1.4472490297871654 1.0592320246429694
Ni 8.387836696820681 1.012949510994826 0.32451261633808853 0.232769939611012 0.14966417212876804 -1.451940264615248
Ni 7.640651828516531 2.9235603703341746 9.86148162491046 1.2407902172668566 -0.45956694946804083 -2.085367523842286
P 1.9621476074022886 4.845182159007992 11.18864293453802 -0.17324324500028873 -0.30714835452258715 -0.1966253713696549
P 3.9794804996215665 1.0148530953882426 6.661427487691735 0.4375158832052723 0.0837382588599203 0.10086334857598112
P 7.931610970531838 3.2973534273512417 7.517112000772609 -1.415010224358118 1.9809524533593046 1.0631383016759108
P 6.298783463190619 0.5112523790730468 4.185291565215666 0.21544430384837088 0.01532968837853489 -0.3187208898515349
P 5.840626158620221 4.570011569902786 10.977092188745926 1.0492494595089605 -1.4273245229490967 0.0065863949682660764
P 8.450095104040658 3.2669520648328536 13.578751772505333 0.06202400711128028 0.6764600699477963 -0.19407895079871737
P 8.74318178155449 6.8047076722213085 11.555409525632328 0.5494488593318536 0.31436826930979406 -0.5060643216986316
P 0.7036898311737902 0.8636935644772915 5.935951879638976 -1.1200676678731032 -1.262844625963735 -0.14532594976473034
Ni 3.6087201138195004 1.985709129918842 4.266320807562098 0.21120866850046852 0.8311124393197751 -0.16819411261215547
Ni 8.48675776620602 0.12488913315219756 11.840697105910781 -0.34975487633920416 -1.8096336790752383 -0.8350716810778392
Ni 3.4018826056603233 5.391258934925306 6.963608446332155 -0.8262286288649124 0.4336713126482015 0.5408618889937912
Ni 1.8614349291760863 3.1522144486492727 12.876152769839338 -3.5290830865548966 0.3467328016834287 0.32719267476797204
Ni 7.813243480186301 0.017581094880569595 2.315826122662254 -0.5909302664050918 -0.6285935852838206 1.7698440578821264
Ni 8.302931234096674 8.199811081490562 5.256446901557623 -0.3772877916521502 -0.006719578112020686 0.983961436934428
Ni 5.532488100583934 3.9024039942802866 13.566664944736742 0.9865646788852298 0.042061705056740464 -1.107576220274312
Ni 6.796542788180919 2.307246929077415 1.29267843821858 0.7875754352690887 1.4853754043452418 -0.15771018236169612
Ni 4.615650938864554 4.051555430282105 5.175513771560466 -0.5068523648175658 -0.18412672468201194 0.8694578718671929
Ni 0.8070843238836588 6.062337752676977 12.978623464240638 -0.017411510608228077 -0.49845668455470277 -0.49918276408745005
Ni 7.1135175835729205 4.86049481581974 2.0652565624531447 -1.3784452807498904 -0.1970945976965896 0.6900684047598503
Ni 8.71074619649804 1.4947989762264235 4.139458105296138 -0.05459737562990597 -2.6377466694470573 1.064656023872018
Ni 0.9682059464534901 6.555170153354905 8.174341308932568 0.6458369457453006 -0.4503066072120374 0.4538858399228635
Ni 1.9634259949606125 2.0545461008513626 9.169617345215968 1.5665872972388826 0.7361646848972806 2.6212031632660793
Ni 1.5120991990960035 2.914509013169399 5.9211888361643465 2.4240232049445347 -1.592361063768877 -1.6601926787008698
Ni 1.9891710407519674 7.361944678209831 11.035790706524294 0.7712730985646394 -1.4725216883110253 -0.4853394304464545
Ni 6.969190427626967 2.3084040097871386 12.088126685000356 -1.29535853943104 -0.4578044582509793 1.1143024832545518
Ni 6.169563675543399 2.886683088359751 3.851521370070182 0.5214369474999601 -0.0922421825658734 -2.0256798781736665
Ni 0.24888899379119606 8.19675041638742 9.696050809826511 -0.7872597038008828 0.568232310586944 0.8682031735244855
Ni 1.5699252406940558 7.655264638124817 6.269135136263157 -0.3269818443087465 0.5143725844540109 0.41441683529396367
Ni 2.6726884761331693 0.15674897724260078 5.35763360962297 -1.480546872608347 -0.3858323387880517 0.2808773366412001
Ni 4.144383163349302 9.027198439311455 3.645350116448701 1.7309432670518707 1.4974531614453823 -1.0307339172032763
Ni 5.411778454930812 0.989462638846642 8.175229648316163 -0.6977115231274048 -0.05998872184880636 0.552774324160661
Ni 0.6797709200186689 8.707274954368868 3.9668160646277184 1.6438908562170527 0.36388643064457976 -0.8724856029499232
P 9.24458964329884 1.0469154286028477 10.012190454222381 0.2321413048880776 0.5875106992005817 -1.5938499896095775
P 4.973879394076626 6.1349445672121465 5.683837989934227 -0.07759306519413088 0.4829138517240974 -0.6773429867733819
P 6.407017166030027 9.237068618685633 13.001334905687386 0.30885813812484225 0.9055361056469888 -0.3142374001588846
P 8.179114266860179 3.0965252738457916 2.8934753387517507 -1.5614327496211367 2.669705481741841 0.9084298822550161
P 2.272618489450116 0.45533738690524833 3.0290376083215462 -0.20432016891075133 0.9023800765165105 -1.2761858231573313
P 0.9662650368758888 9.205790114338907 13.307613236421673 0.07637461940599749 -0.26343625834661727 -0.23238915923282555
P 2.1117656082064142 3.7352151630212425 7.6920346101947095 -0.37140459339849585 0.7233677902429284 1.3974156512048062
P 3.70402064033893 0.8536306948211129 10.230311365560576 0.6804715051000345 -0.2536221004696729 -0.23896449845749815
