# total energy = -340865.5300600768 ev
CRYSTAL
PRIMVEC
9.33654327514608 0.00000000000000 0.00000000000000
0.00000000000000 9.33654327514608 0.00000000000000
0.00000000000000 0.00000000000000 13.66497483543126
PRIMCOORD
 96 1
Ni 4.085848771879748 2.915260974110531 6.9043243364812374 -1.472484664425503 -1.8144928069397526 -0.20234427613130312
Ni 1.4271093267873727 4.321167010910634 6.85495269515465 0.2912301406304339 -2.0862255009672075 1.1966073521020553
Ni 5.499345418437514 5.569901676664637 0.7230331222202281 -3.162928942922062 0.7703559860670087 2.549960208659692
Ni 7.424213881768833 0.21530722563162777 6.708122479542235 1.491120277248819 -1.5250999766283735 -0.9086008606152416
Ni 3.2822804938813652 0.9896642603965583 10.426484904482782 1.2642397065390485 0.03476594272627561 1.112429434601555
Ni 3.503817994902031 4.359278780936188 0.42741295054258854 -0.016859494759499993 -0.2863201049233262 0.10150355326314132
Ni 2.127191358101962 6.953213278515734 3.254136417554802 -0.05181544200939463 2.6662342353637887 1.5569194351318154
Ni 6.497459250581531 2.2540843190077218 6.848626253368929 -0.364280837869521 0.7075976718928653 -0.44361968211016506
Ni 4.137778626088992 2.8451808795951434 2.2345784126046375 -1.1703229644842297 0.4113744489232142 1.8238210263192138
Ni 5.621794184700411 3.5787530919684447 4.743303880796329 -0.3883098537942667 0.9688906586442345 -0.48080991800721706
Ni 4.058912844264921 8.015030346055234 12.86814318070373 0.21255335545382104 0.5629913739029788 -0.5778757472139789
Ni 0.891349525083944 2.0374858494283883 11.240630552462044 0.8084273390174336 -0.4863730139172914 -3.065370747459914
Ni 8.977347870928801 2.8476644001308604 12.82970369800598 -0.6983699826470101 2.9835705861629713 1.5060308758120644
Ni 1.5325562475783117 4.863330747709734 12.886740641437171 -1.061908543033868 -0.19776077052567875 -2.236789816312741
Ni 5.447284852621126 2.823874887630833 11.42070819900562 -1.4552590445758358 -2.1331933850763134 -0.2376874315172874
Ni 2.3092726268521737 3.264251628638998 4.270933606631239 -0.009191693801597074 -0.2863062209662553 0.8910813636742396
Ni 5.633287469585628 4.441627093436284 7.027677813796433 1.932592059778046 1.7211501922208488 -0.5874531064897689
Ni 8.316012494588746 3.208755214863423 3.588067227631721 0.39203538227497 0.5257183484841332 0.859638828894242
Ni 2.8099074187532658 0.24822134196457418 4.7698000572185535 -1.5356543551054522 0.7969157388334082 0.2704348011516375
Ni 2.9894864938810253 3.399846247963135 10.767208049859452 2.889411131969727 -0.746097113519644 2.0548274462719
Ni 7.210621779153788 1.4326365604608486 13.383490497643104 0.67161302626814 0.011110508090864736 0.4676363567397365
Ni 5.218679588271371 5.908323364101254 9.599316645814728 2.9669712870433935 -1.0282088367885776 0.3303852135633407
Ni 0.6854638053643171 0.488701755823272 7.297629960448533 0.023201634927443912 0.2301543563650359 -0.4765179755000825
Ni 1.5272437544022852 8.94452058444917 11.660568666384725 0.37344553508792455 -0.6521348629388704 -0.10522728197163168
P 5.666133429151993 8.362797913402575 1.0327430714935473 -0.9045721990718227 0.26774748412746147 -0.048559911186574434
P 8.006001908618998 6.408089857469181 1.168073466640388 -0.04984623409816577 0.830486375700002 0.570449887063553
P 7.988262476221018 8.59929255689775 4.736184766478719 0.7655693633116428 0.18784376852228296 0.1092672563689602
P 4.487301463589398 5.457741781192567 2.868497029346446 0.5141753808415402 -0.919636806714429 -0.44224234214666414
P 6.27166428578535 7.475760937700015 10.835081919177133 -0.560540341259325 1.455919303867654 1.182614637367389
P 0.06573019896053557 0.7895671975646931 12.84707153597794 -0.014783328956761637 -1.6964287782147687 -0.28627151107357796
P 4.278816450196299 3.4837350901188446 8.991990371891827 0.9211545289105361 -0.06481956757854644 0.5437057862004894
P 7.054878899242892 5.617788807595814 8.122064479218622 0.11452799054726727 0.7730281335825332 0.45008960610522486
Ni 8.400965702688335 6.978786070798926 7.140714410690697 0.294061439431642 0.3059440498018408 -0.24006878726527042
Ni 8.407557302305689 0.9896175776797216 2.0360816333059377 1.0984917414745403 -0.8457080777457628 0.625965146522038
Ni 4.788255602492809 0.047270919068932486 5.839508371212144 2.014820823971975 -0.06954911184373183 -1.5824440617654811
Ni 5.825302820478708 1.0281775017869093 2.213821409390328 -0.9580750560859694 0.8611287831762072 -1.9641739483493852
Ni 8.446826803708797 8.32462078757345 11.421841655370418 -0.23621804606061256 0.20646421183694763 -0.13493252234554826
Ni 7.096743959702125 4.446295365119964 0.16712692723871464 3.9033032950253164 -1.8840056662289104 0.0012233308841398287
Ni 2.6883642971970017 7.836963790952985 6.864463831882978 0.5329045818199274 0.07837442344484567 0.5961897150318184
Ni 0.2586334551278516 7.8932631474581525 9.235268014143386 0.6364904715333941 1.006123574853764 -1.3053488178745327
Ni 3.7099315262798216 5.5028466222002725 7.986371826189129 -2.1731272451567736 -0.5671799580630297 0.7025822209561448
Ni 6.644575164420988 1.4208445061878758 4.225346999985778 1.2260269429147532 -0.7468273068174492 1.8637775121074933
Ni 9.270739409704651 4.570153949431332 1.5337158462645375 0.010609657195046243 -0.1323233668574753 0.29888868561695625
Ni 8.64126965587739 6.265735580747077 4.540119223072878 -2.671852867102147 0.5352489136823878 1.493681610218092
Ni 8.920049504283325 6.319626109063466 12.974893482948753 -0.06952134392958995 -0.28640752243080997 -0.7895469571731628
Ni 2.7143665704750934 2.0323507505763416 12.683666154925456 -0.978050984987264 0.9585969900277105 1.4084868214173032
Ni 1.5565885102058907 4.582282119265529 9.917738523704129 -0.3368803343693811 1.5754923130379963 -1.851699497897037
Ni 0.7364618725454988 8.18529155090237 5.306177938092902 -0.6980650498120817 0.9739251357443486 0.11126603196654387
Ni 1.1513731915191951 8.928181633556294 1.1042348513660794 -1.2248743173675485 1.6121629289861523 -3.5783796187971793
Ni 2.3239590095690272 5.00193173399816 2.4984496685615767 1.0790374894046706 -3.3829359264404513 -2.3639326674105416
Ni 6.7647831602757185 3.5694632313179238 8.936757248639212 -0.6920450688702469 0.4052534236271408 1.2822528552870176
Ni 8.959617775074188 2.6401877334214356 6.444825421002387 0.20795776566333862 -0.2281373259350071 -0.08053363587969356
Ni 6.492846998158056 6.981549687635665 13.06781543081238 0.5852668974717276 1.5385761567379372 -1.6098700191869177
Ni 6.20325543253272 7.3249757623171865 4.947991722001924 1.1495116841658333 0.22021884241887882 -1.6292864760403165
Ni 6.930618843566728 8.530668963147669 2.8426021263170793 0.529136887247379 -1.7921051832731714 0.0417346607346249
Ni 9.14689016193665 3.463521473728515 9.060794160928898 0.06899478200215858 -0.9154646776146104 -1.136744614308152
P 2.2056743416479714 9.076371249882998 2.739130818102673 1.0084964459613146 0.7177602142481638 2.3546725822648544
P 0.7831782009384102 5.136676727875868 3.891579579417788 1.1977093269169825 -2.138615070312517 -0.35070284207477026
P 1.7137505447086243 0.44573871786403846 9.182467060437968 -0.7315456980680305 -1.8379263553723442 0.8445541666469777
P 1.5398014052313815 3.3086095461773146 0.6229892590759791 0.5395303146665611 -0.35866529145495646 0.3209513218439505
P 1.458162670027205 6.070629833999402 8.211447877146023 -0.0058204633365190085 0.9965953236483547 -0.21774698383961857
P 7.535944296246003 2.7764545838680226 1.6470390750401795 -1.4201508880187927 1.3873772931321977 -1.42714300306591
P 5.6261170042794975 8.998924622650764 7.717499917604632 -0.6950116076977385 -0.4319512446333012 0.7632337731999307
P 4.425642931191368 0.9564168294653972 12.705420300971399 1.9051789578724159 -0.6524382531119022 -0.26498303400844686
Ni 3.252459574366025 6.752066788209378 9.900875792728343 -2.5357916304687937 0.8353030803623551 0.3877899767350547
Ni 6.833901590824269 5.63727417360349 2.8146158375734243 -0.11606139647265819 -0.050550202143725846 0.5235095137582726
Ni 7.704851702304873 6.138935985274991 10.2649374955604 1.5300912591953777 0.4252396369410805 -1.8816448793062175
Ni 8.187224215379413 8.634033834767688 0.17549900567622437 -0.08382233393329434 -0.9708881486902377 0.9348798489164286
Ni 6.893235323923828 4.46192473871692 11.522061045529972 0.4504089371178566 0.1974838627152083 0.06771051597309628
Ni 1.4718687156904862 1.939330769007356 2.2269812672666185 0.11058160430500953 -0.34708247171336354 0.5178502585899663
Ni 6.334125760912974 0.35136680481545934 11.563752446282571 -1.94490070194207 -1.5613468747755497 0.07023276817431776
Ni 5.274960271689804 6.924895542482537 6.8436377382477485 -0.571957581957331 0.22686077321542863 1.8616866910167356
Ni 7.266099519842628 9.127852950010608 9.243261962574518 0.980710534097298 -1.699568352285015 -0.24951733427267997
Ni 3.533536212440331 0.5441169416715508 7.6262034619412615 -1.008216967047683 0.8861363609641384 1.9514269330963618
Ni 3.6230643267899247 0.39997284958592405 1.2371050673356212 0.4704550571354543 0.18878710627215872 -0.9747075224363279
Ni 4.807937035911199 8.5328910604691 9.684299730853091 -0.44840707619647935 -0.8210481131052376 -0.1286070943481527
Ni 0.8328607491591312 6.468021129344252 10.846451028035565 -1.2427565969646082 0.338753640132694 0.8725509089702199
Ni 1.6518119160095726 6.212386571945995 5.759800433176337 -1.4816786722199449 -0.8655649645706899 -1.132503836753927
Ni 2.211117546431141 2.459152157528368 8.769989778320141 -0.7021168512839521 0.6149996486494698 -1.805960343988709
Ni 5.494032925261487 2.734542840691953 0.43462262933086226 -1.133555675057209 0.07784991839994335 -1.006881793176027
Ni 3.8982496059994283 7.113671112827144 1.5155002501548225 -0.32674170327348245 0.26354578734128803 0.3392269802246867
Ni 1.73224623711936 6.776939339740019 0.6035337700070789 0.034482607157901905 -0.5818473302672172 -0.3857726891947098
Ni 0.3727484227810454 1.0088695301032133 4.3888485474349475 -0.25803694170791686 0.514774704988436 -0.07188161663165041
Ni 4.533750766842004 8.455285711999622 3.493423621171152 -0.40229356966786844 -0.16423564218503972 -0.1008980584686585
Ni 5.561610826154423 1.3626031486622978 9.280349513792673 -1.08990528535711 2.032701303796822 -0.5502988660369749
Ni 3.6775430573384575 4.962774271115461 5.823301999235084 0.3127088793295002 -1.35007984223332 -1.6296621142121805
Ni 7.73062056199878 1.7645133309969485 10.501273417818325 0.8570271023030079 1.6009801728964557 0.9924967280989488
Ni 9.294426220227638 7.887446480940289 2.745908214933038 -1.0251456244822217 -0.3540779291945902 0.40586560328984295
P 2.5712373606534986 6.625005769523006 11.93276158344499 0.7217695925178731 0.6648119441859066 1.873540247921212
P 4.920993239546535 4.645331796625297 12.473088822163731 -0.07363202366385384 -0.326190972976335 0.10972979782767554
P 8.081086390379289 1.6873468000657363 8.38586757840898 0.008501095492475682 -0.055320884059491815 -0.9223290088346116
P 4.447397077237311 1.869269347578703 4.262091900062352 -0.23904497398644636 -1.0072584597891556 -0.5907765144360471
P 3.5685109038944534 6.791933828387996 4.960276745764693 1.510629036705708 2.662478110755466 -0.08330991307325007
P 7.564112647585322 4.1225600604001995 5.592472770255224 0.08536268183722072 -0.035780757144035155 -0.2567400772733643
P 2.185740821558663 1.9588721542752356 6.23409776989245 -1.4660309383803591 0.1585272789463528 -0.07521762298341884
P 8.953997175967038 4.426735306765349 10.965076479789529 1.265936377515181 -0.5901514792575385 1.2782578751950116
