# total energy = -340863.37808819267 ev
CRYSTAL
PRIMVEC
9.30568097927610 0.00000000000000 0.00000000000000

0.00000000000000 9.30568097927610 0.00000000000000

0.00000000000000 0.00000000000000 13.61980474581874

PRIMCOORD
 96 1
Ni 3.022838705346501 2.0128652625615686 8.467895844720687 2.489752943042177 0.6940754690367144 -2.10864552053362
Ni 1.3483652155492643 2.589212596357601 11.130022171589717 -4.010580517547441 -0.7837123527692568 -0.42849053977821044
Ni 2.9923439897115673 0.451253859927946 2.794893265037565 1.1191466987207306 -1.4964918259733777 0.24399871844729593
Ni 7.48211158833229 8.131024620181789 10.896592893647682 -0.20614230972115463 -1.0123425591802824 0.7070016901800791
Ni 6.99550823915124 1.3939258282281273 11.33901845430103 1.1742904337724098 -0.4493373013202326 -0.9131483707766079
Ni 8.899059670597898 4.990338774523785 0.8200398469757141 -0.12893388155995214 1.115636628684943 -2.165808600008173
Ni 4.676206911329264 2.022180248936475 1.5208283264231683 1.2595649267711986 1.8416323434690218 1.5717539290414866
Ni 7.030897742831329 4.066266070227126 1.7022034876979193 -1.978829236368715 -1.2083590933213448 -0.40453685717609045
Ni 2.4107017236005284 2.273061400452436 1.5679802105007417 -1.4105185071353517 1.5726581860233109 -0.8612833064762007
Ni 7.878626642712672 6.689528152244849 8.403310698430577 -1.5430269934204393 0.5220390998603333 -0.5061967335114379
Ni 4.845458631795595 1.7085136697766647 6.854207061218045 1.0463615964382045 3.519180482729204 -1.5752940809842613
Ni 4.1336391984532215 0.312874665732733 0.3810313322732819 -0.09903195179419719 -1.3331432143789814 0.05906621003453698
Ni 1.1975759655802498 3.7335972910897337 4.006646435155447 1.114312510556881 -0.15864657813303645 -0.4848591483759262
Ni 5.460778156338987 2.3190966028467033 3.9311252529134983 0.6584978290424208 -0.2170198758656069 -0.10532858343618635
Ni 7.528658603164739 2.6276729746667797 5.896163038979094 -0.3483965625390968 0.20066714553919635 0.6335702125628057
Ni 2.8247952088122767 3.0161293095659736 12.652008124691246 0.3787702897349477 0.7368583685301955 2.3039496019886903
Ni 4.8445559807682566 4.17624991035202 0.5878742804719529 -0.6927459515920135 0.22224564304092048 -0.1710881463304989
Ni 7.444805114429193 0.4699247776728133 4.390058160550308 -1.231851005795698 1.3332136626056008 -0.18518344808130044
Ni 5.0711213886302415 2.2104806977838587 12.642024990442495 1.758648960497255 -1.714432670991357 1.6235922538690168
Ni 4.411590575108646 3.8383699500258692 6.148075259915974 -1.7912227806682184 0.5927624345178243 -4.184751159458005
Ni 8.104224259782459 6.190408662530083 5.869795392732044 0.8190033147610669 0.36520849189011295 -0.5799346866255367
Ni 8.016313494264235 3.6879808443267055 11.73060149791348 1.014555764781517 1.0213105670068476 0.19635026333139732
Ni 2.988379769735833 8.954605278661651 6.0758901642028995 -0.6911287277035646 0.9598403755165081 -1.7471479018361908
Ni 6.334181429255662 5.0504441661277015 3.952998255385244 -1.7487471280025109 -1.1090787729617675 0.6612838764279901
P 5.437634928452483 6.934500196519985 11.693378775136631 -0.11641055228196082 0.6320941422379114 0.4431841372346432
P 6.08822298282694 5.479473268853661 8.618966126246667 -0.3187910809678381 1.3748984439388967 -1.6937496887207086
P 1.2964581286369488 7.004692945996427 13.103981313736854 -1.1070072351447193 -0.6166029885808477 -1.3437880956873371
P 8.985416387440187 4.297763488857043 6.466765045514519 0.007480367537445182 -1.112111132030188 0.36137909084169373
P 1.7353140301759957 6.080573713296297 9.71956945444867 -0.3421595804904494 0.3073067344773224 0.3782856367890453
P 1.4490805977027228 4.484686696961683 1.6484864458905795 1.548688819691907 -0.01984994484639162 0.38045230542306085
P 4.169670794101211 9.079803906721581 9.711383247141972 1.7252935249652608 0.6628692186372391 -0.006885928486555883
P 6.827698899192511 1.974767805799464 8.080180242004753 -0.7689781318828757 1.2132254202747106 -0.4710638943640468
Ni 4.769924421600675 9.123977972977006 7.454677511077683 0.7679982844681096 -3.724698785713114 2.4012874539099163
Ni 2.6580467164526884 8.70975420823554 8.313296849075462 -1.725955326918976 -0.6323301695081174 0.522256615187778
Ni 0.46348710776855734 0.7124522196295798 1.3463151740923294 -1.0656302148598293 -0.16864508410664503 1.127766579179258
Ni 8.990134367552153 5.470921348295679 9.927897589286136 -0.3627016663078592 -0.7463336550104824 1.5964925694387473
Ni 6.047445490024902 7.239652077844591 7.025394363268772 -1.6171195016604796 -1.8264633490380673 0.28212406456410766
Ni 7.03602517289384 1.6356874126637602 1.7188327390984766 0.011061400020484176 0.83985598984036 1.9060616175876852
Ni 2.269813717890156 6.722060811951815 6.2463693039527985 -0.048569938488903446 -0.8923463464295923 -1.1240940154236767
Ni 3.6046112509872583 7.057967967970792 10.254868500134462 1.9344748786230557 -0.7067456083052152 0.6715955427666433
Ni 1.2681874706879321 4.774968100536938 11.938670934827648 -0.4966504845838995 1.2354572350897175 -0.13656928661802284
Ni 0.045664836302638075 0.5090123588607822 12.545555790389805 1.049294196703967 -1.0724950603004626 -0.5067765172743078
Ni 8.54448531910633 7.800486841923372 4.043215899147562 -0.018536111130974527 -0.9779653672519933 -0.34944917217332716
Ni 2.9825078852177853 2.0527680213783506 4.679111214273927 0.6640321285970886 -0.0695920492665253 -0.6458955668973779
Ni 8.682553703566358 7.405888757765998 0.4163640713011362 -1.48961463923757 0.8791514450058731 -1.671907910255269
Ni 5.3864071562308435 9.16523005549445 12.155348126383961 -0.0014791556486877752 -1.2137810356678644 -1.330802739171263
Ni 8.363582886410846 2.9356258658803442 9.456147967629187 -2.0163195200046884 -1.4414157109348402 0.9141302750739031
Ni 3.9136808238841283 6.602864347939651 7.992891095956903 0.5278667622857038 -0.7302981988141746 -0.32410940785695797
Ni 6.224039392558966 7.478417233096688 4.355736018445846 -0.19083421860917454 -0.5151020064208678 0.6052137729072996
Ni 9.460341107350002 1.1900848926214092 5.546461141899017 0.7642043646433161 -0.16972726142723027 -1.2180814628154313
Ni 3.4209450311255925 5.649581111943859 2.4511702678035188 -0.10536817842487015 -0.5591951400853402 0.06710862072303928
Ni 7.347691030704395 0.21418699140254324 13.729035510854464 -0.3239625978664485 -1.7426880662926245 -1.042163756306773
Ni 6.255641484196511 4.124417268885258 10.12684187571156 0.3818944371862262 -0.623631613292855 1.6326353379078915
Ni -0.23698311739915484 3.070381428013231 2.059314567746729 1.3850442741236468 -2.396056801638596 0.7647514953960377
Ni 3.3651574753637905 7.494758008395724 12.732936837984601 2.9163827754625644 1.305943256925422 -1.01958767077847
Ni 5.224274281495585 1.9561657500917338 9.757636202464484 0.9213679304729229 -0.2633305860066884 -0.48102949021719094
P 7.429180876543611 2.3223256740475953 -0.4124808107474415 -0.07241563475824947 0.14542545145707214 1.7455124231152974
P 7.397792815562034 8.397446258457084 2.2356497723574944 1.0836240803340884 0.3616809383528287 -0.5077509653724352
P 8.577967158244107 5.832316763736104 12.09779156072219 -0.7575824884514243 0.12511347937259742 0.34016980375393024
P 0.869126382069614 6.21461273801573 4.40957496467028 -0.17614627757969664 0.05050495072808721 0.20161665393665923
P 7.388608108716845 8.454620360642323 6.213885964353511 2.983225544118727 1.4487071023899307 -1.0158482583406956
P 2.89456920265748 4.601733548733484 7.610297339895062 -0.6565175653875983 0.6432889825124664 0.7186089354017042
P 8.93629169905544 0.34183022178084366 10.48485188451543 0.26390162801881 0.08416531909500988 -1.5176856864421733
P 7.59520352580905 2.958852844893098 3.721638560829602 -0.4410778895249177 -0.49607070082102955 -0.14433324683415788
Ni 2.8418804385668506 5.607203042062417 0.04016424844428925 -0.35361101686050067 -2.553974729135724 1.226654806306739
Ni 0.8904857109670393 3.58817741888128 8.661282778635528 2.073121102374765 0.9462459246615252 -1.6090205267024291
Ni 0.37306846130324456 7.972158039370198 8.980245220678412 0.24886967338635207 0.8598756274953966 1.655944444947477
Ni 1.4682502999328 8.339816177917827 4.253914190857845 0.30619884612512427 0.5813205112294698 -0.15842520615084973
Ni 3.304047070244899 1.4585444749687366 10.758010835613335 -0.5774474014273088 -2.0255644356417246 2.284203786820331
Ni 5.847615302797388 7.695453623927799 0.5735881994701983 -1.1837158408513677 0.10594590530521109 -0.8704667727476815
Ni 0.34822136328162856 2.5828102880399832 13.445729645527589 0.33755627739048316 1.363772252118748 -0.2688198912560338
Ni 1.791417979081401 8.042490374057055 11.058722976678734 -2.0995065343468293 1.176180451706271 0.4252812888122933
Ni 0.6583890065004152 5.865984716487763 7.746930788392041 0.6853817979174585 -0.4953153107122437 -0.3907279763174561
Ni 0.6281874198073496 6.929149430120813 2.1273995805459323 1.3234324148491206 -0.9488468526194821 1.95557849337089
Ni 6.625495763387974 9.408508465883239 9.028963250816822 -0.22299383406085466 -1.425517294537029 0.5095954747803416
Ni 4.6966980202179185 3.70168811198928 8.278225599675114 1.568081879506538 1.1957897412967664 1.7632841452764214
Ni 6.438302690543202 5.494594999981755 13.070218443042114 0.8745807949160551 0.2787093824556039 -0.3325894203035111
Ni 5.496707389499341 9.183422661251635 2.758106048117205 -0.9030997282913544 0.5598577133700036 -0.2317355848092267
Ni 8.585197672143508 4.905982779030751 3.445932644925691 0.517807835387805 2.05730727527096 0.40708404907797635
Ni 2.0782841978418802 8.442094914427914 0.8354146926186915 -0.5577077569065363 -0.1481320517549578 1.0418863342756701
Ni 3.8357364423894067 7.712538853682372 3.9646433842059814 -0.3899525316040123 0.47858025734575 0.0422113432607273
Ni 6.3431241884028005 4.779667469287515 6.404985561953714 0.8427268836302518 0.6569315129965654 1.0542320003252166
Ni 3.00447859733682 3.6836350914425084 10.086404970822931 -0.23268226499321215 2.41095351624477 -1.0402344004945439
Ni 1.2907165236486198 1.2108551719308909 9.29145789183916 -2.972058471758314 -1.9358702163086854 1.3188388819411674
Ni 1.9523038926036358 3.3373986298529554 6.2390689974481885 -1.8033540167141136 0.10168738713917326 0.7429562538978172
Ni 0.3252930966191591 8.077535567551458 6.67129367092454 -0.3669668693421164 0.7668348602876277 -0.8335670715078548
Ni 6.853177852933264 6.270381682416143 1.9999322275327525 0.5079455978817445 0.6447691666024187 0.4236298692517995
Ni 8.705371232628567 0.9691587272601174 7.877626282038044 0.29095966057786665 -0.6010043628116423 -0.6346912135411263
P 4.480620114498312 3.7135900775971775 11.498874228970415 1.319736196944456 2.0167527508873655 -0.5541100122529489
P 3.8788217440036092 7.705094309127003 1.7455409732589349 0.7707149120683243 0.08530328935419501 -0.04334519975485438
P 4.680459607406519 0.5122330549490491 4.947543810147241 -0.06509827516122982 -0.4770591927155332 -0.9256207922120059
P 2.2829905617531603 0.8692799258010684 13.15596842950314 -1.3211878417893181 1.6634921753877479 -0.8074868294810351
P 4.108141633351081 3.956607928926529 3.726092259609852 -0.5535531113082144 0.08163586780493683 0.46604355833131994
P 1.6913446888958432 1.2280427641731007 7.011720596056697 -0.4553027748750481 -0.9396250769108978 0.2809015050109162
P 4.38166350599606 6.536393870740892 5.641813660268401 1.2705728478459277 -0.9111655360186243 0.5762976040935817
P 1.1791786348477924 1.375454052050116 3.4011918627159883 -0.5472048004926834 0.6231533881048559 0.438286957043342
