# total energy = -381171.3760126949 ev
CRYSTAL
PRIMVEC
9.27696688327142 0.00000000000000 0.00000000000000
0.00000000000000 9.27696688327142 0.00000000000000
0.00000000000000 0.00000000000000 13.57777876384715
PRIMCOORD
 96 1
Ni 4.6413315337268415 7.86507756960097 2.676275104763119 -0.7584533210921519 1.0654492091972747 1.370394642531272
Ni 3.679913057675575 2.7351096295386976 4.039674766008819 1.043835487582241 -0.9460260953412353 -0.4183207983340602
Ni 3.441559944295103 2.2077604398717487 6.233150532079017 -0.8249525903659662 -2.128496750931592 2.0799075291689793
Ni 5.507744590631672 1.5862222041552168 5.405829686456403 0.7159455296369283 -1.1656947216835989 -0.04424714274383347
Ni 6.945553876565552 7.281046111504694 10.125574783832816 -1.4283092554598693 -0.1751887987624338 -1.7389455685310566
Ni 3.761782291536263 9.15077242747664 4.959948965675323 -0.2611850004185953 0.43906163042583735 -2.43414280987704
Ni 4.130653053776341 1.109868502140642 2.3039996956304774 0.8104960486210041 0.0912970450437847 0.5671622174512168
Ni 0.7694474146292408 4.770865824083419 1.572537750119194 -1.1613135618967676 0.6142982517070711 -0.6025771066154009
Ni 6.68482471875766 3.0983863806719207 3.662143955065177 1.3731508651201707 -0.6883249397061822 1.6813911671553559
Ni 1.9160369352844169 3.720471957442026 13.001945717725064 -0.6409063412129027 -1.2627957750036705 0.39444347749583036
Ni 5.659571432712581 3.3975314588670202 9.476026601623868 1.5002371519484228 -1.5285136302956128 1.4069140776135447
Ni 9.219106566470161 2.7275767323268134 0.9630911132031177 -0.42749500863416057 -1.34591645488425 -1.0546829718197062
Ni 0.2333834421533704 1.495901653348683 9.064253577750685 0.8084273390174336 0.7510593426209259 1.496442460792681
Ni 6.940664914951435 1.936937941957293 7.432205011960905 0.1627873397742874 0.21639535490773057 0.2942838398550932
Ni 2.8475371927293702 5.7816470415933505 12.61776239373876 0.497683296723788 1.6611398731054874 1.2117148971674552
Ni 0.7715013351251906 7.989036402784711 12.521957300036085 -1.087242393812966 -0.9580755703066015 -0.5058905151249288
Ni 5.522225936133828 8.363417683428557 7.908662616005988 0.21351366248456133 -0.03139085560645562 0.37147272763226996
Ni 3.8124345314092785 8.16490914335479 9.511722515283829 0.7674167009330267 0.12763084647781245 -0.17299667620712142
Ni 1.1814588565545718 1.0702558530091815 12.700776405328448 1.7585931675586552 1.6347091897177848 0.7463616800349404
Ni 4.961034370815459 1.0009198015786112 13.606970952164314 -0.5719606672811246 -0.704358081909645 -1.251643872151909
Ni 5.839841455645261 5.263686142540228 11.056588928206459 0.08358939198688185 0.5171414054483997 1.2436829654336194
Ni 1.664547636618196 1.967041699903801 2.263239485679916 0.6939132324272372 -0.1498264087382452 -0.2683336956482346
Ni 4.992446181110336 5.961712971251817 8.895061181124301 0.45544932775524144 1.4804388862755729 0.3836790398904747
Ni 4.2554468139909565 4.052587376389634 8.070196876365857 -1.7016051802093857 -0.7250678036531706 -1.654222577160364
P 5.94596068126933 9.834791036003567 3.5386137177572845 0.6107290462985739 -0.5139794627806503 -0.5979753461773314
Ni 6.24668284385608 6.172365061141296 2.4929075025458975 -0.5206555892492453 0.15437469023055994 0.10870367055600633
P 4.098786672097988 6.565996048330288 10.916385198092016 -0.7403794943095765 -0.5535466835503111 -0.39242156196979516
Ni 2.6117909070786265 4.176852349484696 2.7026569435453314 0.3047932240268493 1.1648506285157487 -0.614386183435187
P 0.718692200422418 5.648485457135977 12.86199895959679 -1.0738184070975765 -0.06705565599791678 0.28569686951703055
P 6.16392302116246 5.125264517788349 4.853920654327948 1.3325837423310858 1.0892748508619627 -0.7684006621128509
P 1.5200681524089767 8.838797303907112 8.43886076224162 -0.08319986985794703 -0.5363686291091279 0.1605967598808718
Ni 2.4125309326770714 6.446267512102976 8.591991018187393 -0.23044694790479023 -0.14870926441466648 -0.10845967286600029
Ni 1.2612686037391045 7.067824301753526 1.0227967451809084 1.5017368764224006 -0.21287474334898177 -1.6918529859186282
Ni 0.034651327174667755 0.13892258097040308 1.0321572048937055 0.6389692720911899 -0.4564093776756656 -0.09307573421076228
Ni 8.109627696943928 6.258520253760469 1.0344040863034574 1.050575891629868 0.8182746641251585 -0.5370013775971203
Ni 1.0708959637328515 5.060492734126557 10.476315569445816 1.0055849287414744 -0.029566400803207146 0.08023127414792634
Ni 9.28847044880176 3.310680493722118 11.639292852323646 0.4044810642374905 -0.439562738431972 0.40983332968833935
Ni 8.19584782833217 5.42469718196075 3.4552184228234983 -0.48718265430278024 -0.8270567811931627 0.939581368157156
Ni 4.730399693987065 7.578623382275153 0.4704730326271198 -0.963177153199225 0.5601289647535193 -2.488418026280837
Ni 7.937530681946803 1.5582614255879519 5.202652048886646 0.9358746087295301 0.05763976200065558 -0.40370176286930476
Ni 2.7620313878008753 9.032194235158531 0.9095370380494654 -0.505413061267878 0.20847584295033772 -0.34747790737956935
Ni 9.015504971508063 0.3778072645605313 11.174295085625657 -0.07488749333750974 -0.35052286485348016 -1.247101761307181
Ni 3.897012639636802 5.444726153734713 4.368052494948215 0.8981259292258467 -0.05691188269569553 0.10835245786417469
Ni 7.643515766508073 7.977996812043157 3.5043566616805286 -1.5001589904123196 0.6581576720941827 -0.24598978073539568
Ni -0.018086374882130073 6.997458506984879 9.611071410384211 0.699617481900866 0.7292247632443377 -0.18833664899830144
Ni 7.4477532086691784 4.001628996605298 1.5102559044028068 -0.4728436119722889 0.9110804325039857 0.28463397547015495
Ni 3.1239908096187197 1.5765184966630605 8.751041834478762 -2.571532535513829 -0.22639308955039075 0.32915956868635565
Ni 3.045656100188731 8.140121087504843 12.223408730819711 1.2466189081334917 0.4916026377473469 0.48291256617251677
Ni 5.342633131792859 3.1396874377991484 11.926476209256426 1.5762836985910402 -1.7939844025737557 -0.13986878330490105
Ni 6.079697437681305 5.659469386075474 0.025574742652367758 -1.2448206785824885 -0.540257936861205 0.41727307379583617
Ni 5.694796076448449 7.838953630501628 4.826642660532598 0.29949135219796164 -0.6500820941748998 0.4801234334631537
Ni 2.6162345742762776 4.885195165511082 6.472798710054043 0.19426201334380094 -0.08227787226430991 -0.11349029331137228
Ni 7.641289294425742 1.6652805170119631 12.761564659356269 0.4437284397738874 0.42723764120771585 1.8556003756133397
Ni 1.3549381396361435 2.878281061399548 6.825372624348165 -1.8448061132113132 -0.8696031391958057 1.1959152111310372
Ni 7.784275186946398 6.476872226268007 5.93127617018966 -0.9441823572642771 -0.22162395029652157 -0.7700888484485512
Ni 4.1618700477640145 3.8048459723953356 0.17781348206850817 0.07407811006233694 0.31087851098898067 1.4048083441244514
P 2.2508797825328797 4.165896251446228 8.590619882463358 -0.8099861988641213 -0.5445534789127653 1.6512796924819562
Ni 0.8763672425062482 5.549054924725908 5.001877145772406 -0.946221756291809 -0.06300848251173666 -0.7240182793427338
P 8.40423633827128 3.237911964497955 8.390008253968489 -0.4910367379415479 0.3926550181368399 0.3841073856771449
Ni 7.551070790256316 2.400285336224255 10.48763903537787 0.09724632064868413 0.1647562905752001 -1.0887883981438475
P 3.429379286611354 1.9828774825893754 12.423355200779984 -0.6741357926899938 0.37270531448779043 -0.3245799197354733
P 7.816429154602052 8.725905892365954 13.269020320967599 0.061654282476687375 -0.13934684936316002 -1.377370302518157
P 7.615944620555216 6.827235439323714 8.112234524673656 -0.2286122086888966 0.059679418138503665 -0.47987480778745745
Ni 0.3583757294619933 4.907830965014773 7.816700042038736 -0.5550350951703796 0.8347225252685366 0.08615458161089679
Ni 6.541829549269996 8.545450330093082 1.3814442897762862 1.0016411136023782 0.9063532022316456 0.47003468176858404
Ni 7.916221488725499 4.897041852382481 10.111711284333504 0.47803749746840246 -0.37989077649263603 -0.7060480680175582
Ni 3.2326983090384984 8.602884032850193 6.989813358472177 -1.1917554233263927 -0.18085859545370145 1.7595694154289954
Ni 6.774171188028175 0.360783102401013 11.23285593987445 -0.17334814600926918 -0.9751052720953788 -0.7656207853748686
Ni 2.0283531748709724 2.6171158861421997 10.58964949231334 0.20506321772436298 -0.2590525274566248 0.3815684213053751
Ni 4.661258458863698 0.9974223850159505 10.77398097140287 -1.3599374517536902 0.3727276830852936 0.10380957568849863
Ni 0.09743876759308412 3.3020992992381366 3.627806189375437 -0.6802095096878995 0.4720324289249032 -0.530952343189563
Ni 5.110996542527416 4.124177730803564 2.584448902210909 -1.5792103853195318 0.06183863057335156 -1.6962865962099496
Ni 8.296335934981347 3.9175332906622797 5.777466840258776 -0.48789022189276615 -0.013489549846002575 0.25013388481075627
Ni 6.473031561925987 1.871702309945014 1.4773171053381313 0.6542650219079958 -0.31165087037863104 1.0840310859645201
Ni 0.3096688695709144 7.114728646954619 2.8938320411979244 -0.35745250209377794 0.28293087673611916 1.0479878191877179
Ni 0.11948269660155636 8.645604465929907 4.76703629210181 0.49127610764586355 0.056533416310354245 1.0927304135107312
Ni 5.41478938119438 8.003953765736325 11.728322977019129 -0.6838329653730998 -0.611810966508843 1.072220209372521
Ni 7.451686642681295 4.024144195537864 12.6855426978018 -0.19204649374972088 0.8475621002353662 -0.01677336280359692
Ni 1.727788720723387 1.1820061976081448 4.797287553823773 -0.8531213394906985 0.3312359915994102 -0.0010451534350627162
Ni 2.5379926345163857 6.988033108503013 3.3443558839673644 -0.20612945420534823 0.710768356311363 -0.6562296018335343
Ni 4.4136933172425845 6.49083406161762 6.513736110074491 0.4460648012165479 0.05126882547730525 0.23279102265693458
Ni 8.771891817833085 1.1590920890941618 2.999671102418301 -0.9206999578716207 -0.545068470875971 0.3729174304985965
Ni 0.1143525338451869 0.5407043113741272 7.048903927537223 0.12836798175415312 -0.18726629875225814 -1.7971514874478276
Ni 7.069355001310128 9.002294570486237 6.375935114415562 1.3574424532459781 -0.7690650351697271 -0.13968366387728845
Ni 7.6111762595122245 6.796129768940158 12.123109874297533 1.4691813110838827 -0.37228725311376526 1.5847616541550642
Ni 3.6274425322686565 4.340850572282344 11.064640407874187 -0.3547050212556278 -0.024362488004764496 -1.6265431089672249
Ni 6.724956878041665 4.629957972172938 7.702062705306351 0.5857435799978299 0.6008464970775395 -0.5990076440965878
Ni 2.071760103509404 -0.10929380373479218 10.490395222276454 -1.8902408485053446 1.6761268334326231 -0.05060393819979672
P 2.3713968609560188 6.999889072341422 5.510745689459312 1.0840375137224234 0.46970198101951366 1.0408864322562459
Ni 4.939493253418912 3.7719591243459147 5.867270664002868 1.4061599730563394 1.6625539798441946 -0.10602843771668836
P 1.8001397864321131 3.4353629303326167 4.802963202240313 0.4820659019015053 0.8372805158037 0.19737819037527943
Ni 7.840539991860288 -0.24227263194207424 8.981809171935396 0.018363590108852246 0.7176144326989189 -0.9376957210986689
P 2.0910190870215617 9.255741309191507 2.9746195807052804 0.023655434635410873 -0.8133242620984186 0.5379763399158799
P 4.89484321120118 1.4849177244091867 7.932613889431657 2.2018415823723303 -0.34384519572298844 -1.2949229945555183
P 4.116338693680359 5.924595826245968 1.559367240055509 -0.38885261367161417 -1.693074002809923 0.6743268256548773
Ni 0.40303133785993206 7.307847269195746 7.079644085420598 0.8507081020635154 0.5518075893720175 -0.0026631486544599296
