# total energy = -340870.07546133857 ev
CRYSTAL
PRIMVEC
9.20776532014402 0.00000000000000 0.00000000000000

0.00000000000000 9.20776532014402 0.00000000000000

0.00000000000000 0.00000000000000 13.47649528120905

PRIMCOORD
 96 1
Ni 6.233095534481087 2.6987315983975892 0.8045791487131406 -1.886358739842119 -1.1345499206496783 -1.2331923503149407
Ni 3.3195283526549884 5.156118456642397 12.279782619800717 0.6815989338362584 0.34381177138189173 0.6116425592517789
Ni 4.133227793044194 8.66377987292722 1.959724630544546 -2.3664312654626793 -1.673709996461014 1.287068531508106
Ni 1.216999567003674 2.093836655068573 12.071395234515313 -0.7770894481361004 -1.220791919768059 0.5919697634131998
Ni 8.290616762623465 6.697747002274374 9.770324006395406 0.2351276412099112 -0.4446270403287569 2.2709551493405407
Ni 4.6445350083615775 3.118614910583579 4.291751445323478 -1.6747775184935803 -0.7539119815783726 0.45717865174152233
Ni 0.7355098585359614 8.742285281135326 9.84606248108644 -1.343991727057711 0.7807491563758748 1.0246933674361514
Ni 5.209118354560042 4.237874047358655 11.326091075872506 0.6138297967110847 -0.3386675081767909 0.31943771341290145
Ni 6.974909950019172 5.2607831264877545 7.022399921092842 -1.0095256585567776 1.0486347087430972 -1.016878756487739
Ni 3.3210844650156695 3.545311969200956 6.429784453765038 -0.2609785408347441 -0.050624764135403136 0.055516030789433415
Ni 7.822328227478289 1.3591674655179977 11.825220100608606 -0.40941372565241746 -0.6141388433110714 -1.163791591123615
Ni 6.195242410725104 6.709376410034969 1.946679989234621 0.351854182070394 1.3768213719932223 0.8474628556533405
Ni 2.9762628567602993 7.650299545616688 5.319779121265019 -0.3360128441627632 0.03869098881229465 0.521846781343869
Ni 6.144553661934862 8.600476485473466 12.131325817485532 1.4216716955386934 1.0652275801047717 0.07842867372154881
Ni 5.930325791025907 5.1402995156030435 4.3539996228569136 1.942943321105383 2.3412054010163548 2.620160580934178
Ni 1.8665429649891636 1.9375256288263996 7.900905456256886 -0.020175189396294285 -0.7543673239482362 -0.6847027695725627
Ni 4.481253703675405 5.677277980988947 0.8123026223707712 -1.921377679119465 0.4954479796353661 0.5274019068341433
Ni 2.758637320401099 6.507855255444005 2.920949968162161 0.3285209066610923 1.9338174475447147 -0.7363199795282223
Ni 6.560008038940452 6.437646043904386 11.3931374199808 -1.8188138029126095 0.13241078436495904 -0.12759999323987703
Ni 2.634507434399052 7.542817299544299 9.86645215689409 0.15158632885214537 0.5349128704992078 0.12143114542500377
Ni 1.4537680477288892 4.312806842573006 11.358004270138101 -0.5851571113667405 0.2577914013560141 0.9694727563999497
Ni 0.20682390671236367 8.304723059289522 5.603742003793031 1.0556504779392981 -1.0386932812596692 -0.2580487687824588
Ni 3.6751046309534114 0.6040561158967195 9.252193836881185 -1.8459044884818143 0.6449650846633086 0.6980012864536818
Ni 8.424580542123781 8.99505685820885 7.860421673912461 0.0668831349757945 2.38939070247233 0.48735286133205746
P 3.378467259286477 7.488611184352989 0.2709679631515046 -0.30811894596597256 -0.695872155925821 1.0524522827169744
P 4.683750881403838 8.532412683283189 7.736141701333615 -0.5297138427967716 0.011697490942586306 -0.5008874054833825
P 0.9835827129014643 4.584178105851125 0.1730507438263087 -0.20753610474488773 -0.20208639448422613 -1.2142816294533667
P 2.060154649060452 0.5024115931182465 5.846872129666145 0.6538024804492805 0.09575636636671897 0.1814589480418617
P 7.6700133714404695 1.4400484772116393 2.0059899688136573 -1.482702742609085 -2.447213269907753 1.6584137324235761
P 5.077843242570489 4.40828216250144 7.494050211403015 -1.6940967876474822 0.5876346263729557 -1.20714604684985
P 2.433105980758909 2.8660182810535635 9.747158189305235 0.9483899675877216 0.19750777397460823 0.6082250489297977
P 6.039465434878904 1.9697712234246614 5.525161091908255 -1.7348487727538637 -2.0199753715897213 1.8166497053817554
Ni 0.9351222433495933 4.291877591710113 7.193955323810425 1.0991046924681909 0.6612972461644288 -0.06283261905550469
Ni 6.547503893462313 7.42498552510856 8.363486097600957 -0.4694266158709399 -0.9820518786165409 -2.345911805353089
Ni 3.627675431131696 5.160068588019511 4.7087011634377935 -0.8834441588439559 1.096646974956318 0.263765616661578
Ni 3.7769056857444974 6.42639415452715 8.013353450235284 1.8444903817431073 1.0148984928329166 -1.8703824190185208
Ni 4.523839618871567 1.7549172244652549 2.361000890313584 -0.5186678693952551 0.5174154850453928 -0.28507543388294776
Ni 6.130530235157833 5.083625719271718 9.262651096100273 -1.3321669665086413 1.281440129577735 0.01963834305621779
Ni 6.22443102719469 9.026446130620464 3.2367579074914548 0.3920258691932732 0.5695554002737417 0.7269963881344512
Ni 5.493104256501674 1.2704414376628146 10.743233077589755 -0.2662233341734512 -0.2631056144800759 -0.693468945800967
Ni 0.2835982550162778 2.946162671511379 9.986096940346503 -0.27771385131155396 -1.9411170665299216 -0.05573483166845885
Ni -0.0026601234378748843 1.6663477286226847 5.93048048148543 0.5264022619250354 -1.0848414976809575 0.4967538429309833
Ni 3.8657974533777413 3.3146390292021963 0.5124057017353091 1.1409928480615446 0.29315821089108224 0.14198120166221354
Ni 8.500627476957318 0.3729375200502856 3.927171813970178 0.49045978239215526 1.0107734149209495 -2.495422482623128
Ni 8.25251502920039 4.297807392658509 8.666464857331805 0.4952821434814632 1.3733483258429573 -0.20893195665114986
Ni 1.5395015518135313 8.433926424053318 1.2829013858668035 0.9598563163561081 0.3849324526816016 0.821772907086404
Ni 4.4375628566255045 1.5009762611798567 7.266323756347558 -0.24902599645855822 -0.12280308607186592 -2.6611331666917972
Ni 6.619867722116722 2.852694644450569 7.359405978036104 0.8078316144149637 -0.5190370798092158 0.4118148788947424
Ni 5.7386937765259 4.3397763875696675 2.4411323898997725 -0.6604025022643013 -0.9416814452192943 -2.8170677452103097
Ni 4.658945161287415 2.979982794001218 9.069762221616639 -0.9796836354946805 0.22469898967741947 0.8885567974801728
Ni 3.4425072679760573 2.5701727772151415 11.698163986747241 0.61000939452373 -0.12502066254847502 -0.5288237268823345
Ni 7.889397591000202 3.343652698128274 12.592572253616215 1.1637321986405893 1.6058981790233633 -0.27640130314771755
Ni 3.150805258589154 0.8613726459952878 0.08148504110701826 -0.6311490047158227 -0.04968116927521121 0.3951991247149323
Ni 8.431200925480763 4.138955023152737 5.6272586367467605 -0.3967196751245168 -0.3885708207651372 -0.4592046810326156
Ni 3.980701158401073 8.23292090432743 11.86387061685237 -2.2878663232735823 0.2209428650690969 0.890130826835512
Ni 4.135907252789509 0.494025160348373 4.427204120496708 0.2674628630075071 -0.08764556433412647 0.8679859153073568
P 7.535220893049848 7.136938998604441 6.0771445318679245 -1.0200676957386818 0.09142611442248125 -1.4856147740495576
P 8.097925855096957 4.564114384940328 3.4803318476591527 -1.0505848904909325 0.770812356878137 -0.6282452008054664
P 1.594223301869919 4.065734872311681 4.872965857473793 1.1690875494152317 -2.5002638698758295 2.197369662643906
P 5.10937063146382 1.3906211922877472 12.725773630137452 0.29883520667120145 0.5822360810652036 1.9534503912842938
P 2.1505288669307947 1.147729547539732 2.407063657742843 0.9669864996429861 -1.316761173476532 -1.1287047747228112
P 7.4276097382611885 4.531380778773332 10.93548845781058 0.9242678777285372 0.6190128835739209 0.08262651385298028
P 3.4295979808182158 4.573358981449937 2.4767102748136005 0.8693758536763478 -1.825162885059089 -0.5646165682112276
P 1.703049881697691 6.495001214878849 7.279989001048666 0.5102871015307276 -1.317484424795802 -0.9017046477160406
Ni 5.907794388975094 0.12046703690690443 0.9607465338143286 2.2484914210203857 1.0951459649307589 -1.6094198190233766
Ni 1.500009445807836 8.559078372020071 7.627292102092223 1.2257340942646826 0.3724057809695006 0.3326482985659045
Ni 6.273582079155148 0.7269346665744078 8.504302296147541 -0.22849753748790325 0.4716655325037877 -0.3503248899100612
Ni 6.511869841179254 5.116396156500506 0.21094346097371786 1.7237218096027669 -0.24236298261608583 -1.0919269437728292
Ni 5.067088572527435 8.104601485046626 9.937392465010264 1.3322099039314348 0.18110927801192678 -0.6863678159798114
Ni 7.007965827976841 2.7325977597146673 9.949077119363546 0.22058291062651686 -0.4900095822286141 -0.21313776720238134
Ni 8.285036856762085 3.2300104569712924 1.3449460717838413 2.4643812970466077 3.9741906660644974 1.8617699947591613
Ni 0.30369972776541126 6.320099710197529 1.1533895609605065 -0.7166721233903076 0.6453481790343402 0.8383236123562335
Ni 2.7757085175413554 5.1893216588472315 9.47818094504355 -1.2663685799565934 -2.839462310855426 0.6489855186766114
Ni -0.027108582254923665 1.2510959224569471 0.5656413184484189 1.7749096453304916 0.5911578090348658 -2.030364171023213
Ni 1.641109243530213 6.798719358175156 12.426015746760251 0.6176005766074267 1.8513742533471342 1.3685179943338497
Ni 8.679617229497469 6.021897018404466 12.371112603724542 0.20761118095719727 -1.9872082044610293 -0.6748906685781474
Ni 1.0877501634126396 4.644645501546951 2.9063004133346815 0.04754766787197618 0.8948156339056912 -1.718273384893686
Ni 0.119552705797936 2.732045293787798 3.920150892816216 -0.868644374826962 -0.35742910505501024 -1.859412036049946
Ni 1.7199369235289907 2.7943726581040846 1.1413052895867888 -0.6202614112690414 0.5343762812694475 -0.054082897887332664
Ni 5.340577621858553 7.202065523616864 6.032820190555213 -0.07587479695144352 0.07390481770926625 -0.13396475911564024
Ni 8.745821063067288 6.770681712386548 7.683624290325435 2.9399587630102912 -1.874609569725991 -1.29373874443943
Ni 2.256224806506308 1.9966855218286361 4.323650827940902 0.9257413769502703 0.3572185317061009 0.7471281258873197
Ni 7.260590080803201 9.260433866180438 5.759409407230403 -2.029330073331744 0.8203976240054323 0.5900810310309192
Ni 7.888255828084673 7.130401485136489 3.716197967370482 0.08640886371354796 -0.8099556027365018 0.5785462909184423
Ni 1.1301795465961892 6.012689252956647 4.9829609027368935 -0.5957258880215224 1.7661378126751324 0.9934534355852631
Ni 6.8028536448612265 2.717036636107853 3.862134604282599 2.7237978927108704 -0.12083079283684353 -2.544522325473573
Ni 8.575808881838759 8.496539229098486 12.0324887423921 1.3836553641959202 -1.188334570570302 0.14264686027067047
Ni 8.386073667021003 8.62165434600345 1.3609371980370686 -1.4752735400245496 -2.2171622718898005 1.4628962494061193
P 1.01074562097253 6.205932626410022 10.492179669548795 -0.32453209721667337 0.3791305012878438 -1.094681623699831
P 4.837824420642192 7.475103392441039 3.8413941126113866 -0.7830605781178708 -0.7244697650578555 0.2400281638353221
P 7.327493704547053 8.741152725985243 9.857220451256104 1.5457225379747315 0.529764750639365 2.714895448014918
P 8.904894418943808 2.385980637196972 7.87551596381107 -0.514864436488765 0.0831949847619406 0.8153739455385957
P 4.307033573637223 6.269567493419898 10.550425231442063 1.1049734925441421 -1.647474716913569 1.192539866900901
P 0.7732690630843773 7.341894649707442 3.2045353323068118 -0.4682747616546838 0.607135929630677 -0.4615562119839277
P 7.358229225611873 7.305652884904827 0.0013176312355828868 -1.2312591378479698 -0.619388778856101 0.7403910642738023
P 1.9522028069502229 -0.007775037144138292 11.757648913869787 -1.1265905565932854 0.149714051530097 -0.8046992394335688
