# total energy = -381172.23333305836 ev
CRYSTAL
PRIMVEC
9.20526837612992 0.00000000000000 0.00000000000000
0.00000000000000 9.20526837612992 0.00000000000000
0.00000000000000 0.00000000000000 13.47284075125002
PRIMCOORD
 96 1
Ni 7.641937551879632 5.2077792604681346 4.423053154424964 -1.0824706834559357 0.6907176083080749 -0.1776488302671521
Ni 4.438034728519046 3.745025312790091 12.200559453558528 -0.06626889843056329 -0.025356733597233744 0.34980604129211373
Ni 0.3340877215077908 0.2968201929548622 4.068056586590108 0.9691799077498794 -0.07363305210511835 -0.3871592851295913
Ni 7.128338814549239 4.031990345545184 2.2566871630354384 -0.2989154250898336 -0.2669244740055338 -0.12344766163440032
Ni 6.356753228948036 7.050683171503048 1.1454004833411475 0.6198495205426034 1.4703107967026356 1.238395491782435
Ni 3.790830727654701 6.878369754933388 4.02591394796638 -0.19192128102576625 0.3173841733179824 -0.10562606007194712
Ni 1.153254418221068 2.4718630702068034 9.46883350140941 -0.4398985245048359 0.30565557202714455 -0.985927045301231
Ni 4.911958759646371 8.966870223160381 5.370678449187707 0.053910891085842634 -1.3547687630685572 -1.4146952642208603
Ni 2.7797977040594812 8.884492277496516 12.980192284673123 0.1794367754055103 0.5195405018081956 -0.6801128362090351
Ni 3.954233444548127 3.156587744501243 5.611666849088543 -0.07236986912197858 2.351375142460505 0.337387870133419
Ni 7.071790851624542 -0.02554922205721951 12.445091881739685 0.6207339800300858 0.865261060177026 1.8342162535106088
Ni 8.621709484461947 0.6787624220420663 6.367035513595096 -0.5646890733203758 0.7598556007563171 -0.7244792781395523
Ni 4.45931730873749 4.091051346705019 7.781104638496623 0.35779754413802256 0.5310554444263306 -0.16985016015833973
Ni 4.066279969815818 1.3138403230267586 11.722260158426954 0.19318317845732536 0.7148412408291559 -0.4503156060731019
Ni 7.266316580506963 6.935276723320249 9.417043741648602 0.08421879804076464 -1.6263147950065024 -1.2556213687424183
Ni 1.0162524106989645 5.088626268103282 12.723426975500493 -0.389970015105509 -0.23626921101352213 -0.9536363035883254
Ni 1.267215639286958 0.48320386206080784 10.86242366601164 1.1618311249631346 0.36681337448338763 0.951864042179251
Ni 2.828033309744882 4.470787072990164 3.201483678861708 0.9735014179433686 1.2342354468674743 1.2384481993972412
Ni 8.305618982930401 1.453686758441379 10.894556495928821 0.6009763377871844 -0.7062609553593127 -0.025711802943807333
Ni 8.504682909065286 5.908806464852048 0.8708331058793936 0.01760408623500839 -2.3944064105193665 0.32919890656472334
Ni 2.393912858576274 9.183460980063396 8.599296497301104 -0.3085290369201977 0.7728419857136561 0.7995971423203132
Ni 0.41845032300863527 4.549759069397616 3.5949177648454107 -0.015828225281508224 -1.3452927052573218 -0.26943027114652307
Ni 5.015398359090426 6.2557806413978145 8.582806179739114 0.5409081688506943 1.7017792438934047 -0.7287221125763064
Ni 1.680937215990137 5.237291350511531 9.410617543875897 -1.022151574850904 -0.45328857265849676 0.0590196730673177
P 3.1815524320239157 5.181608682803326 5.414424645542427 -0.0035056991604133178 0.38594418177556755 0.3290567245599043
Ni 3.5721319643200147 1.5431619659341458 4.281534121767398 -1.418615425210873 -2.5434979979741166 -0.4693430550181981
P 7.974072835989356 1.8253310539254803 2.793323925241567 0.5779405390136434 0.90397467469714 0.22493758805078679
Ni 8.72363021464301 3.7842029345070887 10.779296411511366 0.6343274024438044 2.6555646714650845 1.411061781233331
P 0.12095170178296884 2.919975529131482 7.109388849308025 0.6115219745135145 -1.0327362923452859 -0.20572167724396825
P 6.322343936190016 1.266893454897838 6.024946572915216 0.761492622139108 -0.10637193709903615 -0.23129078396232425
P 5.08329641778041 5.3432808092637645 2.02701571993415 -0.30259338816205306 0.0007682456245922252 0.34507315459281857
Ni 7.916898914822939 2.8574073207643695 8.983945995783744 -0.5884596933774123 -2.083958559309901 -1.5535983411783822
Ni 3.5636723227885487 6.23337501845158 12.344435955417627 -1.6547560810663307 -0.34628208729925525 -0.6778278968296004
Ni 1.6071846066864286 3.010085900134228 5.159585999016732 0.5032854734019139 1.2531078582919453 -0.9025893643138391
Ni 5.995510886598383 8.097699588728847 10.844922609994638 -0.6186033068403282 0.29487827890598245 -1.0008574413588183
Ni 7.886263782051753 2.0253983543007674 0.4297470282180101 0.5837193504789495 0.09339995031940043 -0.7013365214745019
Ni 4.89121008498704 0.1577405563863476 2.8109602987019975 0.777574615302635 -0.7619093979615523 1.1191171310343757
Ni 5.306284836124522 3.038033094573327 9.880051245145713 -1.2249038850539034 -0.7544799382667006 0.18824280373291452
Ni 5.317598110816767 4.703035991204413 4.133979194711373 -1.1715984887625435 0.8964310580219271 -0.9427733927318925
Ni 7.391867234312915 4.103101042858109 12.951967091132557 1.4003626496482722 0.7570502700970381 0.2706194063586178
Ni 6.425470556513211 2.3442504363104844 11.720751414959045 -0.43132260991036686 -0.0676997173398189 0.9021512483351559
Ni 5.519294743674175 5.4945325720532345 -0.16827690643739912 -0.8672770621657901 -1.3035138215483228 0.7042943185512451
Ni 8.599055319272678 2.6009209312200325 4.714901581992291 -1.153296348019246 0.22495944242765772 0.17698162899679842
Ni 7.327503998634991 6.660619134229541 12.392130291329305 0.7120634209737028 0.25066224651040053 -0.921531966854613
Ni 4.155985309015099 1.2579919604898642 6.830056824994598 -1.4941148411007688 -0.46802382198614234 1.36677530061113
Ni 2.932117277967177 0.32281955263002376 1.7173965219897873 -1.5506410583222712 1.0325092639361444 0.8799942526221425
Ni 1.8684669409945238 1.1443897448861367 6.260560016678704 -0.29589849264038076 -1.9471411612368144 0.8936408968712997
Ni 6.01301010156173 2.4387056939322207 4.107357558901797 0.46398873268482027 -2.51606869811857 -2.219549798285371
Ni 6.599947211124107 4.75700647901615 8.551306672278262 -0.3010342712050493 -1.1779889656699196 -0.33273057386706567
Ni 1.8341957272604117 2.4737317396637 2.783340811812976 -0.11859110487304736 -0.9634620314294955 -0.07324352997618354
Ni 8.734188657337885 4.85424172765258 8.016394056817338 1.3179359105109238 0.8832346139363111 1.1653219117252123
Ni 6.272801182411614 3.545390660023051 5.899918778346465 1.5645221871797377 1.747600158882261 2.868049121354183
Ni 4.977923712001635 7.917478846723355 12.848900305053053 0.12080482469491453 -0.38332499898516564 -0.08088330590962844
Ni 9.160917278093253 0.4662523605589632 8.557328758774329 -0.7567887889055354 -0.1405151586396483 1.6748831908335091
Ni 0.23196079331769312 4.900185221541098 5.885165494905245 -0.29451883868403467 -1.0634260081196587 -0.07196440615344381
Ni 6.920631141517678 0.41142210069168805 1.7053247331928725 -0.38457404090091835 -1.395173906358481 0.3479319641978524
P 1.2437698210272794 5.633035038301811 1.9729900005128487 0.6680353362192107 -0.3851581955391625 -1.067236897225317
Ni 7.210100007239646 -0.19722747511690022 4.571118973869449 -0.47784723583446737 0.6239969670520737 -0.7877782953085142
P 3.2170939727779873 6.881370672386335 9.238259021491759 -1.9985002324350807 0.05750375064342355 0.1701329815060812
Ni 3.5341234116721103 8.483575228943794 10.628400892603578 0.7250469777175642 0.20831283500991218 0.8352902248465486
P 8.401169667475147 7.369084195367997 3.588814671988651 -0.18024487312910248 0.04744996595184732 -0.7093385658433718
P 0.16556871651513863 0.4291956326492018 12.927594302359038 -0.011229293056916145 0.43898295466910203 -1.2199408846216733
P 9.110923466170084 6.0273058831704 10.556603482278415 -1.0675197185730583 -0.7424451185893536 0.4845729845940752
Ni 2.385038979973082 3.4874803173957885 11.176529511706205 -1.6036410075580703 -1.443974729911268 1.4694505055848692
Ni 1.8658434395402608 6.061982128707977 7.10642475292812 1.094809921747579 -0.048543713236658334 -0.8938273018504929
Ni 1.4574885342329955 6.397422104123247 4.5187235074570955 0.5090151767968395 1.2903490020315909 -0.09624976106336973
Ni 6.792990891816576 8.195054505852664 7.177116610535188 -0.27123338579353284 -0.0943880252642826 0.1475018743701266
Ni 8.640847237175677 8.047089023832218 0.7550197848394764 -3.55461516938773 2.821856939068837 0.367162016072058
Ni 5.015333922212602 6.599615821466726 6.017051214328123 0.8102970452363207 -1.07329415916299 0.17916192447756887
Ni 4.913477628909365 0.6308536033799157 0.46322474782806083 -0.28343584139699574 0.525559711419082 0.2971069111261851
Ni 2.898674538376517 2.579997356463751 13.622254222687113 -0.05602716609789706 -1.8616519811240584 0.18518524785351334
Ni 0.3059978454106532 3.688053907525407 1.4301286359089214 -0.20976602251667098 -0.5666636805482435 -1.4167812002156115
Ni 8.602838684527773 7.261318119841473 5.717415129812351 0.0822364775034132 -0.3571503974723268 0.9642739858078296
Ni 5.030614667525152 9.023224875451607 8.843356695220495 -0.08860432870297 0.27740994691789 -0.8956584415219608
Ni 4.307154224390223 2.676965652320624 2.468412935662741 0.06362451882918076 0.5031749159659785 -1.286646870589655
Ni 8.582596299622773 8.226619370718167 10.726402019559288 0.0301631538469416 0.24753192841153493 0.6673547652124183
Ni 3.469631302238538 7.981639566499546 7.0462011263869755 -0.13929645574119878 -0.5495571027749439 -0.13007879379767273
Ni 0.6858099754223607 2.6458334350633668 12.534066322639077 -0.5303357926514867 -1.0398075973697705 0.6783382608071156
Ni 3.7171333499605566 4.703284533447448 10.158737059627247 2.597587323619352 2.5316421270767946 -1.2874148591039312
Ni 6.133801631676966 4.871897432176358 11.054869924793998 0.7433653164107779 0.8805352127272771 -0.8968979703560167
Ni 6.118171086170513 7.059584665911022 3.5856618676094048 0.37488432441698016 0.16801362117023325 -0.37726285195148573
Ni 1.1848653094278747 7.38118912313065 -0.17696575914855367 1.78224834508375 -1.2516598129915089 -0.5183709069801266
Ni 3.8931472843709667 7.288004192528873 1.6282738762714006 -0.20819790669860272 -0.5192247703399897 -0.6492729680100431
Ni 2.856008119988762 4.698240046440654 0.7983158435762541 0.7559369824282014 1.3159816149980303 -0.0747198574113939
Ni 1.0773938024856886 7.7291942897216 2.2982379029100115 0.8206498492255544 0.20458447831573154 1.4546630628630495
Ni 1.5978964910115108 7.318666941104841 10.951586814910373 0.26286393078291503 -1.0934508366165232 -0.04288111563424228
Ni 0.4329145610264732 7.120367052235584 8.556344715597273 -1.3635390530620195 -0.15075097743504362 2.422610640867725
Ni 2.3068402260995167 3.5584345251482827 7.526831195442127 -1.3627039587552336 -0.4406991660292604 0.05549520485382701
P 0.8640433000103952 8.279264299900383 7.0125595530018865 1.605013719535881 2.1046435984630785 -2.2071151720664437
Ni 5.829033610105925 2.1959259488278766 7.902049896591809 1.633615956653606 -0.7081489164106449 0.370833037165742
P 3.2166889409745214 1.7875802487888717 9.59581557442988 0.69699392823509 -0.0905362556183602 0.6079391422582627
Ni 5.64684294069267 2.7672785392251025 0.529000071657157 -0.2719296405296091 0.6711836520402054 -0.010238132788240432
P 6.984727424416045 0.5366017821867379 9.365578007330566 0.6123156740594035 -0.10041751928781416 -0.0640718907792445
P 2.5445018420509826 8.671951838628154 3.929286247035149 0.2563371854079908 0.737675208004536 -0.7086109436487281
P 6.997605594712586 5.718975422782519 6.454702806401485 0.23180937546995561 0.20173518179239452 1.1284877736159984
Ni 0.50239960796458 0.8689892906468009 1.6211600449596302 0.003250388616497628 0.2157356098365446 -0.31360747988436954
