# total energy = -340893.26334998535 ev
CRYSTAL
PRIMVEC
9.05956646335429 0.00000000000000 0.00000000000000
0.00000000000000 9.05956646335429 0.00000000000000
0.00000000000000 0.00000000000000 13.25959127413345
PRIMCOORD
 96 1
Ni 6.550546516395536 1.997244784773745 11.407225941207919 -0.2489126108091455 -0.5385484103692662 -0.06394410695212857
Ni 4.6950658234498555 0.11692729110294679 5.944075600392892 -0.2217357932840375 0.484026882282618 -0.16746854730004063
Ni 2.7633126427037866 1.6925262757862103 4.829474453483747 0.9173444111358265 -0.6987373932887578 0.7668921958881245
Ni 3.326301264794239 4.409263688678642 4.841222898926145 0.12566498100069326 0.2295375487166434 0.3863285616981798
Ni 5.0764192028856 4.5629139313552765 2.7348837239821306 0.19752191504199532 0.4081243174170326 -0.7787820053471749
Ni 7.324505256481906 6.147885037267843 2.756324093340534 0.5732179367269935 -0.3784594433627482 -1.2408064152167728
Ni 5.118183803047114 4.559172330516512 11.595405814482296 -0.4820746436522537 -0.5596383982703458 0.3320165785191766
Ni 5.687124560128047 8.131522353615862 12.69873686104417 -0.011460435231115748 -0.8120919323532143 -1.6623778592776468
Ni 1.9639599385712714 6.421166851556797 0.3950242648248394 0.07016643371275656 -0.14705861618512092 -0.9492001221938428
Ni 2.37191220435717 1.4540694339529743 0.39528427437465186 0.7922633276630613 -0.0846736261899961 1.1778023035804102
Ni 0.44748277692358823 -0.048086365452773484 4.923180264514245 0.4340011851837945 0.5875466946448398 -0.9168805841255306
Ni 8.766878790476419 2.3645830153049645 1.360301111915728 0.9235567105941255 0.46174595939723057 0.9757627031737195
Ni 6.937879209520348 0.6167517117213613 4.5972596527592495 -0.9932927416376828 -0.1828550570584399 1.3129045187346036
Ni 0.7699009603873812 7.386092187479298 2.4398045934266683 -0.5156267685760861 -0.12011525482705765 0.36550956807029955
Ni 7.5772399746393395 4.1074623600060765 3.9504700433599016 0.6506479939806988 -0.8805308418519028 -0.18201276366280267
Ni 7.561258899870379 3.839317319750003 12.54729896443249 1.1371251375760225 0.39198730264585396 0.6502713273675704
Ni 7.940727889537448 8.892534973608782 6.790846073992948 -0.9002491462164367 1.0760056445568824 0.8664939041428626
Ni 7.093287008038921 0.8321329324978961 0.5761358645534436 -1.9778933548180064 -0.10097519156349706 -0.36512235993420994
Ni 1.880095534299007 6.803417128045902 9.13884192955047 0.7598879966561494 -1.2174574560781872 -0.5868779507125893
Ni 0.25550150967355567 4.903154999395587 1.443744246359899 -2.062703249475551 -0.8977562045912539 -1.3775142842951889
Ni 6.2144728488051815 1.9034601555173467 6.7274653488888365 0.2299119013369266 -0.09937673672812562 1.0211876682757381
Ni 3.2131563425779364 4.158286526363147 0.4574347103894068 0.5898005236760229 0.4135287762620556 0.5641717673643252
Ni 5.664720252926437 5.561169411311228 4.941690770165005 0.9434084552127302 0.3518451832093295 -0.6208301392883179
Ni 4.969679393969557 2.687964230655345 9.460439316316945 0.770062623196306 0.07016360549927916 0.21823755032279188
P 0.31909875840974106 5.392163203933126 12.375733429604143 -0.5803802588033876 0.06760047275779327 0.22975917780914623
P 3.9851310376674807 6.136823306943069 12.609552679501874 0.24297850471289764 -0.2784941811210042 1.7372995482872016
P 2.3373590188873177 8.365259161461214 1.279733483782027 0.7081494306312772 1.0502686448020946 0.5377601101400158
P 6.365704187307602 7.685148467594611 5.8905072914351875 -0.5985253051435305 -0.009885120324195877 -1.2714516509064555
P 4.7791748360094 1.0508553212873522 12.558396933022047 0.011269916486864462 1.0321657645537965 2.949214477280605
P 3.9288530124606855 6.203664786333883 8.227562814854954 0.04289577092226161 1.185188311631836 -0.22763493237729182
P 4.8268825115951985 0.9068716357413765 3.840309342248416 0.9140474855521096 0.6798420990461517 0.11012883303830712
P 0.23175910454486143 5.542905325860987 3.6788207628993868 -0.027604649091146006 0.3896522267547741 0.5007868753497762
Ni 1.4736562160677669 0.7485022650334773 2.8585024106771155 -1.2515551690928444 1.915728451253488 -1.5159733317367567
Ni 1.9536501522407284 6.638668916779712 4.6823987379952285 -1.316254666153759 0.5340417807481641 0.9629583523201998
Ni 5.883472538284338 5.500778343051651 9.223105860691957 -0.36681671691749734 0.8622816658337278 -0.7220390441291757
Ni 8.773138950717549 2.4257079084263826 10.087737269046553 -0.11014066011284902 0.16416133730367857 1.1655222006614765
Ni 2.1770046972259722 5.307238830415983 7.0678658652941895 0.553048403757654 0.2653848974325559 -0.11498333291713102
Ni 0.7220863819204744 9.131861533796794 9.150615741778214 -0.1467552260120892 -0.38033274912606113 0.3165585920928935
Ni 1.342827020637739 0.9462898082582418 11.497085966388402 -0.023183122984682655 0.5591360047126306 -0.1681779146622394
Ni 4.3405287599529565 6.962602765668021 1.5616218859567594 -0.9336616602386114 -0.7115036918154908 0.035802097300273825
Ni 5.732839131150824 7.754155183306162 7.984992024012316 -1.1439586155580879 0.7979655202541612 0.8305321413362728
Ni 5.2377881959608485 3.05417001541212 4.763786256869627 0.3072146889841483 -0.7441672434867829 0.12143448785911345
Ni 0.7371524405036844 7.648792428451843 7.039264814814818 1.0009685130153856 -1.041374170525942 -0.23568042838958764
Ni 4.991286459345958 4.592565891513332 7.0782082660630365 -0.1499631914264256 -0.5709576799379069 -0.10016837939148555
Ni 8.066402191802204 7.396909309516792 9.093241509061757 0.0766165602134745 -0.4251499054407517 -0.1368557075101901
Ni 4.735743275667903 0.3922058337814018 10.642015118239977 -0.43857672036961887 -1.0987575935414173 -2.517702377067251
Ni 8.266138447715633 7.10680388080269 4.935842820185773 -0.5905751970585184 -0.4572568132776254 -0.4420258552604839
Ni 7.057003445425718 5.976722653135199 6.995110301090917 0.9457587006124617 -0.6564237201222114 0.5956698379726064
Ni 2.107653717998989 5.350869701213782 2.5736868626645983 2.5883490928505357 -0.7864513489669746 0.9001231621615337
Ni 2.4477498329801706 5.243368888737311 11.202895579276724 -0.2855875976326759 -0.281648924699902 0.8538494759059747
Ni 1.3163459086481282 3.353008865938739 4.045938845972055 -2.080180837435024 0.5345706566684406 -0.7705753011666665
Ni 3.8613683038699866 2.466086394959977 2.6751757470136974 -0.8989486822374583 0.333358951479684 -0.7907450912463221
Ni 0.9436715936277261 3.4410225515285675 8.14900006872033 -0.11157507856653043 0.09395736548476723 -0.10128732348727716
Ni 3.6360115947555247 2.6635396401921256 7.060520369022833 0.6446408685546705 -0.07356671764355717 -0.5700377392267989
Ni 3.9839442344958624 6.816535379897068 6.035606209579836 0.04520539289204473 0.5809926955764059 0.5399648311008184
Ni 0.8697500632550849 7.116234889212264 11.185657942676439 -0.7950791998453016 0.9714152248383012 0.8626318500842949
P 0.08232337206240013 5.7962923327845 7.995334424781163 0.31761788659534335 -0.3093888138173317 -0.2608006204959831
P 8.642445648780452 1.6152572357043113 8.077875226432257 -0.9851955664518451 -0.024779520937525064 -0.69511445182419
P 1.869541139681184 3.244846705129992 10.278012619981963 -0.05301049075876032 -0.2971457347839205 0.233207798479379
P 3.8398155958907587 6.277944169571248 3.7470936537490984 1.0783432915511235 -0.12787690105034752 -0.9380903854339264
P 6.70142453181633 3.903785192797581 10.281712546816228 1.474126828014616 -0.6989999029215251 0.7182546373860792
P 6.4250262267561045 7.856709472639859 10.445707002174947 -0.6401548077588588 -0.1292005049577775 -0.4187997948530078
P 2.444434031752597 8.64695731274584 5.818109580096638 0.14213932450663264 -0.9024590093835618 -0.7520998680702983
P 7.154466258557512 3.8561409341751505 1.743105833856001 -1.3611296722895783 1.5329032747228761 -1.2914831156360338
Ni 5.33497016254058 2.8987984551583303 0.433406022968933 0.35757205839077777 -0.04941068922264393 0.29086375842995066
Ni 1.3154943094257459 1.0628411273640732 6.885918067605735 0.17265163416287685 1.3548029587406023 0.48451924853800427
Ni 6.96762176534036 0.7298196276250012 9.163809188028802 -0.8528580585269829 -0.08107485309514424 0.10289503429402923
Ni 2.6484282837779376 1.671036984770351 8.901494884576188 0.16466861595740026 -0.3534132990273978 2.040059801044422
Ni 6.315704441474327 2.0307651796973034 2.657460671274907 1.236434511401322 0.24390667295412186 -0.14334722877180472
Ni 4.318559311928733 6.803987880716223 10.606200841155704 0.07586811208322418 1.1669314223041773 -1.097780831450445
Ni 8.243779438345 7.214014787160902 -0.0684549881302426 -0.15289373480965926 -1.0973586563113618 0.1504380741803151
Ni 7.402788967977708 3.622485662425559 8.19784834369015 0.45804562772750795 -0.055815564307723234 -0.06134934964175886
Ni 3.2149591962508524 8.331575694346135 12.422380229988443 -0.1793228755354654 0.0862815941070643 0.3553706798640847
Ni 9.14744398765315 5.003326622819853 9.96833490445898 0.04778600913502738 -0.5974806659291001 0.8414397893877121
Ni 8.509125072646647 2.411973606073919 5.793035418737198 0.6064895542959297 -0.0778324348984466 0.511271576931184
Ni 3.621507229276439 2.6438803815477683 11.778825791677528 -0.6308589842792297 0.1971856147484991 -1.0184946948246072
Ni 1.3442856107952235 3.3792181909424825 12.464440172007933 -1.6924793066487174 -0.20435950678911902 -0.08440931678501591
Ni 3.0804427573792332 8.546903463682117 7.902676805559492 1.122204511710448 -0.43031756568462015 0.5349586361354787
Ni 5.785275900290704 7.679205392170326 3.5268655650579412 -1.1920940376127342 0.7538353627041662 0.5224617892200486
Ni 3.1775794261279873 8.646431857906498 3.66062824802209 1.2819108985665664 -2.2247053743443814 -0.041728747197353935
Ni 3.4335846476820158 4.381650130914586 9.178315365421128 -0.2771104133996002 -0.43032193655999434 -0.19872082044610292
Ni 7.181028906642882 5.948674236193757 11.246426794846371 0.5704023216550693 0.4279040711471211 0.5565708150886156
Ni 0.29407442466437556 0.013366483964923697 0.6435317893954255 1.1777976755947202 0.4147161117019374 -0.64845098632938
Ni 4.754686828582811 0.2609816412652477 1.5473014296714438 -0.44718014576791376 0.7222750713993819 -0.19917204905090863
Ni 6.169238434790769 5.737242080321864 0.4436116242882271 -0.04974596107487562 -0.8353228778566969 -0.07778641215185958
Ni 8.193526024658249 8.795588555750136 11.293590896460438 -0.28374385955571774 0.8147851629146613 0.2753463795206419
Ni 0.04450421297905054 4.964877823885912 5.967147597623115 -0.10984832568341081 -0.9383863194077904 -0.7311263511424246
Ni 7.974456654483504 8.849773821165758 2.63843286439438 0.04777546761206611 -0.08937360276882672 0.31936109453869516
P 8.624462409882273 1.6672500861006085 3.722643696500531 0.03513361047833949 0.0482889169133749 -0.4891698599361382
P 1.844047520406889 3.0971667165762296 1.95913118978904 0.4287301665928423 0.04219797352428861 -1.7204950751353532
P 4.85197750995689 0.9539813799582691 8.246179317430203 -0.2665359803178635 -0.33601978614129874 -0.9254174179519481
P 8.483187534628769 1.7015405441507891 12.52913362825378 1.2589288358490964 -0.02075882981390618 -1.5424657216003308
P 6.5926825587710685 7.8293677018616705 1.284635615050442 0.05534273843636275 -1.025288063597357 1.8821192478394748
P 1.7921996230697204 3.2629114801239316 6.139058301923512 0.006271434831008555 0.14661792910327653 -0.0238022446259203
P 6.931927074529868 3.9157800584404976 6.001913682898563 -1.1757035120698525 0.582592435963358 0.5343464564727765
P 2.4949501728590193 8.50247535105911 10.334140256389912 0.3011720823344942 0.5438857634217794 -0.2837981098324209
