# total energy = -340895.05161668966 ev
CRYSTAL
PRIMVEC
9.02803999030316 0.00000000000000 0.00000000000000
0.00000000000000 9.02803999030316 0.00000000000000
0.00000000000000 0.00000000000000 13.21344909408094
PRIMCOORD
 96 1
Ni 6.443637110470021 1.8600470676414507 11.339795049096173 -0.46572705553216565 0.4130816614223079 -0.027438812937243064
Ni 4.700295515057863 0.33283765105782714 6.00009492532716 -0.4278400506784051 -0.551097193568554 -0.5041869021702607
Ni 2.692287900934949 1.6419025387115844 4.868851729041197 0.8628249399317075 0.07098198763551647 -0.8608102234945239
Ni 3.4612963425293715 4.217232182299084 4.888474173838161 -0.6894688235026384 1.316846791211803 -0.41386404811428723
Ni 4.903841703414141 4.589611745464676 2.7328851909110212 0.8542174007683546 -0.7207843457864684 -0.6954412390359894
Ni 7.1801716924211565 6.042412959714687 2.737218650079433 0.2814761465674636 -0.5747752539117843 -0.4954590353789596
Ni 5.0487327163179785 4.594495915069073 11.628482876463824 0.8327085801623014 0.7119829454447545 -0.154754699277798
Ni 5.820449569892658 7.971307859894282 12.396104611124354 -1.8761087799793366 -0.7585646498590355 0.03451885971247603
Ni 1.7594205345349536 6.474206053687194 0.2712285009389183 0.8055248206586578 0.568990271798891 0.12483451467959791
Ni 2.7651802953636104 1.8048315754039364 0.24884889274605132 0.5410251540445328 -0.7469874865443973 0.8295744054086939
Ni 0.4994916570270264 0.07814039404240668 4.746812490818784 0.6685500710721002 0.1598007463421377 -0.056904426496527806
Ni 8.34829172342631 2.473041951133111 1.204162674834427 0.682347896187141 -0.8301184508376219 1.4659630612569012
Ni 6.96605366930194 0.7620387947652263 4.799877503943973 -1.0399677770967186 -0.7093210823418752 -0.30943792188771224
Ni 0.9906468219788205 7.423278751769062 2.4961392885007467 -0.7455564105248257 -0.19717507322553784 0.30986858166722764
Ni 7.457621415678727 3.687818892518167 3.896025355088476 0.32574540079848413 0.12185409189503528 -0.05711808516923067
Ni 7.676163178365697 3.7782708246188306 12.504441993138643 -0.2586838312632964 0.2279043839885946 -0.6179605310500066
Ni 8.124649118176523 8.848029845943541 7.001832694365134 -1.3134483070532155 -0.35085967936760865 -0.9063526880110133
Ni 6.819636917649224 0.7383934553735856 0.32865766856829653 0.22818720533633605 -0.415039299369311 1.379549569557663
Ni 1.9303303585291307 6.544362952015795 9.317093397176368 -0.3999559226736273 -0.5008578377970277 -1.235628470560259
Ni 0.04761478541691878 4.774632395875995 1.1008430774155606 0.29871436482262104 0.31863141546152224 1.8866657295595768
Ni 6.368189780739984 1.7702090422563124 6.986122099271654 0.8591199802762945 0.8085085858773301 0.7141670975802669
Ni 3.6908342578561872 4.199835149345897 0.5379917333263855 -0.6600942269952632 0.8346345935404206 -0.45101674590518454
Ni 5.922276832310403 5.547170801084686 4.768496037132725 0.10501105219576753 0.29926638067134914 1.1020858865837018
Ni 5.358069476623113 2.6847946277895702 9.230875615804841 0.17133600067524685 0.4046307024414773 -0.6546041504149694
P 0.21444483816483476 5.521946457508554 12.312252176215583 0.33782418633988914 0.019489476183179335 -0.7749708591312008
P 3.9109107873319706 6.2560976369170636 12.784051223548472 0.5062664104071087 0.21991725201805998 -0.13018420902728547
P 2.4063969603389106 8.612768153298449 1.4775281128257685 0.02496284059292475 0.7044472991893416 -1.4220308786503253
P 6.36404591041019 7.723903453537702 5.90396706451987 0.7811479344761901 -0.34542719549812767 -1.3247760733612088
P 4.734963188405157 1.0829675583458616 12.642218007770346 0.2453279787816807 -0.449556102199258 -0.48386875943819896
P 3.8453491613298727 6.3667994625901185 8.221117336089332 0.8433076958343864 -0.6958829545590982 0.44651397293882455
P 4.740262647846528 0.9575409995401407 3.768938539738857 0.3050644754103649 0.9999436712952972 0.6364855864373877
P 0.15536444203149294 5.579093950291986 3.390848741314889 0.8428698369660192 -0.34665798258143526 0.7713011235890974
Ni 1.4480705213244955 1.2097302670618428 2.687232198571802 -0.08926073134004628 0.30888770581119707 -0.9155562088871522
Ni 1.6656914239381786 6.620081122943858 4.8680067045033555 1.3380725333597987 -0.3043579362616436 -0.8171436358445088
Ni 6.0305230311213585 5.638976939175477 9.350272346738517 -1.0046847855247085 -0.3349067555827781 -0.6668336026016257
Ni 8.655416613947567 2.3405374090189843 10.239934222425452 0.122027384248106 -0.3126574572662744 -0.20522056923783366
Ni 2.39323407811486 5.191980625953794 7.020768105323107 -1.0562888828542454 0.14803486405546118 0.09993749432760209
Ni 0.4041049982983339 8.960537279603434 9.049560975786509 0.23600233050538064 -0.3837366326012875 0.4803792582277018
Ni 1.5989380966647675 1.299459955967771 11.46643317086106 -0.46806547385735525 -0.5434013675861932 -0.7302670884659229
Ni 4.023752258469429 7.060839060571015 1.8288073410571681 0.2899538450211716 -0.6888075357695557 -1.717867664814835
Ni 5.717909092320112 7.839715149813508 7.938798790895253 -0.8854491050891267 -0.4399522605609068 0.4539750572025601
Ni 5.1490793801865165 2.7222068252768596 5.0301882194891565 0.9910078022582481 -0.1484135875511186 -0.4321859863519266
Ni 0.9010028994522672 7.422673873093472 6.999428527330658 -0.03411905317089608 -0.9160827708145836 0.5149978767428356
Ni 4.886571063020034 4.723524661808536 7.089517532225968 0.9675531707797336 0.1940344707140271 0.0021905798934155818
Ni 7.9376513270196165 6.997453192193057 9.02456143040474 1.243362348869407 0.5358024721930127 -0.12662271692827223
Ni 4.4264118675742985 0.3189696789149158 10.401508150323682 0.26831801191895077 -0.6927433804888522 0.08459932130863494
Ni 8.282955798422568 7.179268888427738 4.787985769742657 -1.2500713854584666 -0.649934512853442 0.3271952458711333
Ni 7.400194053657335 5.86889403217953 6.9405097331121395 -0.7488888173321683 0.9511670161122264 -0.15342338206088413
Ni 2.381741383278634 5.318851671148985 2.3179167521598747 -0.970346931474787 -0.44684821634979177 1.408250537036781
Ni 2.535705576316334 5.13747834887108 11.504210101161691 -0.6893598087285998 0.06273440291474357 -0.5699994297896958
Ni 1.105763359179695 3.54755926410057 3.8272362048099047 0.2048649856706278 -0.5235169699574402 -0.8088189180288974
Ni 3.539488196399403 2.642353812058937 2.694077258449906 0.22059885146611685 -0.07802552474585916 0.16860908866238702
Ni 1.1836663157718323 3.2721047376684567 8.253992040705697 -0.6839023851584544 0.1358059260894371 -0.2797365381685376
Ni 3.7518638078113207 2.7185143569437753 7.1354079620154565 -0.4996949278371781 -1.0870873562923407 0.606829968354484
Ni 4.13722569240228 6.841936176286677 6.052645340176101 -0.03084063952994043 0.5238435000589237 -0.931073330686145
Ni 0.42939163535001057 7.247927132127263 10.995003370361482 0.28127714318278013 0.01922670944009592 0.8829319950942277
P 0.2391455554247824 5.390904457863767 8.010336076529791 0.824584151282954 1.00167685193632 -0.19091032326274862
P 8.482159499570502 1.6238735429630042 8.075227821968772 0.07785428927531753 0.6778278968296004 -0.3191032128916182
P 1.9159125787542268 3.3519848350061823 10.302486802717484 0.8198710620780009 -0.9707431384719412 0.1480780585885708
P 3.9536856405401695 6.141595006431714 3.782878736201242 -0.842795274974342 0.3990879182463772 1.3856957916647166
P 6.828466340704863 3.8807119937521004 10.397517756672768 0.048332368556800634 0.13464970099780682 0.22824839759157464
P 6.2980960786909215 7.717791470502254 10.238335356553106 -0.8385236441821816 -0.7926672479696993 0.5927734902614179
P 2.4529274781597334 8.580231097375622 5.769811293901779 -0.15363472674074186 -0.8923782281087922 -0.9508312300393624
P 6.812784635339173 4.098287756166113 1.54614573034559 0.7005729038355999 0.3090206318446356 0.9106284325682317
Ni 5.58440243777329 2.9640409309940443 0.2455049067544268 -0.4847084817306749 -0.5941369462678477 -0.35626722353642515
Ni 1.46772456426123 1.1148816795132281 6.773134386752197 -0.995370192992002 0.5356196667582452 2.345729257028638
Ni 6.851036440540342 0.528474373627761 9.265706696674945 0.018363847219168374 0.7429490548089657 -0.41657501928754714
Ni 2.4343658280550358 1.3225536821194326 9.130347488333626 1.035863782230674 1.1203355768225092 -0.05437163277234507
Ni 6.173527183678949 2.181634878137282 2.5644526610747858 0.11146863489565319 -0.5781254013309397 0.02223258614595526
Ni 4.001028681955069 6.790196479423826 10.530563981182947 1.1435624085609337 1.0392694654781134 0.17534589316558832
Ni 8.092725968969221 6.98531047848157 0.3251114544821462 0.35779882968960314 0.7053538701640111 0.40278310770977727
Ni 7.64370737480228 3.737436999996483 8.225464337317645 -0.20533009823250442 -0.43503374021336694 0.021935109510194478
Ni 3.032301940936465 8.530567849697636 12.450041732907188 0.8052116602936131 -0.6853080072567295 0.19606795620428813
Ni 8.983134463558715 4.749317771900522 10.147426605631773 0.7104289706940733 0.42515093388201614 0.2394956883706198
Ni 8.656220109501712 2.2890595253142254 5.692723569315699 0.01253669901443002 0.7798618686749149 0.4531587319488518
Ni 3.929833559034036 2.6149446828187317 11.157582119104388 -1.2242600808223174 -0.15336064714374878 0.7132206745065975
Ni 1.129651552845565 3.4596442112214145 12.369770721440311 -0.7252387820133962 -0.15662106306257542 0.9822015168205278
Ni 3.1032352506994068 8.432523336012318 7.802303855130213 0.17739094862007515 -0.40581623810914624 1.0450516193775292
Ni 5.555196728586181 7.8739855894036985 3.626602462136396 0.4475940933768807 0.0807858610998157 0.8057816738644703
Ni 3.1017004839105944 8.463796466344357 3.624726435438071 -0.09058973456411495 -0.28045053351642674 0.6405754402360452
Ni 3.7852043592882896 4.4701707771353245 9.381258385400649 -1.0341447426570383 -0.07610902444943667 -0.20393553187782298
Ni 7.246247916699503 6.003168070120758 11.465983574472338 -0.4310331036944061 0.39992764053885316 -0.41973207685929
Ni 0.6304605295483474 8.693948288386697 0.02365888145154194 0.17303241454106327 1.2051452143697374 0.4368293986612089
Ni 4.58744501588047 0.37572174354922966 1.6828383801851883 0.04339327938397043 0.13244755114016543 -1.1196089830691298
Ni 5.926989469156051 5.849131652763585 0.5549238222229615 -0.8983724980190141 -0.7357630785834877 -0.529022730267018
Ni 7.803738410675756 8.862014279801604 11.460790645902193 1.0365366399279825 -0.3086532212028878 -0.41813850711992506
Ni 0.021461456531559755 4.838758563528556 5.52242855484104 0.24083908977239166 -0.18537345260491947 0.9977950003834106
Ni 7.9805164606271575 8.6185641549362 2.7651784897556237 -0.32248498487965754 0.03221797949344128 -0.6686385170208484
P 8.475749591217225 1.5573730008077504 3.423709903871352 -0.40464047263349023 1.6728821012430801 0.32868262904993717
P 1.8588282822503348 3.349294479105793 1.454020902445121 -0.8548969433338826 -0.2569887029490606 0.3987873562868229
P 4.728273410813921 0.8593881493756119 8.255128670933411 -0.18340475891432284 0.8194604569031436 -0.37900580278452145
P 8.60811871273234 1.6142315963132876 12.414009019921842 0.1573923940109612 -0.06920098447569371 0.12898684628507465
P 6.422403160544803 7.74507420718338 1.5324691526492835 -1.0470524518576418 1.056928059100141 -0.4402895892956675
P 1.8355539952999895 3.258869631124932 6.122860920764274 -0.5486561882272293 -0.21995401879326634 -1.2889567496697543
P 6.752964842735221 3.914332414467029 6.193499916425361 0.28167077907677296 -0.5427966441226587 -1.4057653087210822
P 2.1810119433818227 8.509153338973734 10.266572357055276 0.7820645327531885 -0.26799045337620303 0.7612000305993535
