# total energy = -340894.1081932491 ev
CRYSTAL
PRIMVEC
9.04673374292276 0.00000000000000 0.00000000000000
0.00000000000000 9.04673374292276 0.00000000000000
0.00000000000000 0.00000000000000 13.24080929063349
PRIMCOORD
 96 1
Ni 6.390485994855324 1.9732373564225 11.448440594378043 0.9315487276606668 0.7410713781702785 0.25611041410916535
Ni 4.7439261904712655 0.295343285374349 5.887208059942689 -0.37460715949619355 0.02805047837931298 0.09763224323319315
Ni 2.523830612988867 1.476399791194056 4.626113292190152 1.641330551689044 0.31079392169497444 1.7859242512734406
Ni 3.4117856140322624 4.185579883168345 4.555235752749544 0.09944872761664163 0.5967180767314626 0.6435278379961498
Ni 5.249593367740405 4.34210646875043 2.80027255775192 -0.01038057190337567 1.1664886783398039 -0.22088835768207765
Ni 7.1166492113333515 6.133911581857203 2.6835941198702975 0.729769322893898 -1.216417701959763 -0.28848394534386446
Ni 4.833090797308454 4.527401667333962 11.39429860751334 -0.1327951642875713 0.06872070240516552 -0.0062362107176989375
Ni 5.552079954003415 7.797949675649688 12.601662110108803 -0.7076822611868716 -0.4722982809917801 -0.22934111643512115
Ni 1.784766754328431 6.66808501685199 0.2878390198131226 0.5388697982644268 0.3414247592069539 -0.06812317803048268
Ni 2.4909095492428723 1.492403463017817 0.39497315369583713 -0.22722664119527966 0.9908972448223128 -0.43680831561528644
Ni 0.5665806442695611 0.0358078764531529 4.625332559076308 0.8497249122146399 -0.407439375534866 0.5946056583741501
Ni 8.662102720464528 2.413234294138966 1.3795735056301617 0.26909782750776884 0.28720507863144085 0.9657981357618398
Ni 7.186300013691256 0.5933978768230795 4.927103548707742 -1.0460237534828114 0.5719128447623247 0.4227829478704718
Ni 0.7990319419946155 7.471742553760957 2.7239253631475773 0.011084539948935749 -0.4848951438201842 -0.5032165678371915
Ni 7.591023736913182 3.8653526522211092 3.9577179934230498 1.4279487867966567 -0.4671108232535697 -0.27607554437718257
Ni 7.66992934779325 3.693546133507124 12.793878964606614 -0.7902583814178905 0.6523390085298765 -0.7890525340352476
Ni 7.789970456571928 8.851532276325312 7.087023872655415 0.382414057135122 -0.31456958668732277 0.40540074783828245
Ni 6.8837139133581156 0.5375225357913704 0.30405528987761726 -0.6041966444966949 0.31663803918057726 0.456778073868994
Ni 1.9574055725380561 6.569991283903975 9.184976785132648 -0.5093429924499036 -0.7658293018412488 -1.0274961269922689
Ni 0.39977787393642467 4.897964924300081 1.1220699930863633 -1.229450109663689 0.2122967593583247 1.7420638024450643
Ni 6.417743803337514 1.9361819353992529 7.046110019731188 0.1187008909780343 0.7012429333194311 -0.48971030582064046
Ni 3.281132686684183 3.9973806830837235 0.22730008758573858 0.6565602457000758 0.9057826744401561 0.05774723411279732
Ni 6.0565529624309855 5.442931112537234 4.7756024236672605 -0.9201911365560023 1.6026819860789108 1.0997958049979446
Ni 5.185081110094708 2.841063375098531 9.327991169337698 0.19326211132437685 0.7236341565304376 0.11876131190232452
P -0.01887691443044613 5.745553399804969 12.380010803013034 0.4865007977444073 -0.4743464217700604 -0.036364654671963176
P 3.774107296644823 6.114162562303065 12.56767262711895 1.1095904224908633 0.7411847638196912 1.0163555369944173
P 2.179258621794181 8.530002315732728 1.367418314300368 1.3169714897151255 0.27666021323605905 -0.15098443360208835
P 6.323503978923655 7.722165187878266 5.798613397325341 0.11757423357275881 -0.6322239829475563 0.9794005570366229
P 4.792823785840076 1.0793567448394985 12.541747402503148 -0.6736174582926785 0.6109077379682833 0.3660919229363308
P 3.917235669693844 5.93354452501568 8.064870837921319 1.347982336274343 1.6034168073624062 1.3049700943788751
P 4.585771192832494 1.242460305783864 3.759714848083816 0.09370025516863863 -1.8727694311934584 -0.27418604066395363
P 0.25266893808217156 5.578080266508497 3.7738159918213485 0.08354362635061095 -0.5697644309607542 -0.46131992760340546
Ni 1.5450102191824118 1.2210738274393924 2.628922899087171 -1.2519107526600504 -0.09653901016901438 -0.8269799052086404
Ni 1.9149492515268016 6.5988684577092 4.954075480406645 -0.06225283529263472 -0.47887979086403976 -1.0053820687020492
Ni 5.85759719603859 5.6441123754071 9.340874622726178 -0.08529223361060148 -0.22315581356001568 -0.2302831686334163
Ni 8.453702164143357 2.4666733497992004 10.165260035770025 0.852122723022855 0.3142767380372523 0.5166888912920133
Ni 2.326837987798143 5.114082344423213 7.0271354005773405 -0.08364287093263659 -0.11189595224105889 -0.3504909831742803
Ni 0.7068212999380602 9.097847693366313 9.022870174236317 -1.4510460349357526 0.016471772402778084 -0.41021950938316454
Ni 1.3560149065367444 1.1310226407046753 11.216050814441797 -0.18166617895666132 0.39078479769732055 0.8651157928484133
Ni 4.21994842429806 6.877444526939876 1.6393441296262123 -0.25843263448443876 0.4729251159425017 -0.4747328585752017
Ni 5.6194781196829044 7.5962256087609275 7.977322882387073 -0.3730637262684736 0.9440887691092065 0.0380376714990119
Ni 5.354065047910439 2.8407286459535457 4.861098580010082 1.039375137818042 0.16678823340356438 0.5849329111710765
Ni 0.7082687773217807 7.545835302340155 6.882678967028756 0.2067614313623923 -0.25172385500569555 0.2777475327629668
Ni 5.354770693135002 4.4298959720730835 7.25189878404811 -1.2734936210371488 0.4114703510711301 0.044940826376748406
Ni 8.070346825798607 7.272786787368561 9.33985505584402 0.258824984826851 -0.36987684390005976 -0.7618196664612235
Ni 4.847782692753218 0.5113756662011876 10.423257499971017 -1.4507120486351015 -1.6693388639765119 0.003367116700020008
Ni 8.213457105380332 7.2317960372083245 4.69349607842244 -0.41448779774121525 -0.5471004137043352 0.6401267827344008
Ni 7.427784474964093 6.228820864561032 7.010835900563282 -0.3207410056053573 -0.3889796261677817 -0.15923716052918382
Ni 2.3479349706658708 5.477136812461282 2.4827439674519582 -0.12282751155189815 -0.9280150034757954 0.624735387879995
Ni 2.2755158678116003 5.252379761704066 11.357343605233588 -0.4894843058527635 0.16969846507182387 -0.003875680905322358
Ni 1.2209471731683168 3.424921471289527 3.897881992400135 -1.2925598936399803 0.8482413856905778 -0.837864413331628
Ni 3.771556117756015 2.7198280974782834 2.4498672327008397 -1.404637622874542 -0.7360088760457066 -0.10840876502340685
Ni 1.0395149298525892 3.244113452595529 8.115265667708917 -0.8868323585898985 0.1906133608476201 0.1111135655490796
Ni 3.9453529178726163 2.604500336930345 6.818923920989418 -0.9997621514121106 -0.48096984062384907 0.4861596123549047
Ni 4.094877331610953 6.711635992634682 5.954617081702557 1.0182396413910078 0.6270424387466169 0.04167038315559275
Ni 0.8512279764515799 7.366130985151243 11.176699332418623 -0.3108479148613614 0.11357179728158506 0.5386399416418078
P 0.2337947376718199 5.7122071395775045 8.092531226050854 0.29945201431959395 -0.1098048740399851 0.1376967153542467
P 8.366717820115397 1.6985604293942218 8.071941764940794 1.6588227949365366 0.5911151287223884 -1.0386637135733143
P 1.5722047005290625 3.350385432761565 10.467442651782454 0.25095715204300006 -1.364256133733702 -0.8368513986860814
P 4.080393511040099 6.12781408337828 3.739151622501335 -0.14909672966107224 0.13664950503665496 0.2739219883692895
P 6.766893441758216 4.005540836834449 10.53303689877248 0.6267984410566109 -0.2717812878772029 -0.14212672610114233
P 6.221140187693664 7.684331747761271 10.355822242683569 -0.06969257940013159 0.9425461072124347 -0.18957720627362187
P 2.5812411847206853 8.451630462137906 5.948380263525451 -0.9129272559047374 0.22869731220353517 -2.046709445150456
P 7.028271670323562 3.912558508397697 1.7476679089836724 0.3934145220106837 0.6924268776896978 -1.0503324081604943
Ni 5.402772661872636 2.7672329817951327 0.6828085548155004 -0.013117511218564505 0.13531973048163792 -0.9036751411788501
Ni 1.5770447030308783 1.0254653524968513 6.935615024298147 -0.0035432372665680917 0.3443776711876908 0.34467000561712896
Ni 6.877471667140821 0.7784316248041769 9.203129960871232 -1.0591116970150212 -1.1253664543781974 0.3829491037029856
Ni 2.705950408061862 1.6949507826685684 9.14620791275642 0.40928491338403705 -0.7143419325952343 -0.29486928004491797
Ni 6.493148328295708 1.788186419647471 2.6903466018653543 -0.6908052829258747 0.39445607590132065 -0.07757455325136962
Ni 4.024674678500505 7.02252699445692 10.344474924668564 0.6895089327119543 0.0391707566621906 0.3860040884792255
Ni 8.175867927071838 7.051512729065925 0.6754001846309454 -0.6194700257159976 -0.05053323286286136 -0.6180188950917679
Ni 7.540289654613774 4.062761427159653 8.301259274130093 0.8685027070427751 -0.5681508066167312 0.4976033354154721
Ni 3.150904955817571 8.660736663683641 12.369114012333712 -0.26493341171743406 -1.297027699603347 -0.6896775970793348
Ni 0.016000957803666286 4.921377870981762 10.171642506358866 -0.3205299180358157 0.4103501214237579 0.5659807955486058
Ni 8.960111173571653 2.201341698629568 5.691257618468245 -0.7802269653238176 1.0227485850049547 0.8358792645807992
Ni 3.518401370076932 2.5874653374706837 11.296078220294248 -0.10502159371872881 -0.4398051934600813 0.7198168396668765
Ni 1.0231584354165466 3.5227438022280944 12.618186873790703 0.044695286024845605 -1.2403438737580574 -0.9845767019209237
Ni 3.226200919971987 8.341902629718238 7.945332727533484 0.6519746832119223 0.12377213485335457 1.0326987542391313
Ni 5.840688850850004 8.07732185744141 3.7461691737922855 -2.2529679687345006 -0.2834268425359312 -0.49338132691432446
Ni 3.1695502738666224 8.413959863226577 3.5211416256989883 0.3854816403168523 -0.5104961322177402 -0.03028888079152848
Ni 3.1736303507419845 4.252543805632718 9.253233485835354 0.6386422277690743 -0.2773461835594901 -0.11158741986170459
Ni 6.985344919162598 6.032913847408099 11.533499793485653 0.9069013614256316 -0.6588127891796782 0.4750725013028077
Ni 0.18226816150482622 0.11952906365418693 0.6393760912435993 1.5184819570912236 -0.5074558027295195 -0.15718104933110347
Ni 4.531391276872841 0.44248298012300613 1.3050248016750923 0.06353581577011638 -0.8750765036055509 1.5338101028078617
Ni 5.724836379750467 5.28785200433887 0.3300963126841155 0.04585665332279844 0.3909670889114557 0.6868534973669783
Ni 8.151604587427222 8.963196109745708 11.083550544082744 -0.7862199496824589 0.2497495048881441 0.818373394486552
Ni 0.24129267051949255 4.878188764544998 6.047394953958858 -1.0616056670814686 -0.8254246449063783 -1.2632673153234502
Ni 7.839754631838269 8.797025706094583 2.64693042241402 0.6163733890685449 -0.22446784750321983 -0.36423507223325013
P 8.466548525923876 1.6370788275206898 3.59303963669512 1.3844863447376479 0.887902965946258 -0.336380254804511
P 1.8113008241187591 3.2853665580315656 1.6806958444590152 -0.21915671970295159 -0.3222235036881548 -0.4959681138048942
P 4.718323934246707 1.0205801163267942 8.278551067999611 0.2887302570267156 -0.1731972222537017 -1.488512664422643
P 8.521471245902424 1.5732993553005012 12.506619840420344 0.21179076625618362 0.8648918497630653 -1.0239564892701267
P 6.22457794648 7.794113860582829 1.5616743025624953 0.23617459441718677 -0.0372308593270004 -1.1125824152396517
P 1.9859932508665377 3.171033938184936 6.000271423058469 -0.5061895344225863 -0.09998660239798264 0.32940947991363273
P 7.071822646106255 4.053778020646937 6.170071376249273 0.890580255668105 -0.6253843343179036 -1.4467312096104827
P 2.4178571750332236 8.520069002186945 10.066523984732983 0.8926877889294109 0.9909052152421127 1.516543345307614
