# total energy = -340893.89922288246 ev
CRYSTAL
PRIMVEC
9.03124653130588 0.00000000000000 0.00000000000000

0.00000000000000 9.03124653130588 0.00000000000000

0.00000000000000 0.00000000000000 13.21814219095949

PRIMCOORD
 96 1
Ni 6.469208483099885 1.9732190394931937 11.427493900870363 0.3668596543402908 -0.012561124494462238 0.1828943949368076
Ni 4.6265090216098566 0.2656333512270764 6.049164293722288 0.3101187500048207 -0.11068933352746743 -0.14527581325308528
Ni 2.855048034468636 1.551857191215053 5.051841909083125 -0.12265987562578232 -0.2606826068608801 -0.8012359634753168
Ni 3.155020895205914 4.162817719823493 4.709941485317914 0.2617519286656589 0.3706443181937036 0.30177937690118994
Ni 5.187204944717283 4.360303992463627 2.6449234351292468 -0.8747481737318547 0.7049545778430634 0.24006158817641884
Ni 7.068332361120366 5.931171958083375 2.627727038196239 0.7197065393412573 -0.45949624413110546 -1.3487662656282189
Ni 5.153184238217288 4.457705988641605 11.51387416351699 0.7234454375583993 0.22368288970807929 0.13892904509945103
Ni 5.6412689374702 8.052783412894174 12.207404373169114 1.282855778978339 -0.463680200305466 0.4502011919824247
Ni 1.8757357620944828 6.613572962367848 0.20974528697596997 0.019047246439438163 0.11647405853004458 0.7859211874951174
Ni 2.8779422449750034 1.470476626768158 0.34393516365755283 -0.733666343955459 0.6001150182281535 0.9659372324428656
Ni 0.29028865484931843 -0.12497710187387254 4.804741579307772 0.5104082004896242 0.4532384361468516 -0.08387735554094586
Ni 8.69136480795699 2.166298063720268 1.27950278615806 0.4281532110434497 0.27667666829629123 1.1221700589280865
Ni 6.894751798622384 0.8136096664145156 4.9113202253064685 -1.5060966960529931 -0.6187094934008893 -1.1215244549242878
Ni 0.8052828569127914 7.588622486276909 2.394360525350682 0.35689791514188857 -0.9176668274722517 0.8152155655838605
Ni 7.772372232613223 3.707931883616501 3.950017162072649 -0.5005760448905507 0.3384841885213912 -1.0599498766456004
Ni 7.619608693869552 3.818636906254392 12.610292806224068 0.4600541735171045 -0.027673554655868467 -0.5615034765035426
Ni 7.676758423291364 8.845735908621819 6.9499272975050665 0.7586245565626935 0.2010972910980795 0.5346616737203501
Ni 6.783215901283669 0.871443964339832 0.4490651976778579 0.3709438517119934 -0.808062499478847 -0.9675158897838949
Ni 1.913341873553463 6.432017808991317 9.090050098775393 1.513522299093103 0.3630863033407876 0.5218339258280625
Ni 0.10474981853221119 4.569368323434793 1.2511094495067898 0.19531565141929588 0.7184580116461369 1.223629389216854
Ni 6.226556945472632 2.1958663655734623 7.106773862903544 1.0133398900965451 -0.7566851734481355 -1.0413464026118002
Ni 3.30462349758776 4.508398376638544 0.43789444857516513 0.2662351612479931 -1.2195570189196931 0.4615834656774373
Ni 5.7927951954093855 5.6945442620370885 4.789712681594302 1.00050468600509 0.16916444694522478 -1.1440375484251393
Ni 5.460427252586766 2.6600995421647102 9.267530353619193 -0.7781328017989502 1.8324519625213342 0.632185159289821
P 0.2887425054060481 5.434787543068984 12.491277230328599 0.4826850235427429 -0.2580662522839555 -1.453308091497052
P 4.16048765816249 6.0948994303792094 12.539919525313728 -0.1330813280694224 1.8233926805325438 -0.0850502928031245
P 2.568206606503057 8.555733544294414 1.386438166403305 -0.18815410067385013 -0.4796611491147546 0.2759091940026474
P 6.219160354385959 7.6754037362791525 5.9465648150407935 -0.4381152073521681 -0.034052975819651034 -1.2778758092652445
P 4.79985477169239 1.1045395397829472 12.58351335336668 0.055519887444175346 -0.2880021206114395 0.13883802804754153
P 4.089628496177101 5.948385514385205 8.202373371530571 -1.6235050934718491 1.2173319862439165 0.0831420200368181
P 4.783896558688542 0.9313382896483839 3.9083804051900035 0.7808170334993326 -0.5387170747366464 0.22407472582985927
P 0.17061560419058974 5.613389478758895 3.323239606509565 -0.10317245632513199 0.2095688189042004 1.022253390536091
Ni 1.6428921584356388 1.0836231723144079 2.8167727076256237 -0.6471728909479048 -0.587707131482104 -1.0073463915172716
Ni 1.7200099744174429 6.271342898096331 4.902992512680068 1.4847529402698945 2.417274830477108 -1.1039990444460148
Ni 5.900447656646428 5.503587580795812 9.293609884853606 -0.3971032837161806 1.3580271221048548 -0.10451560061658774
Ni 8.64367982512716 2.37110867747309 10.251925411663162 0.29225395390925796 0.2880224323264136 0.4044173008790906
Ni 2.2384577252373794 5.0701328931219996 7.07326613121884 0.30290783407867833 -0.029627078837813486 -0.16192961975968242
Ni 0.5178164666722461 0.1058751118770212 9.187111616950968 0.10041211997117545 0.08510145775603407 0.05631127299721915
Ni 1.5107559872645682 0.978806522556261 11.561367683915762 0.03877506388566871 -0.015357970513309034 -1.3267087716075474
Ni 4.145685444742396 6.820198856717033 1.4713246608378021 -0.3724212075884683 0.22414620249774303 0.1361442832654623
Ni 5.331695861439719 7.9290733949390555 8.144900323475179 -0.05985785269789691 -0.7176823098223769 -0.13948491760292106
Ni 5.298126717277128 3.070641956838659 4.8126068921006695 0.31885561565718634 -0.8839049005304584 -0.14806340330055145
Ni 0.6944965530541676 7.615047914261774 7.205923405327274 -0.32541784225573633 -1.3024226453666732 -0.49891151270393425
Ni 5.1542318628400645 4.883041585488899 6.713785482533827 -0.35686654768332093 -1.6353079996440483 1.7059506016622747
Ni 8.212130730517192 7.094143664326362 9.242641140706175 1.3748681049215934 -0.07914344040038628 -0.7917732754005202
Ni 4.6742030356864355 0.755701312265865 10.391865483149243 -0.9574263667583769 -2.0228596351160517 0.2146583176119658
Ni 7.810014469059196 7.270198788433317 4.336991635232824 0.013700894525860275 -0.41547767245831024 1.1993754017654956
Ni 7.3256416122197425 6.175656838800488 7.031681755567332 0.5217125697588498 0.06791903243947657 -0.5008272416694084
Ni 2.2259584797380447 5.268215228047507 2.4460039036301935 -0.042401862004978585 0.23059324367466738 0.8803166689585677
Ni 2.5295077141875604 5.230609116588527 11.4512207923269 -1.0762815239260883 -0.2191045263087775 -0.4480023845588929
Ni 1.1217892210717686 3.1499453345334967 3.774969021978105 -0.17618612967869657 0.834449474112808 0.4007444800131937
Ni 3.7925817593861986 2.3567309326501564 2.7319521412923873 -0.7799004352223342 1.207683664520875 -0.3780210702737489
Ni 0.8220565914979892 3.3452641079540935 8.352729179891208 0.5486726432874616 0.018948258967728657 -1.4246292355051209
Ni 3.816026875944199 2.954960717242579 7.158325122466224 0.3068264524067942 -0.39088609916187517 0.2795709591249508
Ni 4.003100121083803 6.890443893923552 6.121995879997455 -0.8501964525344197 0.40236813165954577 -0.22398396588826586
Ni 0.9340837886597985 7.299749027793014 11.158663488294467 -0.1808645089909724 0.0033812577674070796 0.38193943149154863
P 0.23590880880514037 5.526093447692013 8.053140147140722 -0.38615449801416074 0.1866893432028656 -1.0425627915174045
P 8.393965852542914 1.7205879742093195 8.127994732687458 -0.680050615512532 -0.6008413548712168 -0.35509814292898845
P 1.880395885416489 3.2683088544137546 10.29205575658823 -0.6746502704325672 0.13754964825342117 1.813827662551928
P 3.824552372874381 6.124142607349473 3.8706550812739486 -0.22292955648182253 -0.49180215535266264 -0.7059313399340359
P 6.900035077970007 3.875858885650189 10.325352157099028 1.0498156164250758 0.5297287551951071 1.0161182241726308
P 6.428098247902652 7.629570159032678 10.064214560503142 -1.73361772856024 0.5436862458164636 1.4246870853262497
P 2.137136167970737 8.443538365943091 5.800663217576307 1.2003454789882488 -0.5015047273524073 -0.42883609604308726
P 7.0068386020127305 3.9233180873113183 1.4944166556479526 -0.6444855739237287 -0.10147527112836716 0.3380548142934565
Ni 5.1146027521095165 2.8782764011046824 0.6483315290520376 0.18447948003574036 0.1797368231444324 -0.8282178913807994
Ni 1.2535641423729165 1.0192936017278769 6.985087747344669 0.04681001837500325 0.8535113758402656 0.4335676971908016
Ni 6.816324451862109 0.5617616102236994 9.11215136581728 0.10234044734213989 0.3028330149766849 0.3210389964617503
Ni 2.6874642198113747 1.6718734292502084 9.200051587291608 -0.07537754560005083 -0.6892392239903355 -0.3930136870278393
Ni 6.435910276339736 2.091230340750277 2.5352398464985626 0.2773891209822836 -0.5666333415309402 1.329145148963182
Ni 4.120921766159177 7.059210801904811 10.514913510717728 0.37458556222963874 -0.5062792659229153 -1.5802187719793883
Ni 8.367630737025529 7.215198495737546 -0.13964836221611876 -1.309594480524764 0.6252498656225683 1.233686773452856
Ni 7.356474288617667 4.092346901448271 8.152474830122788 1.5525367326830875 -1.1279774096384834 -0.013963404158627565
Ni 3.246606768478133 8.361101145626671 12.357945322088085 -0.3126751978780873 0.03293146062069812 0.06511627288335883
Ni 0.30410284987517244 4.913115637159985 10.22961281344737 -0.5270185553527956 -0.42687305877944554 0.6337494184531473
Ni 8.528955897686375 2.1838457761517756 5.966206873593179 0.11894231756487902 1.4918003340349792 -0.3531466756295724
Ni 3.677099207218576 2.7760607504099806 11.628634215944766 -1.0714612197193096 -0.5440713970700243 -0.49975174921704246
Ni 1.1899661027729793 3.252603516318854 12.54262889933815 -0.033057701785917264 0.32634318228348314 0.037333703453451834
Ni 2.91894410521126 8.603779776994168 7.907674758894169 0.7427341105846822 -0.6316737668710412 0.014648603151110256
Ni 5.441145540779628 7.627863253397291 3.417087807092176 0.7555716286689825 1.2982294332209319 0.16529982178349595
Ni 3.039565436778536 8.240353376604922 3.7088657145302517 0.20338865823541746 0.008376139878837188 0.24946951175388002
Ni 3.5843663656093523 4.288550737050179 9.476892715733044 0.40687373283938316 -0.28156022164083766 -0.6083739158028361
Ni 7.3246210813372095 6.026027142678397 11.327723008670365 -0.3081639402712951 -0.7532234401517802 -0.09321071712672979
Ni 0.602628904883409 9.02368759454587 0.43860340144488896 0.45435506624979816 0.7997532082822033 -0.0593693430972526
Ni 4.708539835822612 0.3329179457495773 1.6256072552845 0.07502504735663852 -0.8074819443850286 0.2384315087721636
Ni 6.000396464407363 5.606688293671825 0.3527054073746075 0.6691817911188281 0.2556062207792372 0.0328044481245306
Ni 8.101624395307757 8.87949470896612 11.143951587341855 -0.3897990367452835 0.01682195665334522 0.8382223108916789
Ni 0.20931901212946089 4.86371471744802 5.537053768745475 -1.6200310188803198 -1.5544264935066328 1.1632642578652352
Ni 7.851242110464153 8.816366294197083 2.431265812062011 -0.07459387335649088 0.6797102014539779 0.3767311478177318
P 8.504201250349904 1.5997769864603335 3.652648912897516 0.2385299820232408 -0.09602453242644109 -0.5127892991272911
P 1.9298600238556904 3.144634961445629 1.687864154742348 -0.05233917572334857 -0.3517127713965233 -0.5731166352624387
P 4.630446645192016 1.0797668299529803 8.121121050787501 -0.30983284333328576 -0.5950957106366912 -0.29386629270170034
P 8.547343516065455 1.6299865068326411 12.402900159025974 -0.1661338876490171 -0.6448853804653087 -0.2032621599598822
P 6.530277773610361 7.664159834077801 1.1826598241537876 -0.9161218515826351 0.02645562308836734 0.09637780200080176
P 1.890276069358882 3.026000504162929 6.300876881211884 -1.1886058219538174 0.7923255483595645 -1.1119239557200462
P 6.979248143197363 3.9798807856945055 5.924781447884439 0.31178739595649524 0.354159433164803 0.0529446705178314
P 2.442961276600767 8.470713387408047 10.036918520331763 -0.024536808799099676 0.6279927184750281 1.3509470753296218
