# total energy = -340897.9654199735 ev
CRYSTAL
PRIMVEC
9.01023368088412 0.00000000000000 0.00000000000000
0.00000000000000 9.01023368088412 0.00000000000000
0.00000000000000 0.00000000000000 13.18738776035612
PRIMCOORD
 96 1
Ni 6.423557753509919 1.896960531333838 11.310215625656031 -1.0646130864492245 -0.19378430237643401 0.7754441992231935
Ni 4.624628564291426 0.44667061991024865 5.992863178885029 -0.16478277293776136 -0.9899927307301724 -0.843142888121748
Ni 2.615445572843008 1.6420880520675898 4.853934505574926 0.5491372416287058 -0.18568635585964796 -0.1584547738372045
Ni 3.4746614537363305 4.329453309907352 4.819225283507212 -0.9910414837096608 0.725812138018363 0.14157856690715614
Ni 5.000148072135292 4.761611146477051 2.610325057059538 -0.15223501817973784 -0.6508827356993242 -0.4482834061344216
Ni 7.252210921861398 6.006203730827675 2.6148211636510417 -0.07587428273081126 0.8836511326484394 -0.792724583570196
Ni 4.943059231726943 4.369620931520423 11.597688031292458 0.27012061234532836 0.603491133789238 -0.3297486084206063
Ni 5.692692650965226 7.808448686029481 12.326383469574157 -0.798424976389083 0.7406340335225438 -0.08086787929066072
Ni 1.753968123303458 6.471447145361303 0.44757704941546955 0.2926589026571605 -0.4953428215160695 -0.5123097883877112
Ni 2.536849304711376 1.3970006865455757 0.28481708977968 0.6415133786692824 0.5482808071656815 1.3967960153429364
Ni 0.48193847646428223 0.17400743430146842 4.8370547338544405 0.4133495703717139 -0.1635185615133571 -0.3122972457133783
Ni 8.673043676412037 2.181692924917205 1.4131073802188654 -0.13372744629385355 0.5456449122047312 -0.6013751158874998
Ni 6.996013938248555 0.7108110255092029 4.763864605912993 -1.0667998096878981 0.1528240579139884 0.21461692285106912
Ni 0.7983931996602869 7.536988366613016 2.5123423702059045 -0.5586647215031669 -0.488691634748139 0.5545051908088385
Ni 7.590545195430444 4.010518069387418 3.8805868960565237 0.02651038758570273 -0.9789241316208366 0.10599038538990134
Ni 7.462473734324973 3.724740488700615 12.679264765371622 0.8611472951189685 0.05583201936795546 -0.6864696316649984
Ni 8.111643048362328 8.831524676087296 6.8845546449241555 -1.2385908956226928 0.7933627313748272 -0.09999200171462135
Ni 6.784949214990101 0.6551016518727169 0.4514226171374208 0.14431036401602246 0.7326286467195641 -0.7645378367233349
Ni 1.8488098427065949 6.373478874881509 9.221913772524262 0.9485753441256503 0.4922451564273522 -0.5513260217499086
Ni 0.04531787116758658 4.737625904499932 1.2466712452537505 -0.07588045337839835 -0.40428540328691664 1.110959277813932
Ni 6.4322886699170665 1.843304589946257 6.955621961817591 0.44757969519917756 0.20019457677815197 -0.2679408310851902
Ni 3.3937315350892687 4.205003962729305 0.38590920826603503 -0.520355284400007 0.5652578013396523 0.22925935535459224
Ni 5.850407780780208 5.527282781612881 4.78914461846566 0.5990629228145553 0.4114839779178849 0.6215824440733101
Ni 5.459111353814654 2.751590203299154 8.89966727113784 -0.33943215425695733 0.7921028908257971 0.9616396335087761
P 0.1714818658092872 5.501927984120916 12.448603684947116 0.05607113196195505 -0.7804084852070043 -1.1811701916113786
P 4.006048993496865 6.279673332348159 12.607960479333185 -0.45460214926359765 -2.2750079792536755 -0.8227352709996735
P 2.39954235411434 8.41703590770585 1.4058811728313187 0.3353042481315129 0.5987093961298786 0.7161285921820119
P 6.374614164321447 7.740980056455978 5.844465531687831 -0.05861729542257647 -0.05368720511081076 -0.17955376059934883
P 4.618609728213021 1.0516834818975411 12.613182810756902 0.826905600327279 -0.5151230894667903 -0.36176218521272535
P 3.975324096749317 6.1128939074809665 8.249198681408112 -0.7125393321688568 0.28737888520514376 0.012330496540894893
P 4.734796691133736 1.0253555791713425 3.810944097103202 0.03287695323367886 0.2566896836514031 0.07669523597020984
P 0.25194054923643805 5.680420712733508 3.5513106103761314 -0.3167424259689255 -0.7950809996175145 0.07719094465970577
Ni 1.4880400873482826 1.0304824021183676 2.6871679337228205 0.1548184626361979 0.49542406837596614 -0.3711513397371092
Ni 1.8311948359202437 6.550340751203395 4.811840496007419 0.4558745882181181 -0.09192979353177717 -0.30995599917471134
Ni 6.081619386480749 5.706099878636884 9.122771468599835 -0.8462369536660393 -0.6587145730389172 0.4250756005593905
Ni 8.495893472613341 2.440601988858791 10.240731526158942 0.9586525258559941 -0.15770324038316064 -0.03500788353375261
Ni 2.278715120863716 5.1366441017038 6.994854321177761 0.6024968881967688 0.937038290020328 0.44109768701925967
Ni 0.6350818137250986 9.094659539610877 9.118392495045784 -0.17751256179960395 -0.22519932635260573 -0.03455536937736629
Ni 1.414669754733829 1.1329828201242655 11.305890713503883 0.14876994244927283 -0.9572368764553901 -0.9992345610434147
Ni 3.973675223991311 6.774533384890346 1.5194767925542056 0.41365938830264887 0.9035550706612181 0.9785214968657792
Ni 5.4750955083103 7.7830578476029135 7.812274431237402 1.0224521368104584 0.5683858054456726 1.1287063173847078
Ni 5.257516386122675 2.9063950276450874 4.913158771358398 0.7574835009797148 -0.5117441456922284 0.07243980312796557
Ni 0.8726402280089158 7.435956616692119 6.967806500782903 0.09339043723770368 -0.7441582446257183 0.2620964564892712
Ni 4.945960526962343 4.663219395015693 7.042077856762387 0.4609903121781287 -0.6944300241626556 -0.3413419696851605
Ni 8.012413345171492 7.310453072176986 8.814436767969488 0.36658968850835577 0.5158684522732471 1.2003912446245197
Ni 4.72000188747993 0.3190767011882442 10.333043171953074 -0.6639094869762953 -0.32093820921782795 0.18264834036427252
Ni 8.067583005812324 7.32961783915119 4.5545415608191435 0.32843734580835043 -0.621194207495956 0.3447764492880062
Ni 7.2671048380853565 6.041911286783844 6.977223095970838 -0.9200741513621639 -0.31492028515852216 -0.7518846667356986
Ni 2.2417731628974553 5.137986626517696 2.509955559311938 0.5474233442613926 0.5694880373709159 0.27811005830870816
Ni 2.2903833734408643 5.155718766341501 11.371655507894113 0.5202796939670652 -0.2149408818493911 0.5402355682637019
Ni 1.0161741510816793 3.482788684488908 3.7123811512024885 -0.015713554080514874 -0.3800753816996164 0.8135826579661277
Ni 3.681923858394354 2.754923989749768 2.9131995560977995 -0.37248728493971334 -0.17922620205660103 -1.1484068811374286
Ni 1.0642437476060698 3.263245331365516 8.078356542187997 -0.16779327762931104 0.5496581471291824 0.49047726589365215
Ni 3.711261179159755 2.6073093318567806 7.018999945313854 -0.22268633012276487 0.5708280963385782 -0.8415796573996862
Ni 4.088501641630829 6.8149803237465765 6.00971682092793 -0.15711162954574878 0.6338584332271857 -0.32866514554844045
Ni 0.7873502572984701 7.237848609422808 11.239676308454504 -0.20269728859534772 0.4860189730119823 0.10172338258343126
P 0.16139761230786306 5.638811453736388 8.062953547762795 0.5331748047621786 -0.9007489686709906 -0.31499099049545753
P 8.49791176495101 1.7019880853748341 8.013210750849543 -0.09051337280022476 -0.5665366680520759 0.22791338284965906
P 1.818166038061899 3.176909272528269 10.191793343110662 -0.5352059762595943 0.341582882051373 0.7589616281871381
P 3.968413247539531 6.2684646016871755 3.8270724153372524 -0.7324509834911191 -0.3302736276861409 -0.4120308515602904
P 6.6942612132997565 3.8713189697238173 10.368912912114947 0.4757546149714967 0.801506186417568 0.3652342029217258
P 6.322940474336935 7.648291782895265 10.156899411253116 -0.6976107358834824 0.4408248929738472 -0.38013708817548725
P 2.36878141643219 8.525915571136165 5.816007609726699 0.7012935840517084 -0.13892621688597365 -0.5191669205188607
P 6.799410639998845 4.028691710660088 1.5832647416815575 0.9040021855009657 -0.0049038650595205876 0.5471235536327868
Ni 5.335563030001638 2.8446388862058796 0.4946645304719765 -0.5840191411075555 -0.4491323843982781 -0.28089224903953564
Ni 1.515178911103009 1.1154849463753684 6.95559493111664 -0.6886892650241365 0.2799517395031372 0.4442693998790219
Ni 6.907794740578394 0.6951971916165852 9.17256652486826 -0.07018803097931138 -0.7905262903672966 -0.2561914038587459
Ni 2.8314839450764304 1.5967395461055924 8.958034663701168 -0.7242535352819913 -0.5393315683921938 1.80476683790124
Ni 6.296918919554846 2.0077413540643687 2.595172547129816 0.6770622223081695 0.5974770663846742 0.3533425936904624
Ni 4.049162961513587 6.848372249654616 10.426766721360208 0.34277355992536446 0.013770314311214995 -0.18591929780606045
Ni 8.086747772786529 7.1226257415026755 0.29269113296668375 -0.2667498961008825 -0.11546901430429792 0.23419587342426118
Ni 7.684143502589839 3.8576234145753503 8.367437274531003 -0.4560167702229372 0.17023865384601003 -1.134673076491104
Ni 3.1312904595567623 8.255996001673903 12.53511274027045 0.420103858376412 0.2218232107915212 -1.2248609476311099
Ni 0.16799670743334827 4.8594352532184395 10.179212353864738 -0.31495808037499307 -0.4806839339523141 0.1923082320515398
Ni 8.575174518502397 2.4073001652872548 5.809466180096576 0.5787172692786678 0.7693571124888491 0.2246470533935615
Ni 3.477130257756515 2.508052597964993 11.45518487894929 0.5794947708746407 0.4223931686312209 -0.3782452704694131
Ni 1.1737991785601585 3.146959255874647 12.525961045951831 -1.0436922771361572 1.2171548372361036 0.4368936762402411
Ni 3.121226028569369 8.244327749096756 7.912986317863713 -0.5503608296231618 0.040777439027678164 0.763218346580963
Ni 5.698819609847435 7.888405499442309 3.725094590883072 -0.7041675631653938 0.03174309673955178 -0.7166348423944691
Ni 3.1187932654837858 8.395807797225725 3.6999857727697605 0.6227636088656049 -0.1415420572422659 -0.3669853812848776
Ni 3.6176268310657598 4.199823078380378 9.288655276242187 -0.5120166826273246 0.3575877421200616 0.16911585309547647
Ni 7.232199192924065 6.005897382883565 11.322585775434538 0.23958336298841962 -0.5984479149383758 0.3615079031100742
Ni 0.6484376830649494 8.768876521516708 0.11184943644145712 -0.3015214952541129 0.9120165711650099 0.20689152918235337
Ni 4.608824614468786 0.3622951879153092 1.6406563259405562 -0.5259939707430231 -0.5021930116686835 -0.033044589159794704
Ni 5.964170990848991 5.7171284046248605 0.3077949876346942 0.021318558972118123 -0.40630706170263575 0.7788763648331941
Ni 7.79963667751948 8.66843043678308 11.355830834534078 0.9240601325931054 0.16726054505429258 0.08015954036972647
Ni 0.07654193485936217 5.034224775800754 5.829471601870353 0.15634801190684686 -0.852086727578597 -0.5186917806546552
Ni 7.948107307609247 9.031858211068233 2.5449945559312535 0.044754678507871314 -0.6856713041334191 -0.14575378133076833
P 8.537430649741259 1.8136699314703955 3.6434771914084916 -0.4712227885394143 -0.018155330752788086 -0.13628466549806853
P 1.7999473456209774 3.0706065359219417 1.6695629575374726 0.43897087048424405 0.2973750771859072 -1.0872097408028178
P 4.670400551234988 0.9065826791929892 8.133914543899158 1.1442717759231325 -0.23229788507059992 -0.009276283095603379
P 8.488784398263249 1.4776422777158278 12.34543921272119 -0.23961318778509055 0.8544066339610252 0.5229659825499767
P 6.352584143046446 7.802745208128836 1.4299348925841797 -0.5155252100012153 -0.936538210455458 0.7931272183252533
P 1.775529612428644 3.3387871302896936 5.967543521304301 0.05893611221457592 -0.6280328276843443 -0.671564946639024
P 6.845822353531579 3.9077383341383602 6.153287685958659 0.299212130394646 0.553342280848989 -0.7066479063850862
P 2.425951348943391 8.426595765608827 10.209464213345646 0.05487736876417 0.2536961482407179 0.11555797447367841
