# total energy = -340887.23425645387 ev
CRYSTAL
PRIMVEC
9.14258879615483 0.00000000000000 0.00000000000000
0.00000000000000 9.14258879615483 0.00000000000000
0.00000000000000 0.00000000000000 13.38110285020886
PRIMCOORD
 96 1
Ni 6.454484846512884 1.9639926425085763 11.666113370872523 1.2894804833837084 -0.3751108386054895 -1.1092332962617606
Ni 4.6713508957997085 0.12622715237454335 6.010630445073031 -0.0006677154909859468 0.378450958722316 -0.24007264392001232
Ni 2.752714636366504 1.6051734595698368 5.012119865655259 -0.03325130585396208 0.8901321123870928 -0.886929546289395
Ni 3.6789868788374043 4.460623366369307 4.785978845753829 -0.7424800855923471 0.017867881419356323 0.8212085499425018
Ni 4.967168499264072 4.743668773269208 2.7514355881922965 1.1257919719513902 1.4239846599425863 -0.7815801369176023
Ni 7.51434859664299 6.383757779495937 2.783831437373766 -1.8201749449261944 -0.87549430786926 -1.1827853586172985
Ni 5.163542164266268 4.363135941912003 11.618998867969418 -0.9159099926821451 0.9283777861318527 -0.47806629382380894
Ni 5.719630985910365 8.228019078977894 12.518838057679279 0.8799109488797168 0.014247511057949655 -0.81628617294022
Ni 1.8991534026838368 6.025167161277392 0.581719155107813 0.9487447798239788 1.7065854070327964 -0.5698562193436122
Ni 2.686440010098944 1.4756504039300906 0.23208187410872205 -0.397987743203663 -0.4705213915970155 0.1508399376044241
Ni 0.4078673433746897 0.2599603701602699 4.830631249491001 -0.023040940979863544 0.5768941000269999 0.3703483842198396
Ni 8.669852968291229 2.5053618961721558 1.200330484572759 -0.9046763287498548 -0.13334100948871228 1.4713574927995952
Ni 6.933785064760479 0.912998117780892 4.869303485889008 -0.09407974999524442 -0.5126689714993429 -0.5751799455493707
Ni 0.4286886751255161 7.550781813041973 2.3373979116312396 2.4888504858325655 -0.7530444913717547 -0.28194794399755957
Ni 7.7554386635040125 4.135595191664104 3.930779260156808 0.2026265832584123 -0.6478408635492069 -0.7549010849645191
Ni 7.276239013733301 4.474346392169776 12.617871493903976 2.2176186427009292 -1.0071121640192784 1.0930268617052272
Ni 8.091410517012122 8.7177967039992 7.205335494752366 -0.10296651096191298 -0.2540779570601689 -1.4108861748874153
Ni 7.035258657937972 0.494034414370206 0.5940954775768978 -0.5539115230888977 0.5945346959268987 -1.9312144627042287
Ni 1.6826020441828822 6.407382228975227 9.566430996573358 1.2309770878311768 1.056116104721807 -0.8262936777748932
Ni -0.10050082172834574 4.993727719750658 1.3202876495429305 -0.7052888212540305 -0.744513313972292 0.5640578674942802
Ni 6.513445401734223 1.6914794979152314 7.087127307021121 -0.02788824176983584 1.107718145168815 -0.6680397070945849
Ni 3.3151392720543886 3.932419440588923 0.06855844495174199 0.8343484297585695 0.2898651419621073 0.43761101402223984
Ni 6.067817338065662 5.681926949667101 4.867295773386821 0.4273556548428188 0.07891255533650281 -0.12313810081378149
Ni 5.489685734806019 2.823304564551334 9.542425301140783 -0.23204874517427135 -0.5321445637254513 -0.938063903071365
P 0.3232124565679793 5.588571975350913 12.462315830892972 -1.6822437449636385 -0.9175698968830713 0.4560270546355824
P 3.858318758301908 6.023183219506105 12.7638996651184 1.3950376378909328 0.2500007016670017 1.3815725135249626
P 2.2636044203281656 8.45812889668078 1.4222375715973086 -0.32623031085470267 0.5496969707869178 -1.2224024587882882
P 6.657944017841105 7.751086791231511 5.62227064343749 -0.4613898616093925 0.4791793243823295 2.031267399563773
P 4.775923826583038 1.1126439153173906 12.763203914110127 -0.6699315248006592 -0.24226810890943437 -0.4320679727168236
P 4.081626489931808 6.000857017637519 8.495822876076353 -0.021377951455143825 1.091566989330249 -0.07577066727341145
P 4.762913922709574 1.052202260709191 3.688955957673402 0.5386468836203434 -0.21592407169826683 0.8492376881655761
P 0.293211965654147 5.7135237365867715 3.645025818452044 1.2325395472222902 -1.1648953657107552 -1.1647866080470326
Ni 1.3426988774874289 1.2912626728548877 2.616608002526279 0.09885685966891361 -0.8999740381781791 0.11277244130874126
Ni 2.0295907172043606 6.6348955514567045 4.933023672843675 0.3004642576341922 0.2671982964922108 -0.25766850262490465
Ni 6.213595916605632 5.757536159107399 9.363427126167764 -0.26492132753257597 -1.3399777208023116 0.16303750811188053
Ni 8.647389627590526 2.2744018177101477 10.04047056922096 0.038388369970211306 -0.19146825264874767 0.7775252501219383
Ni 2.4977735474617027 5.192999585404918 7.240943135382006 -0.35031100595299025 0.9641053214404494 -0.1438557929771071
Ni 0.564503660382773 -0.03392083299460622 9.454525709566195 1.2685637878356992 -0.4209592643981718 -1.390434334790967
Ni 1.2349077554437635 0.7892696349275136 11.779023428389662 0.8834595854629237 0.9692482990939694 -1.3028445633954402
Ni 4.230440407955959 7.248216979037472 1.6010090103678956 -0.6257337472375224 -1.1623983103205144 -0.18414549373508932
Ni 5.801283446552603 7.632278849674478 7.880787213094129 -0.8104011749143527 1.0348996185451917 0.25112221686595465
Ni 4.990043256461124 2.585569827782764 5.3025159139566105 0.6841767218657636 0.024041100109603756 -0.1824148841972278
Ni 1.1578540169718372 7.5954982149007995 7.2452118100963565 0.0690523747129714 0.13382077733860823 -0.6852547854212908
Ni 5.326490524587238 4.690952606203578 7.252959239852064 -0.8258211090138488 -0.1834942333043356 0.036558001629691875
Ni 8.072723065489031 7.302679380565386 9.254691574700255 1.2016685686750468 0.054483475759861 -0.4117498299847619
Ni 4.672905135897031 0.34880164838206035 10.507256411908473 -0.14771836125630688 -0.6108313762043931 -0.6317249318239507
Ni 8.544599501624713 7.299241767173664 4.665602950216261 -0.415557119545994 1.2443524806968183 1.6301485669302958
Ni 7.534498862375326 6.205623579165253 7.211116353655521 -0.5358649499998319 -0.2525792610274553 -1.3533459145791016
Ni 2.35290922780251 5.192963015049687 2.7544462426866967 -0.11302492363917954 -0.19293995209826773 -0.23714647141215286
Ni 2.286278040571447 5.2300819256092534 11.584422511357294 -0.7440422878731444 -1.2139790106112833 -0.9985136237169902
Ni 1.1351072560180933 3.430820448239164 3.956831981223443 -0.42757188461868295 0.055820706514045804 -1.0967691023564787
Ni 3.910047525776298 2.7898518321036856 2.8034752036861508 -1.4576123752993606 -0.588648926570083 -0.29420310721582876
Ni 1.1901364980520903 3.2217202996165453 8.304111931366123 -0.8528032940296474 0.5768578474724259 -0.8638335837018801
Ni 3.5314803510127653 2.8155059362983015 7.364651504540008 -0.011775138258057139 0.15038073857981843 -0.44215749574234176
Ni 4.395180715683255 6.875217640857874 6.034087585177138 -0.9367783514907222 -0.19265404542673273 0.44738429135891983
Ni 0.9832031429769144 7.490084165947155 11.76240403045489 0.2198527173287117 0.4081536279930713 -0.14447054374297055
P 0.3151550930516874 5.721377220372649 7.984236519712981 0.3750321628487541 -0.30164259421300954 0.6796796053263585
P 8.856434920680298 1.4349841689131082 7.967095079957285 -1.116274262268942 0.9360905813950782 -0.021121098249331366
P 1.6594347241439806 3.2124588571542696 10.470793024966426 -0.15336476090880685 -0.21027561516323787 0.9230987971211005
P 4.079825399936676 6.440798391067644 3.8670179315525055 -0.4119269789925744 -0.6230502868680883 -0.5216012409919663
P 7.086877714346669 3.952725130330991 10.474539657859852 -0.3129251091053643 0.0009505368387273951 -0.10300379195775163
P 6.229001178746732 7.883133201382203 10.33413235024445 0.193648291019202 0.8533802495790399 -0.6381496044033719
P 2.344114057369431 8.74430106895294 5.518500431951483 0.25815032735732957 -0.984737395868504 1.970952147613483
P 6.739715332137843 4.1210584754597415 1.6841453131736344 1.4464830981554186 0.6993326036705955 -0.35149191363496884
Ni 5.605741757131914 2.9639267230037185 0.20644788360948296 -1.0458224361052828 0.785334461753712 -0.11778326425977133
Ni 1.708512140864116 1.0359010248649285 7.304088253500665 -0.5464656083338137 -0.38929150098124565 -2.0824768325580525
Ni 6.886993295242288 0.5851220266620668 9.020669643246523 -0.4092617734555855 -0.43343811359147294 1.8837858369086202
Ni 2.547609799052883 1.4490363279106582 9.3957150928013 0.7580537716608879 -0.263489737292372 1.1057864753637405
Ni 6.231780525744297 1.9601710403869264 2.1036429437706947 1.152774671187821 0.7765716279594175 3.383516481534269
Ni 4.335168762749021 6.646927198327736 10.665435083648429 -0.824946162608063 0.9014457376276991 -0.1269916702319168
Ni 8.364837920486245 7.157266505577728 0.260514411042021 -0.48097961081586194 0.06263104456765987 -0.00112100097832065
Ni 7.515601131309655 3.853930315674176 8.019361431653572 0.5932398883748751 -0.31234429690122983 0.36309504509153595
Ni 3.4296776246381926 8.359132945070193 12.707377438332093 -1.829105671756921 -0.3837068078046166 0.1336279446015118
Ni 9.042989445302943 4.757318658359216 9.88601201686689 -0.10476962560892279 0.3509275564910666 1.2971552263201467
Ni 8.807549498325127 2.845575910887073 5.978489674119298 -0.015372368691012234 -1.0498642102748243 0.23769154528234548
Ni 3.6810073909639223 2.4134148805323643 11.300877004849609 -0.4211713804089779 0.4162402616559477 1.152252480135764
Ni 1.017122147453759 3.2122668627893063 12.968898448401848 -0.17422617773884833 0.6701338706194523 -1.7073233136400852
Ni 3.2921182334364123 8.574898040933679 8.112588409726452 0.23275605565394109 -1.6303557978450953 0.6233233380238169
Ni 5.6385087954189785 8.104420420885585 3.755085216778918 -0.11237289187747743 0.03328473019505881 -0.8078282719808539
Ni 3.1010289847651102 8.387374401897409 3.4339124717739535 -0.08518116195403394 0.9879211929131244 0.6694155043961891
Ni 3.3992693742635334 4.079011709532785 9.476644374668842 0.17201914278520053 0.8701512983897917 -0.14513954478553714
Ni 7.346417525421781 6.498533839388743 11.445272309702961 0.7373885300020526 -0.5734814748010252 0.6988731475356738
Ni 0.20189487438321105 0.18386934628980217 0.4757647791556296 1.6929637024843038 -0.9451187530356173 1.2145443961964502
Ni 4.478478842310891 0.5235924039857421 1.4717739462755943 0.12095986221554006 -0.8804171990921741 0.5833797077513436
Ni 5.993881222377186 6.207415526571576 0.30126841491155815 -0.3526257701290959 -1.9450835073768369 0.02456740492671898
Ni 8.196120586627567 8.891862452310425 11.05169391837594 -1.4723417110897354 0.4409616756620277 1.9299116847324052
Ni 0.22931624099437015 5.332497205433946 5.845534490641112 0.3269880149563336 -1.3541234161750744 0.15742093325605147
Ni 7.984588509382081 -0.0832121862928435 2.6724335640454333 -0.6826345741896244 1.110563842147726 1.2471043324103426
P 8.562208127668487 1.919696799734907 3.76198969984655 -0.019038247578373666 -0.0646079657883726 -0.7382408507000189
P 2.0179796294184866 3.072165831898965 1.618846201131864 -0.7627126105891381 1.25697274056399 0.24928156411279
P 4.606740220695165 1.102632780572877 8.144997058532253 1.182274480419151 0.2748835809516104 0.347345238456447
P 8.449964564875437 1.5513876096136976 12.539030379320131 -0.028060505681641996 0.9060693524426395 -0.7143465605809247
P 6.3854765861918 7.878827042053741 1.525713391723704 0.26439090895040274 0.020533086956345287 0.4736560805712553
P 1.899519106236148 3.6170824100199606 5.905910318609896 0.4616881095761016 -0.8519478880078876 1.0580981681488422
P 6.7269797059286125 3.824747172199759 5.8984572802137984 0.8016393695613226 -0.7167849948190881 -0.01705798392355127
P 2.6042572793058563 8.429265743814634 10.468959935910467 -0.7498018160647408 0.33831989502938503 -0.26895513128231746
