# total energy = -340873.91033908125 ev
CRYSTAL
PRIMVEC
9.18571718040955 0.00000000000000 0.00000000000000
0.00000000000000 9.18571718040955 0.00000000000000
0.00000000000000 0.00000000000000 13.44422560005093
PRIMCOORD
 96 1
Ni 3.149699783662014 3.3084657211197315 5.078758282361775 -0.3144502875006391 -0.8110807174798806 0.8164563799694972
Ni 6.776257708451226 8.588452756206859 12.240388980695688 0.7845932127123133 -1.1891601517953907 0.7538106801138179
Ni 4.574496390874845 7.902518504082489 11.275631466271413 1.727170687383316 -1.3737026238585825 -0.6517139733513679
Ni 4.110195125268632 8.236722455860095 2.95255408226737 -1.2942537364026356 0.5191388954944027 1.1073589620571833
Ni 0.20100737693891754 6.805661189462691 7.1360337785630445 -0.7378546710051938 1.3816930982632267 -1.0967727019009048
Ni 3.3780291580768766 5.729756495957278 5.033302760404502 0.05987816441287108 0.8965953515139333 -0.679264886386443
Ni 1.513705164760462 1.1462672878658682 9.102615013777562 -2.082936031582658 0.4012638428517734 0.7422209183936894
Ni 8.008007281319497 2.142807384076981 6.443373744246674 -0.2823351521336493 0.2706461458314952 -0.04042494078426586
Ni 6.184587287048396 8.11726220264107 2.183516645915971 2.2214009925614966 -0.5485142633327263 -1.390696844423734
Ni 6.717138432040796 8.880439151368192 9.535626052043115 -0.23282933209403772 0.7654341232853592 2.25415350440217
Ni 7.939886001975221 7.968159639761316 4.018788052620995 -0.6609853713509648 -0.052973981093870054 -0.8218338422313266
Ni 5.245549781006534 2.548494587723133 1.5239031480840883 -0.08532154418664015 0.1525188679687438 0.9859992933000632
Ni 4.7478400616550225 7.882530383282443 6.473408284035235 -0.7144681737604534 -0.32389523496362277 -0.6909333238633067
Ni 2.507636517264215 9.219980004885148 7.504485758645289 2.1608389147077234 -1.4448545614130601 -0.48840161431154594
Ni 1.342575251844628 5.922353430155146 8.861102297923258 1.270015175570245 0.17002473806299104 0.18318981469003934
Ni 2.7121840696426265 3.3681636977187654 1.7179569370424752 -0.5068256253446886 -0.16120354022693528 -0.10863450788096775
Ni 8.814641858495614 1.781110580482032 2.280234900294576 -0.6776510049321038 1.02986102768002 1.7574382280186056
Ni 8.205527759979141 1.771088962930171 9.296198494011243 -0.4593319506390992 -2.5530313913858484 1.0443152554321369
Ni 5.03974378536084 3.9870238422687163 3.611764327110685 -0.10123230187962566 1.2623170355950388 -0.6189102965577857
Ni 4.386979158332503 2.7412384933974727 12.759444469861146 -1.4212749743209072 -0.3147552203355676 -0.01746190423018928
Ni 8.260044992032576 6.05576678792163 11.316958926883311 -1.6959829489266018 0.8333410715399776 1.5761970524145048
Ni 7.473481207112019 1.5137510933468592 0.33062887061245055 -1.1974871836038474 -0.9543837232773112 1.257712704053808
Ni 7.742732952006755 5.996904711595024 8.970000813414389 1.0958743584563513 0.11852425619085394 0.2684522235039699
Ni 2.168747849674099 4.314898834840793 11.861006915622646 1.6857167911139033 -1.25089465269071 0.22962368067254646
P 1.790085026264038 2.5034662016193527 13.15789057257592 0.7003461325367745 -0.32547234964275557 -0.09598082367269921
P 7.086027652265541 3.502780384448854 2.8666850785675035 0.4676530689102849 -1.1164971769130254 0.24823846756025636
P 8.261073792367872 8.927589438163519 1.4698038661668686 -0.6909574922330229 -0.2711660228907071 -0.010521468356614138
P 4.466729555752539 3.5553778015908866 10.792970707538798 -1.2473264757234774 -0.38885569899540773 -1.275583413686642
P 1.9143034810338087 2.659724438259785 7.234310849163968 -0.5697698302773929 0.14938263633260723 -0.5985031936563435
P 7.533068955103699 6.640952092925179 5.792283673478377 1.2988027892258986 -0.033646227299535605 -0.5577306397246717
P 5.045282772880338 4.512244784872129 5.877748505617949 -0.498715080422412 -0.7026236157170416 -0.30956724837672495
P 4.587981023841053 0.4259518145363092 9.03976266186477 -0.9125534175050865 -1.6901048928792697 -0.505387093125949
Ni 6.987703734506491 6.347817483103919 13.413008254292793 -1.1106211777482227 1.673359040879499 -0.4327223184713709
Ni 0.06652755739629251 3.651552261506549 8.795064339257959 1.2756150382555258 -0.21854274026803655 -3.7463467030001927
Ni 5.001476087174723 7.201492118468011 8.777130144841593 -0.3537154036488489 1.01685278834581 0.6220053905433417
Ni 3.962442862828954 5.14551731983351 7.796965426824526 -1.2700848524659158 0.1776478018258876 -1.1221631169495514
Ni 2.906994761704839 8.220123864736161 9.822915789959474 -1.3384792818799143 -0.23853023913355695 -1.7027341516075063
Ni 7.609650280062331 3.9150078187979624 10.530149883311394 -1.2276930177632661 -0.525991656750178 -0.06517617958701678
Ni 3.7599529111211365 0.42158216882648303 5.099569443430059 -0.39461239897352685 0.9427834200342214 -0.2891002387716247
Ni 1.8049107739530428 5.515802769084728 0.49026010263789077 -1.53378696287941 -0.8940648717825956 -0.24361742384847718
Ni 7.060592401118791 4.174752346308486 4.9748476113533755 0.15911451890839048 0.5622894627399477 -0.4528018628300653
Ni 3.327360741563525 1.33508889226189 10.591911890583116 -0.4879645267741274 1.617736309308872 -0.16272203375399075
Ni 8.899995543456104 0.5005380017018483 12.020078737465772 -0.4800288168668185 1.910552049258871 -0.6967550727514065
Ni 3.3139863372046703 0.7838347083168371 1.430761812014095 1.2872688204443703 0.9147730508642246 0.057911013384171234
Ni 5.5619150698274815 2.1602694326251823 5.280676882454813 -0.3990048716142676 0.4743605628374476 -0.7592256804818021
Ni 1.5117669784145018 1.096287800148474 5.774818869214992 -0.8021314787063927 0.7909060423042186 -0.13824564587918128
Ni 0.983670906302627 0.6653316068383296 0.8675882413272501 0.9674372140271595 -0.40863622405644456 -1.5463254616660531
Ni 6.541259503291495 1.10785261820328 2.9854251715518205 0.3062073307655565 0.20205297014312945 1.2492350056001
Ni 3.6580190064712697 5.823386512186537 10.196087391579889 -0.23308798507206308 -1.237109940201792 0.9677475461787269
Ni 9.042309861266357 7.909224077696475 10.082026502977715 0.22527234568238624 0.8641770830842278 -0.608951642683177
Ni 5.705249002255751 0.9799231336526184 7.232321222801245 1.2232678921123774 -1.530195645983726 -0.1366145380336615
Ni 5.769980751923915 2.1367631821071136 9.428596830018346 0.33060967086932097 2.064942423218715 0.0767649128658807
Ni 6.946560906811911 8.073244245438028 7.535018164310395 -0.442286050900406 -1.993140253674748 -1.6804771399815188
Ni 5.679850493978119 4.710068392201995 9.211378499224686 0.17254801870547704 -1.6036253238287865 1.6663044480255624
Ni -0.10242625909604408 7.680876331847054 12.934931168482615 0.5322031848775286 -1.0655793070172357 1.224061077437634
Ni 8.462534943740392 8.976080839681646 6.0572420141167065 0.97554750183912 0.04641689670164264 0.02905500838442738
P 3.079695432275456 6.507033520708328 12.383248011540612 3.527358133443989 -0.32171879613759435 1.8449534374224548
P 2.6019187194203144 6.985848219616045 7.268875784714747 0.46904814948559864 -0.2936788592812426 0.3368888190098134
P 3.8549791563768694 2.1665249060924765 3.313961535768016 0.49451106964339353 -1.1730717308739604 -0.3070254557914777
P 1.475207823642359 8.860331616243514 11.28123842809878 0.6810965402785432 0.290924436464557 0.042844605969352016
P 5.1224979123312515 6.179305499612722 2.154168279208183 0.9026042767121746 -0.03717403794713598 -0.47078698655357626
P 8.629953826875337 9.090975791412792 8.213279586791254 1.452868689966788 0.7225622636224975 0.8087284151976201
P 1.8451625870715174 7.799068956081516 3.2911460511893607 0.07006641779978257 1.1909614666701875 0.45556271340465415
P 5.713966247953933 -0.33762471289246665 4.605050842261423 0.32343217928427526 0.44696931530868833 -0.4279169266629275
Ni 2.3843366342223886 3.4648893006711936 9.133025249402852 1.0268350963695025 1.1556062270993452 1.6552096236639815
Ni 1.8803530699690247 1.2711562999970374 3.346066536231362 -0.4948797658367219 -0.5870928949368727 0.1251016522980555
Ni 8.927773152509108 3.2740652099082554 0.169514145246382 1.732857710465764 0.6637395370573342 -0.8105279303002041
Ni 3.267313707707872 -0.046356640822385886 12.609070603709919 -0.2752018835229777 2.3838252925694103 -0.7896500584099304
Ni 8.62372591055988 4.58786160951642 6.614532132886075 -0.745617088559432 0.4043555944032197 1.0827241942276387
Ni 4.009602335341563 2.4011924254301475 7.753069639661301 -0.5330128252630175 0.32398573779490014 -0.7025891629346802
Ni 0.24906521260145442 7.180263925835241 1.969122004614008 0.6969378781861739 0.2858079411735981 0.3412452962062962
Ni 7.493607113671255 5.867340169368624 2.6586901264941214 -1.1591816031554294 -0.4594581918043184 0.04338633740543496
Ni 2.488475111019319 7.7717598186097625 0.6258826254100773 -1.224863004513639 -0.3037637543210704 1.8214612678377855
Ni 5.582996290983779 6.640061078349074 4.354167776210368 0.567978542704925 -0.6585039996900078 0.049347954305508555
Ni 1.4620538764982112 6.381703594147746 11.280928869426463 -2.156138423908261 2.428873333947985 -1.4553390058841518
Ni 9.233942295149886 5.6919021550487345 4.2885597091137475 0.5503209775241619 0.6771691801996789 1.111699755524382
Ni 5.766747379441554 4.739802559035519 12.05822059132516 0.5011092916862014 0.33382123582808315 -0.7148705514051946
Ni 2.9861205303498735 6.261894283672103 2.4015019841024645 -0.288698889568148 -2.478903659032498 0.7699178700883257
Ni 6.2017462069263765 5.824038698113378 7.306076102552994 -0.07527855812834132 -0.7007492815124642 -2.9722556753707847
Ni 5.456279321114002 0.9468545514466601 11.341024587583696 0.4251216233059775 0.7216958018571442 0.9063945969925422
Ni 1.832440368639503 4.925666362467564 6.565931421332324 -1.0554509603339823 -0.7894875646901371 0.6035554113682702
Ni 6.875610426545572 4.244701583391367 0.8710687096044272 -0.8660650441355601 -0.8030475627627589 -0.401704787043934
Ni 0.6303138154256757 3.221155478378722 5.039232140908376 -0.0733833979881575 0.36700080790384537 -0.7902329274965939
Ni 0.23856134489242295 4.245261912145413 2.3461249689116754 -1.2866563836713518 -0.28772315591844 -0.4904903785197746
Ni 0.7459169859590662 2.615605438166669 11.042132370171688 -0.6082862411850363 -0.6150382151968892 0.5000988481438162
Ni 1.831595282649795 7.9114102784089795 5.465884825673106 -0.08471322117867991 -0.12992915559368592 -0.4902214411291041
Ni 4.93188509306574 7.474950921876728 0.09623324850625045 -0.7483524852127241 0.17826435236396398 1.1151249791558473
Ni 4.278734665911666 4.845732250701939 0.5375757323442494 0.31960766333186247 1.0430525866696294 0.33694744016189065
P 5.409459720140733 0.8773848088057652 0.1331561576826588 -1.3693263491677579 -1.4727924254739089 -0.28559273983899847
P 8.7037518794983 5.55431848163739 0.685912206402899 1.4936543565245826 -0.6700914474172912 -0.4320296632797205
P 7.654926680532656 2.334651089457936 11.89348853049445 0.4257538575733378 -0.19114377942979338 -1.260519063154352
P 6.13836475769829 6.479136497330691 10.586292987323285 0.5993313459845936 0.324231535257119 0.2687450721540404
P 8.871620862779936 1.1937941890696537 4.434496873819009 0.2726644618131046 0.060012633108206315 -0.07334097478599627
P 1.889290772881913 4.457001881153619 3.5381977545631633 1.3361241513841764 0.7262173438765815 1.6339568849327923
P 0.40483568765434896 4.755023292567539 10.36467837223969 1.8813198918666312 0.27916858148020957 2.618693509470348
P 7.23471685786772 3.3240446976256495 8.182908849750266 -1.174838592966396 0.9777661067569935 -0.9734458821150849
