# total energy = -340890.2723558969 ev
CRYSTAL
PRIMVEC
9.07124159831142 0.00000000000000 0.00000000000000
0.00000000000000 9.07124159831142 0.00000000000000
0.00000000000000 0.00000000000000 13.27667901428083
PRIMCOORD
 96 1
Ni 6.3768559458740155 1.9788731759742875 11.452489478739448 0.871961612125653 1.0257359497680527 1.111904929556653
Ni 4.465318595051722 0.3223139078277719 6.089415518608593 1.4658476187249592 0.511381620146487 -0.31292279511251914
Ni 2.538904408280449 1.2388503711683465 4.77708174196958 0.8309574017991496 1.4603747685358464 0.66834155460572
Ni 3.5637006953707147 4.490690857337876 4.788685674009784 -0.3031240638545425 -0.23805252816619 0.3529654128567018
Ni 4.978106801978443 4.650879909790936 2.4109518265053693 -0.5211155596047992 -0.8121387264307497 0.17224128609833564
Ni 7.146568923887888 6.258349247802394 2.6355004297964832 0.41076741146683454 0.10567413970106318 -0.6390890854985058
Ni 5.003089000883009 4.787520019485734 11.352635974425072 0.8642058794396341 -0.5928555084522629 0.5984854530445306
Ni 5.7508132896649755 7.8524657184255 12.613070457457443 0.041581680096528385 0.4243230386640821 -0.6106747960218708
Ni 1.8572459708499534 6.308449714233009 0.5241463083241098 0.5672061833152747 0.8826769416606283 -1.012751364582927
Ni 2.4277272732861293 1.579874621574389 0.2641073800532491 1.6703580492696462 0.13628415127743626 -0.11316684853368253
Ni 0.800163321253831 8.889499110207943 4.416713069209149 -1.0285225113742547 -0.5068814182832884 0.38438789303204124
Ni 8.510847350340704 2.464964719365738 1.4676833217879377 0.15750732232227066 1.016742488020191 -0.5102750173458697
Ni 7.220662823906948 0.5194492195104626 4.977599719582377 -0.773503787667371 0.6536536135762421 -0.40269157643723547
Ni 0.6533870063825769 7.3866121146695205 2.411668454578521 0.2543391811413555 0.3164680892616163 0.021535560078930652
Ni 7.861264822614835 4.077631878717907 3.696838398748499 -0.01831833869321361 -1.25376168982586 0.4610738730308705
Ni 7.401380095721311 4.360083123195561 12.71243320761033 1.5675200934657971 -1.931042198792423 -0.004427439643734311
Ni 7.978574116817393 -0.3379191644637648 7.1022531881186515 -0.47646681054717294 0.9399338664005683 1.351867273151046
Ni 6.918690267866975 0.7884958905236014 0.3536042480243619 -0.19723420859824742 0.15338712950631003 -0.2241379749676269
Ni 1.8556222186335707 6.41656076962321 8.99978272792118 0.3728878628122417 0.8498879201550653 0.8037371326306159
Ni 0.016958685857692623 5.1242717151771595 1.7184532555632699 -0.1963392075878038 -1.5998535154911802 -2.2069647625315083
Ni 6.113817158061491 2.1670742219703016 6.890928640587552 1.0986367516928368 -0.18018368087386388 0.5334131460252297
Ni 3.4511719454029812 4.1705213909847005 0.28818336193872757 0.469768829701707 -0.31269422404148084 0.9568375841344425
Ni 5.95759223811435 5.352114086232343 4.431622561627284 -0.23367985301979108 0.4194435990845937 2.256985831644642
Ni 5.429582488064221 2.8247029408466235 9.25555817271886 0.39864748827484897 2.701243661559438 0.6442698583684968
P 0.2137320550072344 5.803154352729371 12.555011790918268 -0.7447418850433303 -1.860043498986358 0.1312391326543611
P 3.964613281712829 6.195240621157853 12.714411645366717 -0.15596388909455075 -0.1277552878708187 -0.5917846439855873
P 2.1735420171115343 8.52736608098893 1.3573679547296866 1.8173734709216571 -0.43727985593506624 -0.808883966938878
P 6.294289506357182 7.947232977668781 6.128355636705046 -0.9585170287193944 -0.48438298007045605 -0.9855663195277028
P 4.652884654147475 1.1947641378073481 12.567239824369013 0.1748563551236795 0.19023669423449174 1.511216790888378
P 3.9522219659163014 6.11518691551777 8.415157545843757 -0.09623073489997619 -0.0038772235672191293 -0.5452942137335319
P 4.655996089958755 0.9861255848643526 3.731702808069417 -0.4785020958096468 -0.2651475846107692 1.302888272149182
P 0.24725119922374147 5.750105732833256 3.67720188241999 -0.1488830709883694 -0.21468068620946898 1.883605345466698
Ni 1.4191594371182563 1.21772344987251 2.426459113733893 -0.25138421227808966 -0.29829784611049276 1.052920994823277
Ni 2.0150039305991547 6.550497649371182 4.667748790358448 0.41036169138798356 0.2432754671280262 0.625175303630891
Ni 5.974800383111431 5.557296496189631 9.301959386893381 -0.29301859998942437 -0.19050640295611063 -0.8605299732499437
Ni 8.70307602753266 2.437506071550153 10.172697873614682 0.6247024777595306 -0.5153053806809256 0.47530415769763945
Ni 2.391995653284283 4.997247121400605 6.8904233724397725 -0.3555655694837102 0.83208174521158 0.5293950260047722
Ni 0.6206597815431099 -0.03805022931194302 9.186054320864544 -0.37974345228149436 -0.7637528789281943 0.6268287800739141
Ni 1.2815668470730666 1.0227915427337262 11.41264677212048 0.9868495571155005 0.875946050694698 -0.016270712135565527
Ni 4.04075728229559 6.837357517184936 1.5369086865302803 0.1794797128283038 1.2486914743918043 0.08864880878766024
Ni 5.664745350955274 7.99151877834129 8.325566336961748 -0.2374740299549007 -0.08457309605638982 -0.04528586842099298
Ni 5.180903475439035 2.815677055621481 4.806409972644363 0.21673371208375578 -0.13128824072474166 0.1610238201159614
Ni 0.6181016914592 7.360214802101515 6.666950618382529 1.3730451927802418 -1.195479152034883 0.1302240611262854
Ni 4.931535048464994 4.852080044759441 6.972805665755528 1.2857518695792116 -1.1511080821186757 -0.11163729926303355
Ni 8.211097248451644 7.118892566277927 9.27980106544669 0.40428000397027797 0.625239066989291 -0.8849292280299147
Ni 4.810388619136572 0.21514444729824417 10.546423042260036 -1.052908653528103 0.13896169810959938 0.3628980985893815
Ni 8.041310822563208 7.293341610262569 4.813234267573885 0.029695727292219823 -0.6068898750581418 -0.1628053374964164
Ni 7.236700778759261 6.267502130407588 7.269672019993258 -0.39668650789373616 -1.2057751346442525 -1.2203509755758983
Ni 2.3850742960714353 5.130930006388471 2.585765534395589 0.24854699993961069 0.6855208945984839 -0.0696846089803316
Ni 2.468148725108477 5.001655744736705 11.586278497252072 -0.8490453696491119 0.7466149336963271 -1.594822637935492
Ni 1.36201061609474 3.5588112962387024 4.010937390335177 -1.0594425979918787 -0.4834872077290641 0.6387401867995193
Ni 3.421554342126508 2.6109754214601053 2.858336382705178 1.531959165642052 0.528064994339439 -0.01850294390019394
Ni 1.3438499907472672 2.948978948469191 8.16122719155341 -1.8142683496337724 0.23723183203710757 0.521394781408115
Ni 3.6682376816365876 2.7628461455197417 7.042481871197056 1.0419596107157667 -1.236250163304658 0.25245559096539744
Ni 4.281752953427614 6.854393308594803 5.959528948160146 -0.09668427749762704 0.7077879335268004 -0.04267491316070715
Ni 0.6309130057340432 7.346236019054333 11.238668525566174 1.225009300283516 0.15555585502285468 -0.43196178615626246
P 0.1885430317980122 5.515224078426605 7.922194537067336 0.488717602890068 0.5173540356798381 0.8347808893102978
P 8.57957107543184 1.507223048943065 8.109262585008455 -1.0338835185758515 1.0019439895547777 -0.3388032624237068
P 1.7839412688355034 3.184169025084541 10.45942076568281 -0.4831599062966324 -0.010409368258782073 0.5262122574014163
P 4.028538320086276 6.2512373945194675 3.637531529388238 0.08438154887087403 0.24099232752080432 0.8073456759174805
P 7.111989351547944 3.896170765106094 10.398693339914248 -1.1221307210497191 1.1567190005475498 0.7108010093215112
P 6.511273601417898 7.94557294048667 10.416669819060646 0.2876041138420724 -0.5674926042074421 0.3518626667108262
P 2.5382331364144584 8.397166552711068 5.9839587084614845 -0.9166946933669696 -0.9437452697268585 -1.4990277050213536
P 6.96650478145665 4.163237184114561 1.610846561196705 0.1358627474693015 -0.08173896904170438 0.6847986717204787
Ni 5.451362538743183 2.8596725765681565 0.7761889372723944 -0.3178585418512397 -0.8813307120453789 -0.6348925309186549
Ni 1.1507867593435377 0.610998909417706 7.002638257453947 0.7809838980945002 1.5135446676906061 -0.80147019097331
Ni 6.855182506599413 0.9283327056991428 9.440129815017809 0.8858496829616551 -0.9606505301226294 -1.5287943947608251
Ni 2.6323200525503174 1.3687596197203742 9.477052489019718 1.0329008429476083 0.022305091255103524 -0.9947009348391191
Ni 6.483833096085178 1.813994291700727 2.990253096986175 -0.03511612697684275 0.6392670058372668 -1.4969829066771831
Ni 4.13724807741101 6.912095475345689 10.481964614890371 -0.32599016981943857 0.42411735041117926 0.013094371290112932
Ni 7.950516767067276 7.270817717786158 0.30748787083081397 0.5723545602854336 -0.10266414923014576 -0.20484595950723433
Ni 7.644416796175604 3.6957326144179015 8.24974345832569 0.6414583570616308 -0.026675452408657284 -0.9945376697883774
Ni 3.4073578492849523 8.396141502429218 12.582667284672933 -1.3813043474652404 0.09442556337043738 0.3308711520608237
Ni 0.1527624270924317 4.8460204554826625 9.999463468857826 0.546080199969937 -0.12609769766273765 0.54224334272235
Ni 8.745856002127407 2.3176205447808216 5.633294449785333 0.14544602028236242 0.7765785699379529 0.835391012090471
Ni 3.8150466529769984 2.7280307209025585 11.211916527458168 -0.14238486485853544 -0.5755414426538475 1.0460193826074373
Ni 1.1426317132958963 3.631063734247005 13.00471949204889 -1.4936983223886404 0.19577665021611446 -0.5932365459407654
Ni 3.2614650733292043 8.456927891267087 8.008638932296478 -0.3993337157085961 -0.6427310531264673 1.4481589431959447
Ni 5.666296533240198 7.861790954617908 3.867403137151828 -0.6726970033609382 0.5367715209745014 -0.0822246504288713
Ni 3.118511379597523 8.40193802570446 3.2671255279829623 -0.29601213540010957 -0.45668217172107806 1.5343418069416155
Ni 3.325308470529761 3.9316665328307003 9.129322776946914 0.37598732767317183 1.8481207794068428 0.002639494505376099
Ni 7.427314774976268 6.056196632483496 11.15639327289932 -0.467605246391485 0.48486531902351343 1.4846616661076688
Ni 0.5889893563305063 -0.0370923062166917 0.12312123858823464 -1.088887642725873 -0.21388518689136712 0.225937747180527
Ni 4.585158765613892 0.2679191157031033 1.680296892726569 0.568174460765815 0.7469964854054618 -1.627859770896119
Ni 5.860656952168747 5.719798715207928 0.4373644629136855 -0.0344520110302826 0.16550396737450207 -0.09340920629078107
Ni 8.17363302133623 9.082399059265892 11.423134941464511 -1.434217393414188 0.03858248825888839 0.10292871574544207
Ni 9.150161232765203 5.019045314562432 5.876363806708782 -0.4680173942282391 -0.7990654381865593 -1.0510548881488158
Ni 8.233194792580738 9.14526276239176 2.33405309863544 -0.6795561923746167 -1.1787638961627311 -0.44635867830788284
P 8.577511903626707 1.688847444900659 3.5495069239015877 0.7268112687068385 0.9041741923024557 1.9195447396757845
P 1.7410977955507307 3.2693933383410383 1.7625857522555728 -0.28213126365295926 -0.05436237680096444 -1.2853934577985282
P 4.6722063983982824 1.115300062860364 8.560444362871827 -0.4633451855635504 -1.4388523210830382 -2.81508799577612
P 8.710351163161368 1.9710991220668028 12.503166017636076 -1.3518243357282527 -0.8800361616036715 0.48828771444150104
P 6.4279633201036175 8.055770381406301 1.6773759529853671 -0.6991454273604539 0.016144985190978647 -0.5804545636847487
P 1.8238638023790739 3.027064194718465 6.134131296124993 -0.32922975980265884 -0.2553321411822441 -2.357821412306481
P 7.008114565906629 4.187629752326027 6.090530374180624 -0.9130406415541501 -0.5157098152081957 -0.5600235495239065
P 2.4345579180846544 8.456111479538182 10.393581695367144 0.0836690961848817 -0.7414917535371488 -0.08686034942866977
