# total energy = -381174.71128085826 ev
CRYSTAL
PRIMVEC
9.20282324357387 0.00000000000000 0.00000000000000
0.00000000000000 9.20282324357387 0.00000000000000
0.00000000000000 0.00000000000000 13.46926205259458
PRIMCOORD
 96 1
Ni 2.376205829148707 4.53679870740926 2.734988024915521 0.21462386482960458 0.9844728293532078 0.8069918921224875
Ni 0.8067287074909949 2.055588662560615 8.381719944131664 -0.7144401487359954 -1.311137913752484 0.4005123093977296
Ni 6.520853823200758 7.394468651612625 1.91911355146812 1.1879411917866252 -0.0018044001985904408 -1.4098793308894557
Ni 6.598323191102781 5.890313170887267 10.462236294603448 -0.683041836930372 -0.9113375428201144 -0.7985859274469794
Ni 2.407237749862133 7.3617526142056775 5.813805498037009 0.3987539319457261 -1.7015871824872568 -1.1972650402907123
Ni 5.805150242571121 9.125206848792686 0.02743361673983477 1.404183566056259 0.1607998770306134 0.21792824661248922
Ni 7.885025156247611 1.0339740272349531 7.552619172804863 1.2450803600017781 0.6410379816947606 0.5508714507109932
Ni 7.207080760282026 2.753355940263068 5.943231246357712 -0.2820860122373206 -0.0950984210677459 -0.36572631206679596
Ni 4.384464370644924 3.276674496422311 2.6611758590572463 0.4660664411494554 -0.14354160417079795 -0.17278635996852823
Ni 7.993811732390378 5.117082740797479 5.300962515824414 0.17358160217631396 0.39491964580130057 -0.8120736775207691
Ni 2.0924091592315572 3.8357552245543816 7.921542880026657 -0.4346010235513225 0.3419124974766499 0.07301778711862263
Ni 8.991922356594424 3.950578852888135 7.000406511822386 0.5880879118602904 -0.699517208877576 0.8208943611361926
Ni 7.514703540141958 3.087528865810495 3.3834244877329653 -0.6772645681269627 -2.1752751447377117 0.3893490936920585
Ni 0.5954659312532663 6.377437022370975 2.417530187621889 0.3109862402114386 -0.5809536148083543 0.07966383168023054
Ni 6.634692749424092 3.1777993611479785 11.187542101233198 0.13694029680419642 -0.09242807332443437 0.14890029737955
Ni 4.7079436153296585 1.3683494148985413 11.979454262950583 0.6860865372939667 0.6641362582751207 0.2658592659658131
Ni 6.3918486439122635 3.9856416102778596 1.4086826292848795 -0.5399046672868444 1.9744915282253093 0.8026127892181854
Ni 4.218546666450869 3.6700491852999484 11.941013149068006 0.04099649701701972 0.6061355133906206 -0.40899489294744407
Ni 8.391382908766628 8.53612491617492 6.100632657720153 0.6868779228470107 -1.0253099179742278 -0.9500455009132734
Ni 3.986736746269822 0.53656970166199 10.054871473499073 -0.822924504192344 -0.08077686223875122 -2.060810403328212
Ni 0.39684323304041624 6.934631171693362 4.7498679978925535 -0.10825809837815549 -0.7095560811708167 -0.794871968930502
Ni 7.7388475083792665 7.844744397955005 10.425693723201054 0.35688840206019184 0.32186792012094895 -0.6386304006945324
Ni 5.549146099508819 8.52023164005627 11.168173838975347 0.4200735193591088 -1.3695294663174995 0.4473051013815522
Ni 2.2318963544431223 2.7121548996242755 10.483517823859021 1.8836421122419043 -1.2854438514204896 -1.5816634748457148
P 2.8418594934958725 7.216706913623143 8.722546511042022 -1.1744182175995257 0.0843866910771966 -1.8401688715496178
Ni 2.8186223642546504 1.292775828629664 3.13223618218826 -0.22749737835816305 -0.23929128566929755 0.031702987530235725
P 6.552419507674973 6.887521918392049 6.209222293440836 0.24286589039443335 -0.019785410157043343 -0.032894693845491735
Ni 4.84933579499783 7.807979118224835 3.6694307555633108 0.0034691894955230576 -0.17039471980790008 2.0125333134893792
P 8.619843001207553 0.5211752185749736 10.126461157491308 0.3997468919866148 0.9545798984485173 -0.6926297377291232
P 0.5864664901899035 7.112043202391294 0.1243835213459439 0.7910387112273409 -1.0057718479413 0.6262214855072182
P 3.399615015049434 6.095057587266952 4.154580601414448 0.2315970023488334 -0.8518830962082232 0.3212703957462661
Ni 1.595916833463665 9.068407022386026 9.788638392158902 -0.11089527889068643 2.494899777350439 -1.4129173463848312
Ni 8.793334629110728 5.30118522415219 9.051829056201813 -0.5223766857054101 -0.8478492924584817 0.44425603014258325
Ni 3.5515444275814474 5.498548976115457 7.277644329458261 0.12341937949962616 1.9019108286441053 0.06762001314181904
Ni 3.636771775661826 3.7661910820061055 4.997258298194546 -0.5797313123654789 -0.7720688549930574 -0.3788466514988379
Ni 4.321415827107653 3.3875040993736123 7.339266435358944 0.4591445172186415 -1.3199555120441138 -0.3422302858273848
Ni 8.222906819650172 5.635726262638093 0.8824182493354916 -1.0320402947195257 1.0517287742873886 -0.6086369396562357
Ni 0.5351745536251704 8.526259489423795 11.889775509161698 -0.6717431240881012 -0.17628691692261897 0.42956680356152466
Ni 6.418785308185157 4.721987123932472 7.273091692691675 0.4348892442157026 0.793874380903923 -0.03932373730028711
Ni 8.443369658502732 8.623312465652678 0.6470063440514697 -0.3445807883374324 1.6011843184874617 0.6044059322940236
Ni 7.505482311033164 3.116692613361161 8.884149931597154 -0.10940763860156642 0.41970045229040626 -0.7504319934495721
Ni 2.6246452513253526 6.699876348004517 1.0822078655633067 -0.4724268361498444 0.5634703704219264 0.34230304804684925
Ni 0.3196508701245961 3.870716750886026 1.8460164449928318 -0.65977566731358 -0.2758755125512346 -0.4009522251486256
Ni 4.188250971614392 7.91572577531641 7.126196224593304 0.9292488758828964 1.2014744503863697 -0.3296416505290968
Ni 0.2120118860675248 6.36142410954732 6.971797694526471 0.35014208447529377 -0.6426693466505965 0.060743597736959906
Ni 5.581862136915767 1.351453031022548 7.617904922725716 -1.2823243319549011 0.0357190506681643 0.4560188271054663
Ni 8.421623386662333 3.7380212393893206 12.898933202649372 0.14088591171550577 -0.37393507312983343 -0.4864879422286009
Ni 6.593427289021066 8.226155416332212 8.113977599743746 0.077645258588305 -0.1738363984995974 -0.7980992176185481
Ni 8.971400060274453 8.095171629999415 8.366109194693294 -1.300263175821509 0.8783042665142293 0.7037631286381235
Ni 9.12433258056381 2.624672859795738 10.664827250293056 -0.8007888486355693 0.23300699532248256 0.7686598293115084
Ni 9.065986679815554 8.49778595363277 3.0891752509278234 -1.1720854557012912 -0.34746967984945315 -1.7304789258209423
Ni 2.4739398143137676 7.865818863682688 3.171997901237616 -0.3501366851586551 0.10184576709390847 0.3834206440227655
Ni 4.810978426808756 2.783025843104137 9.650053073646601 -0.5927320955005211 0.8501419451474004 -0.17303241454106327
Ni 3.510987584584986 8.374330076891782 12.90535861399045 1.3622822978367828 -0.37017740585961406 0.2936006977451395
Ni 1.4579665097702326 8.907431234390994 7.124296761830774 1.0705294519336594 1.2318576906639171 0.43331521486036345
Ni 3.664168581107813 4.685000976439215 0.4663825279653453 -0.011361704869722369 -1.0005795051070832 0.8960757315650375
P -0.00011227444623481522 1.52827608101892 5.566253228042089 0.39000318233628967 0.7761293982156763 1.8240922777027295
Ni 5.292249282570715 1.1614055237114687 3.5449211555359392 -0.3851527962225238 0.2757382156424219 0.5325950209993087
P 1.1441134184266146 4.55057533413168 10.594086986906351 -1.240577072814786 1.3913175087268683 -0.4372191779004599
Ni 3.0398122261606986 7.524964688301943 10.82857308815011 1.1228128347184083 0.6554528715685098 -0.42692396662203896
P 4.6512634256280005 6.402422688069953 11.736980110941923 0.6670259211180899 -0.4469775428388044 -0.041040977101709966
P 5.071593184425455 4.970564588461045 8.99772289622244 2.7205976406060177 -0.9511970980192136 -1.7177532507241577
P 2.9783649739057916 1.447935432196794 8.344060149960999 -0.3431723380256799 1.0559289284116653 -0.577174093161264
Ni 4.936863848943677 6.7110669813341515 0.36361091723725714 0.2345108335615187 -0.22864331903714813 -0.2221384280390948
Ni 7.198522134462487 7.293329621766674 12.628120796354574 -1.1714131122246147 0.8054219765322065 0.7721932963860636
Ni 6.514467063718221 5.040119528185859 12.559871737278998 -1.3690921216697647 -0.05705586447272755 1.3085693816943593
Ni 4.0873144038846005 1.5276226805531272 0.8393453544045548 -1.0165177736038946 2.4278153249971157 -0.7567916171190128
Ni 5.627682994932417 4.831970067125281 4.774368674795091 0.8192341998249503 0.5941659997335702 0.3073895239991158
Ni 8.825415671698806 5.99982677008352 11.820449719741084 0.8885136029470634 -1.2176963115618706 -0.6785773734011152
Ni 7.427506787840739 2.0505915294208195 0.8642794842921457 1.165177158617232 -2.054536911614675 1.5695900886209484
Ni 2.3371674520234547 0.740783115127926 11.846956612158309 -0.2616251732798075 1.3303250282038959 0.7985401618107086
Ni 7.73364791312331 0.9783889735252579 4.150229506481676 -0.6671267083620124 -1.371568351124399 -0.20174392354314288
Ni 4.2985560136283665 8.821881787489449 1.7800441644417238 -0.3910683903760104 -1.7435298454676296 0.40787594885165235
Ni 7.787309576729474 1.164902596626979 12.177169562770093 -0.5497566203802596 -0.9548688904438459 -0.9583409081528462
Ni 3.3310447774350394 4.808346419298661 9.962055477192036 -2.055155004814648 1.1778025606907265 1.1005897616541496
Ni 1.6985467207104408 3.7310731076756087 12.519382995176155 -0.010323493413195124 -0.4597975774216082 1.3234195593333142
Ni 6.469621704988527 1.197719865092008 9.796073353233748 0.9096457569399883 -1.8655726563347033 0.7064843842240285
Ni 7.123997670068262 7.150004849171507 4.0685121152696535 0.8029521748354752 -0.5101102096332312 1.3271648853083595
Ni 2.0587544338314983 6.100275588169833 12.262712567695214 0.08711514575195319 -0.6636660035069215 0.2504434456313751
Ni 0.669048946807341 3.2646832174514944 4.392973301217769 -0.6440150620452134 -0.697821823453024 -0.20522931098858205
Ni 1.2180857134131264 0.027735469349384107 4.648174958074197 0.661675455439454 1.125311689880862 0.8151044939272929
Ni 5.071289491251214 5.684077897106758 2.5648977605638534 -0.9704855139351802 -0.6773226750584078 0.24474536680533332
Ni 3.590021432475526 0.23378576637830947 5.220039328277151 1.2537233803887569 -0.4358924886692364 -0.11834222208703489
Ni 1.976803290903545 0.04425177661640238 0.874166997819579 -1.0909825775816888 0.0693627068645386 0.7593969159523438
Ni 4.918117697551847 7.146526181902921 9.202860273163946 0.2576057677077693 -0.311892811186108 1.0544739411326938
Ni 0.28240152188033063 1.6758801665238545 2.6773387779033286 0.5986289206009303 -0.934898617969506 -0.9636864887354758
Ni 6.2603402966421395 9.236321739271308 5.801548257468145 -1.7558516002577762 -0.7138999599618092 -0.7221925389879047
Ni 1.6312372699103226 4.860176721035913 5.5415105168825045 0.5932473445740428 1.7516131366963963 0.8616877410034708
P 5.140540737801786 2.0802246209680413 5.56594401317377 -0.9057664764902402 0.3186717817811544 -0.27068368393764997
Ni 2.316866023466569 1.9144633647728369 6.029609867653171 -1.0586365571508156 0.9218965492828831 0.9282003800137241
P 2.207941404971874 2.625528722377692 1.5381764784992 -0.32288350586965686 0.17157048528355612 -0.6201068879690481
Ni 0.48312522468952557 1.8112536996479636 -0.0731826927334834 1.2242575097191561 -0.41739700096821025 0.7387676697377664
P 7.647840787164832 4.971135163515681 3.0048175696645907 0.38300052576621135 4.613605767443854 -0.29164074580529126
P 5.766038242858173 2.824254492213315 13.310055536573227 -1.2046962997577768 -0.3673116542760448 -2.0204427981444426
P 6.5738160722238215 0.2681629134201252 2.0955077498911687 1.0672471816379618 0.43496149221453484 -0.09261730651710501
Ni 0.9726188032146653 6.949733004994291 9.835659298354981 0.42671442171439417 -2.5321653465701166 1.0200430131483336
