# total energy = -381171.9425360196 ev
CRYSTAL
PRIMVEC
9.17568710049099 0.00000000000000 0.00000000000000
0.00000000000000 9.17568710049099 0.00000000000000
0.00000000000000 0.00000000000000 13.42954556423029
PRIMCOORD
 96 1
Ni 0.8295564508849286 8.979657872117906 7.191159521939297 -0.07405985522989181 0.06902666368135853 -0.19776437007010458
Ni 8.284948238695682 4.628748841093986 8.338781078249847 0.6172712182924659 -0.6923402315131625 -0.7453368383148519
Ni 4.3485233523377165 1.3373197146126816 0.5103471372586558 -0.12380427364287065 1.4820512250680153 -0.4483625961117891
Ni 3.009753879138804 8.693532416456911 5.178688151287627 -2.2076700161286498 -2.303379588417833 0.8901673365004024
Ni 6.861542226260103 1.0663891970453478 0.06709813061817611 -1.9876501770944541 -2.345087252569265 -2.5016183270211947
Ni 3.596851052438777 3.812837554725412 4.6955469267389365 -0.6589058631141168 0.1396453544401853 -1.4642360512634656
Ni 7.5433324920278135 8.27324006175878 11.01201295705035 0.6108681429795996 0.038789976284004164 0.1741891538533258
Ni 3.9330757605100275 1.3640668429599156 5.362820337701103 0.18034488904207652 2.3102143519514793 -0.9633684432744247
Ni 1.8149050605286963 2.7547982330817735 3.260075803132249 0.4989097129317215 1.6713147567559603 -0.9629141293458255
Ni 6.10454802775348 3.0533108665365125 0.8746503658977866 0.4681302656570196 0.9388845992004475 1.2272055366038863
Ni 0.17197531836982274 0.2705203643470522 12.280231488517172 0.2655481624832975 0.18418637427535375 1.1064760452315976
Ni 0.6304972564456269 8.049857955544917 4.710318865650159 0.0528557103484509 0.11110148136422157 0.6073603869366572
Ni 2.6628853738521876 5.534178132318689 11.81305779492898 0.19536475948967646 -2.259979109945011 -0.42491464950149405
Ni 6.143544698585639 1.9613673804870322 4.895203458418514 0.18901490601224868 -1.9359100684076855 -1.3205034141277838
Ni 4.684683830598185 3.2828590345854844 6.570942705493753 2.492816926679481 0.10616676306676555 -0.7139259281037383
Ni 8.736759079113455 3.4477277831766 4.480593606837172 -1.7939257814216782 -1.7034046953119695 -1.8091310284072069
Ni 4.808693243844452 8.801979864119334 3.8729199548687014 1.3815043792911883 -1.586868930306054 0.24442089358637903
Ni 5.599802647563774 7.907836668217819 1.5223199210404457 -0.6979876596069269 -1.470739656709938 0.4760196957074254
Ni 0.8613043287859334 7.54658068531595 10.693021107212012 0.5561391268678357 -2.7701762228650937 1.3634416082522065
Ni 5.094075468837821 4.817859755411822 10.298299557755072 -0.11903204906520791 -0.9729051791202663 1.6467476089395572
Ni 6.129973857136047 3.4648404399064763 8.58306448246102 0.7027051196872544 -0.4183845616924601 0.347171431882744
Ni 1.1957021575247884 5.634284880266656 0.5544601713039944 0.5062448131405538 -0.39411077674676 -0.1823007272168667
Ni 7.467018301131091 8.671657578041884 8.562893569169178 0.6555374608625162 -0.4154658453837684 -0.7666186305117636
Ni 2.5050084989490973 0.21335308004455747 11.286351324864052 0.10223683188474006 0.017539294435343987 0.17287763413075385
P 0.27876838962023526 3.0943995940627267 10.251752213881081 -0.18802991639116004 -0.5614314856150266 -0.25888283464797995
Ni 7.164064635045112 3.1618225440097163 6.425648450522932 0.2767183201675041 1.5159314227552279 0.7471975456726745
P 8.06624573298168 6.566984314012108 9.34006143367382 -1.4567502844093814 -0.03945254956866754 1.66441185898854
Ni 4.425700057836374 7.2041532126605725 11.382077599716661 0.15606107679404738 -0.14480041627856352 0.21837484723160455
P 4.914057660589319 4.6880880105696505 12.437693622356353 -0.6234729762278036 -0.19709794013069926 -0.06224460776251861
P 8.30856645768909 5.094194752772132 5.721107068207377 -0.735643779396804 0.7334621983644529 0.6745047459936384
P 0.23770810672451056 7.591862701917528 2.709975000842927 0.33455888532505607 0.534247211890751 0.9953887049347631
Ni 0.31454531179474643 0.16811418917307624 9.912549077726977 -0.9925970011222389 2.9650175057511325 -1.7618468986092626
Ni 3.356824249545023 3.996690800246348 0.3391609279927309 -0.3151740530405411 -1.4318398943209472 0.7898644884135816
Ni 3.701518116952293 8.436714105887193 0.21564241401458661 -0.7779849633671763 1.9289758031816973 -0.5799889369022398
Ni 8.065493326626799 7.292505905235364 6.437426362682968 0.013287718247841631 -1.3889137843813821 0.16828718654659405
Ni 2.5895716326877283 6.330159825970218 9.609095336685623 1.6504006323111124 -1.6223321562096706 0.25931298020686305
Ni 1.343513303509554 4.52372392477754 5.0937864346893 0.511847504039312 0.0625503119283955 1.3536210226173593
Ni 3.462812613023204 6.3174973775588334 0.47867358242441327 1.3190682243431542 -1.3426722369153392 1.2769489265756007
Ni 7.598083817876165 4.646008308819938 2.307827567690818 -0.5751303232583579 -1.5193273358106545 0.46035602102823947
Ni 0.6812617461818439 6.538365345464929 8.428275226319112 1.0880391786826487 0.7760612639819022 -1.9242588573220019
Ni 6.304770699336667 5.65099380675733 7.476913362266479 -0.10461664497082628 -0.33670678490599426 -0.5795654762115761
Ni 9.03903374434259 7.044055821441863 12.905833515812455 -0.9108053244657281 0.8860545998836096 -1.652467027921838
Ni 3.0660283690714243 0.6774529184024487 2.8183114226895674 -0.5020629138487225 1.9247566228940274 -0.3725219948323907
Ni 5.831644737426401 0.8006713874073667 2.234099085462449 0.1228380530748594 3.02290949297191 1.1747468045835383
Ni 8.088450896137873 4.507317795966269 13.386302780232597 0.49299926098455743 0.15050672263472145 -0.3982065440826884
Ni 5.907243224717262 4.194536968830588 4.373653724590685 0.7202341297099532 0.7971869902169239 0.017660907614872812
Ni 7.788029719734172 8.94278996072882 1.6089264803306815 1.5341870265313062 1.1510381481126886 0.27278967453705927
Ni 4.9484389607324015 8.873614454516197 9.175119279584669 -1.591521598586717 2.6650751820586813 0.3404130301129879
Ni 8.207863290069572 0.38727914952471365 5.94205027674896 -1.0827864149241417 2.1002189870328216 0.6543185008537505
Ni 5.004484058483655 0.3900878273933546 11.632430721046772 0.08062105338717729 -0.5907698295678278 0.8966375176057784
Ni 0.17895801637059294 2.696569321763919 6.758566240907614 1.6873304154579263 -0.02883646461571808 -0.2612996716195887
Ni 4.08294226043983 7.668158541439741 7.311017854271571 0.27082663727341744 0.22245364528666847 -0.36641253950054314
Ni 3.624680911882057 1.087612561665297 7.633514816641177 -0.6276793009996674 -0.9903089764190106 -0.06304344951473013
Ni 6.919449988524045 1.1061749769814049 10.296379086412678 -0.849143328679557 1.9661961209857364 -0.1450410715344599
Ni 3.8546144587957234 3.1808712707503193 8.528191119972185 -0.40538069323362447 0.7617733866043203 1.3993372937075512
Ni 1.1991522159325274 2.908279953789898 12.36740327014229 0.8036049779281257 1.1095192029332956 -0.5365385790280888
P 2.488079355964313 2.890222201272795 6.445107330483816 -0.28395314735304644 -0.44060274966071217 -0.23757738830198438
Ni 6.048805727681628 1.26062932053852 7.557207966294258 0.0890936096345627 0.33189136579522194 -0.43936347793697234
P 6.213729530396272 8.521534158868953 6.65584442209208 -0.30554192926741575 -0.9335639583184825 -0.6926323088322845
Ni 5.371208750989282 6.6270300114063785 5.467275443839037 -0.2817034320869213 1.1378023661487051 -0.4281843213917013
P 1.0587458495622446 3.6471246429068715 1.2802707966757716 -0.17430973859159013 -0.6263140452210246 0.2855960822731081
P 4.532294016673361 6.518738550427285 3.379894680009328 0.5271648511226728 0.4467595132907274 -0.061165515765726916
P 2.1690131830592128 7.402577449541854 12.505579944509702 -1.0796751229886696 1.8279000814845938 0.019069357926625223
Ni 6.89250099505721 6.146618553815938 11.570977473227641 0.6659290885094854 -0.9368313162158447 -0.7101808592390092
Ni 0.6007882162525997 5.430529569090438 2.8213329765025157 0.34565062436284344 -0.39046598090532114 1.1074836605605056
Ni 1.2689241418167014 1.3352460092931364 5.038872699176542 0.7768819601109846 -0.15635469677506622 1.2967950147672505
Ni 2.6893755829562926 7.717954996170595 2.641914340631741 0.6129967592868282 -2.1966294420437715 0.468159062012426
Ni 5.745439155669192 2.6228059719239827 12.117908993139215 1.9188497704912888 0.8058438945609736 -1.4519279233200737
Ni 7.17492864875459 6.355659060850822 4.110031641921661 1.4552706145400613 -0.36513135879527436 -0.6446346979070833
Ni 4.23566239910582 2.776140881636033 2.483082276685444 -0.4386546247954058 -0.6647114140523004 0.6072788829664445
Ni 2.348966761496932 8.403002630913697 8.729607548467198 0.43031113792671705 1.1020172381292956 1.137050832694661
Ni 0.24514408367565924 1.1034039194305079 2.9656867235297386 -0.22248758384839748 -1.3702619736081498 0.30787006317996013
Ni 8.22273707910932 2.301904661567957 12.074504322149933 -1.006035643125648 0.5142972511313852 -1.34053436463673
Ni 2.42943753872 3.7009308729679966 10.10628362085242 -1.6848773259317433 1.0811640488293703 1.676479074565719
Ni 1.2142003430301136 8.541885833199713 1.1255999068994476 -0.20519614375780143 0.7589413164721639 -1.839095435979781
Ni 5.952048105581601 7.086575956179799 9.440809562160887 1.063984194615974 -2.651208708489234 0.7441057941212281
Ni 8.500063050693129 2.015705800408926 1.0665002228611287 1.7708285332825824 2.122243570933029 0.10721783003909922
Ni 0.20998927309701168 5.123217451558513 11.19458711176799 0.7903758808323614 0.5595396679089525 0.14222057136652924
Ni 7.44642805893171 4.091567406459178 10.519725407446249 -0.7388358039715405 -1.3028934143555047 0.11882404681945986
Ni 1.9255271460704642 1.6869225747011767 0.702941142458348 0.33725442987934817 -0.4778014701981964 0.7437584380841384
Ni 3.5959151323388054 5.448422159236958 6.462109878966637 -0.09319451917681369 -1.12045307623698 2.437781177960576
Ni 7.400742312090929 8.837453071045717 3.965704504387477 -0.22678518278248685 -0.19162483283127 -0.5843772957779226
Ni 1.6929051227911927 4.190398733878752 8.026880199521884 -0.5739499297970114 1.2662773057943675 -1.3437749830612147
Ni 1.5582977907658333 1.862985661742935 8.769157513240811 -0.026329381923148206 -0.47711370010255255 -0.1600146621251567
Ni 2.6740521852410675 6.347786321186353 4.670258732665188 -0.1581351857142567 0.7741591618631829 -1.5751629547230355
Ni 3.6153859406931206 2.7565507893474073 11.720340227927164 -1.3686835733774363 -0.9404360028479675 0.8216091278150301
Ni 5.999532287124288 5.974675350351507 0.22214797627811625 0.15147397164399717 -0.43756679104786583 1.1042700387192144
Ni 5.206679502826589 4.804958739131819 2.150433333937321 0.898610067951117 1.4653755641845474 0.08451653178684154
P 1.8432395827709807 7.034907661249001 6.543022006746652 0.38415289420309967 0.6988484649453255 0.5456449122047312
Ni 8.302739896282402 1.7762387144377034 8.5236115344634 -0.0841025841778745 0.8395274028563477 0.25258414612346175
P 7.483112456575704 2.2295268405034694 3.097994628329089 -0.626426916649805 -0.04215066522612096 -0.33513609798476474
Ni 7.971112207525719 6.826013965210192 1.4791171151707658 -1.0254253605061694 -3.2189864480372625 -0.41433970219912514
P 6.658153942574069 7.9982905931739205 12.939152271371453 -0.04450296750838142 0.15947113091686085 0.704328000002658
P 4.341247032344799 1.6590468368216236 9.979750893611131 0.14292479652240547 -0.2933613280408238 -0.30293637332376866
P 4.434132514423375 5.731675624787254 8.62440095354311 -1.2353255946078596 0.5234056411905567 -2.3594748887495043
Ni 3.0363266694282003 5.008814982867839 2.619151295690465 -1.613922849100053 -0.060615042578895606 0.05093612472823486
