# total energy = -340874.39046068385 ev
CRYSTAL
PRIMVEC
9.15284534354343 0.00000000000000 0.00000000000000
0.00000000000000 9.15284534354343 0.00000000000000
0.00000000000000 0.00000000000000 13.39611434406024
PRIMCOORD
 96 1
Ni 2.9455778338651863 1.605107025307348 12.62350724577273 1.1234417265516587 0.5635557310468811 0.08179167665651074
Ni 2.0457799161046335 5.1829634139076415 6.633849571988453 0.8974702979197189 1.200009435805069 -0.03690021546045903
Ni 0.06933188801770362 5.169929762171353 8.383180726863367 0.31030078410863976 -0.9631858949499733 -0.10363705466637635
Ni 0.3533712215619873 5.684887145589227 11.543927309659281 0.3567637035568694 1.097231129594562 0.9194252049242553
Ni 6.63016555174698 5.474014742251905 7.371654026276361 1.517385381592935 0.36775696934357954 -0.15405793032108953
Ni 7.003372819687398 5.117117844672489 2.3831153526652327 0.29174024749763305 1.239407220876401 -1.0955815098062809
Ni 3.327654208921097 8.38956209062077 3.800838921581072 0.026254819931470913 0.07825409581689749 0.7640120461268519
Ni 3.0278527604505054 8.905636121167735 8.830624892628705 -0.6060532380894595 1.022993354025909 -0.7093509071385461
Ni 4.796420450335362 1.7463079700655777 8.738513403177523 -0.24643843823704012 -0.924135465915731 -0.19406969482733674
Ni 8.112880729429577 4.468464849659137 4.278477408773967 1.116839647854109 0.3179066214803557 0.18415860636121184
Ni 7.5001709579895435 5.880327851716307 10.10568031568145 1.166766614591539 0.3842572809914479 0.3104859035362524
Ni 5.914943912718162 8.610530082346521 4.76285422069176 0.8675452282255123 -0.8340244707602474 0.7244682223959588
Ni 6.692194384483516 0.3932062349655504 12.128841720430243 -0.48285317368949104 0.8078917782289377 -0.9903251743689266
Ni 6.305148014418612 3.813999797867314 0.40148040713521654 0.5834889796356983 -1.2144713768666697 0.019440368112798777
Ni 2.3628619365401913 6.331782794301056 2.7459625149874585 -0.6929228434895099 0.16044892144909786 -0.6127584180237771
Ni 3.801497011159611 3.651372042213964 13.49243261626748 1.0073224802578717 -1.315174802826019 0.4516950029191317
Ni 8.273485706267111 7.09126759329946 3.823518757000558 -0.5050343377722206 -0.8300513450451122 0.9231941850483842
Ni 2.5667781774339877 1.226389744484034 4.920754531737109 -1.1015369560587676 0.330193923488141 -1.7271719729348962
Ni 7.39169143525184 7.650771874891851 13.240156401838677 0.9370634868313088 -0.9742174701737868 1.0303269115728448
Ni 1.2563287015271511 2.238529685707509 0.6976948555247325 0.5619199952156709 -0.17274342254573474 0.6789373278436953
Ni 7.5356839978328 2.3695709721600644 5.075506263992231 0.18331297053146495 -2.1923338999922115 -0.4496072671521676
Ni 4.630067486636599 4.780833154754675 2.1286827278789344 -0.08129622507733096 0.06943238376020945 -0.4139902892795064
Ni 9.023332559143107 0.25587511320879736 0.9650091948149997 -1.3680245996371987 0.0982873603186888 0.3513543596158401
Ni 9.205474181019605 6.94768690875792 1.6920499030060856 0.03902060423757151 -0.3307202283052562 -1.2642551331580163
P 0.3766331779438529 6.909839893357953 9.722230098542944 1.3831838238761405 0.497657328581859 -0.7984350036914121
P 8.40863662026854 3.748840692031193 6.567953662104037 -0.6369501847786321 1.2266980008398487 0.6557387782400449
P 0.30810857088341104 3.953873580054082 10.209231946498635 -0.477006742211043 -0.2622296396330258 -0.7000676820644073
P 7.121929625122891 5.449009168836497 12.486076358001984 0.8583018552503735 -0.17492063270271166 -0.5553210018419146
P 5.053487264004879 1.8737796468431667 12.771199388432207 1.1892290573601132 -0.06321905586064595 -0.01677490546549369
P 5.72226736587785 0.9096234972120308 6.5232777088105 0.18248764641669216 0.671814857866301 -0.1590322436072293
P 2.2130756228714015 6.769490163214522 4.924773546117309 -0.4810163775910683 0.6546465736171306 0.7306805218542577
P 2.8038826354596535 0.4999403101006475 10.848695484810277 0.511795567755454 -0.22872096635261902 -0.7937828496313813
Ni 8.544821805791175 8.266456321061025 11.040219688424749 -1.2478437816795285 -0.4387512982742702 0.5454258542153897
Ni 4.505936598400965 0.20783365869093934 2.0572951108022632 0.1540414752608573 -1.2364075148181288 0.8481966484955715
Ni 2.5042184796688685 7.36834252683943 12.799705925182677 0.5582178637737354 -1.010620691393169 -2.0602249631383875
Ni 4.685268296764095 2.3978349585095438 2.1593868627908397 -0.6296323109609802 1.7617489395788175 -0.04188507026956012
Ni 0.9943376570752444 2.4961182115602902 6.029416718571681 -1.0156410274258958 0.971356603686224 -0.9808349754903043
Ni 7.229512169019192 2.689005273842972 2.635538012619165 -1.1493476477841431 -0.19756073869973073 1.322771384226354
Ni 7.868829261805708 3.209719796967393 11.799766726771331 0.4464612653240182 0.7417365225581032 0.17341293780893363
Ni 7.638388075173313 0.1278890465242004 3.3245669541945166 -0.2986886537910082 1.4915082567158573 -1.184277626892109
Ni 5.841455717640453 2.24433258964066 10.622422503936805 0.6319650728592148 0.41446414359213135 2.2864763849045913
Ni 1.3795809166120232 3.5237905312925304 12.110515893529685 0.6323427679136078 0.15447727724669524 -0.3140404536567301
Ni 8.447380614509907 0.4406335335624078 7.142178464825272 -0.6122542246938488 0.19427409752865896 -1.73887229209096
Ni 3.792618751198796 2.2784543969952122 6.826096850383237 0.6734986733266272 0.5315079585827168 -0.2884379225972774
Ni 2.587106646890657 3.947375059876579 8.39330835021042 -0.10435953465469767 -1.4266331533090268 0.5492971642453379
Ni 4.549339390910432 4.7250374096813506 6.661392314126682 -1.3788908529277415 0.22481211821651603 0.5116801252235124
Ni 5.083526902346521 6.986943462337231 2.9203260489106597 -0.32513836334210455 0.8955941639429286 -1.5252336739927603
Ni 0.7499347201910704 8.380061437178165 5.729558522460102 0.6802115665704285 -0.5233873863581116 -1.1909591526773424
Ni 0.46323648508120263 2.4990105106815457 3.148703268923297 -0.6410480089970896 0.017374743833021688 0.16919247196968282
Ni 7.267057140523583 3.4649011245009023 8.976092893875318 0.6809916392695626 1.4183863399192025 1.2338536380480234
Ni 2.183978727597763 8.782457128845424 1.4050111820502977 0.794414312567793 0.7948735115923988 -1.379202213520573
Ni 8.006561278187496 7.455358627300732 8.22273592481894 -0.6587976196710267 0.14029635776062288 -0.6001589840922116
Ni 5.759180791055133 7.150001401720641 11.624263663605737 1.9007821143563006 0.6783668000522058 -0.5337278490521712
Ni 4.853104021404767 1.3360774428040327 4.291164167672611 0.1800173304993287 1.5246886001225677 0.18397477248517993
Ni 0.5319688617304182 0.017237553591960452 9.128929850889406 0.2901998995937067 0.3322083828150085 -0.1583583574686563
Ni 2.0557199061226177 5.04749215032 0.40386746919478395 0.4337281340280659 1.4707890218906348 0.7872316787764249
P 6.091300936352153 8.41270963643613 9.925489165142734 -0.11653885032970897 0.4559555779676986 -0.3571323997501979
P 3.6566989981904534 7.014621666586203 7.803745209301214 -0.12065775759408898 -0.6406898543267224 -0.40320142619411853
P 2.442693053424957 1.5843300664299784 2.6012038592531788 1.2932281233515985 -1.618794061149425 -0.2299589525247782
P 6.920338206940483 7.722649169193166 1.9457988102469477 0.40444763989639376 -0.017824429775930593 0.5814439241812116
P 5.188189688585606 3.923769871795197 8.862615002308129 -1.6029272693204974 -0.007869375445747737 -0.8868819808809113
P 7.237209711933671 7.200186452612543 5.958122460517277 -0.002282625386589617 0.605826209680318 0.8707189979678037
P 3.60777703995277 7.0880824031279515 1.1377709808071261 1.7561686172775623 -0.18312630844195557 1.0864391811853806
P 8.350177397206972 2.497362998523869 0.9516789908903295 -0.17834251390006706 -0.12283265375822071 -1.719457377899458
Ni 8.990565372895977 4.6604823916363785 0.3835847639647174 -2.1459725391188527 -0.5348681333042015 0.6031342646704516
Ni 6.253132394462625 3.0988696872917 6.8673972343226 -0.49451929717350956 -0.7613172729035081 0.2219124280712178
Ni 1.1106245568712714 0.4355582808322309 12.128426181252697 -1.1223371806335702 0.7946140872834251 -0.1073831519723699
Ni 1.02467018646714 8.678261137717683 3.2728314113053343 -1.1303626220412082 0.15954954956328005 1.0399950307902281
Ni 9.011159274866937 5.987352072048061 6.050784035972218 -0.10809894709247189 -0.25156238972716677 -0.061865884266861196
Ni 6.176440703522767 5.942027182021306 4.5590194401213155 0.9208521671787688 -2.1134115744636954 0.6922456149168272
Ni 2.6745620839273383 5.930183400176674 9.86736310565083 -0.632479293491472 -0.18294915943414297 0.14018065811836503
Ni 3.4597297668948612 3.243978897001752 10.506693012420794 0.5610540476709499 0.23896372712654973 0.7046306188447412
Ni 5.713947429481582 8.16201320310963 7.70410550457398 0.005518615825384044 1.0425378518167399 -0.6643697144421655
Ni 3.8925495164072204 7.814388137839807 10.674037229267759 -0.19986881800761705 0.20421783900493215 0.370825066745942
Ni 5.645932635905488 4.802287424185756 10.784126737497324 -1.4927223316286162 -1.862759355255624 1.9558145206410962
Ni 5.386540999524582 6.403074306501862 9.227886753355735 -1.4945341880263743 0.1787577470606147 -0.7925260944061447
Ni 1.27858842134643 7.363985772466907 7.694098698785157 1.273757930442129 -0.7992330741126752 0.7978055976375292
Ni 5.098244677621768 5.785870488009499 13.243238164858065 -1.72875834358541 0.14589056401894873 1.315975187240127
Ni 1.4637504821786713 4.559627189050592 4.489118245124681 -1.6888064857828204 0.676329715017519 0.2968654845393403
Ni 2.381497129612581 3.7121194766056393 2.4740744988905736 1.7030704519010025 0.37967223272392675 -1.010804268158885
Ni 3.765672774575459 5.192427455968963 4.25330616885826 1.0509258187701194 -1.1521753470409255 0.7027251742919124
Ni 4.4740938495312 8.813887999675773 13.196230981861413 0.4232660581544775 -0.30424326506065025 -0.8779965054658233
Ni 1.1833713714780263 1.987375610114988 10.273105077567237 1.325366141536724 -0.0167489373235647 0.38909069782434924
Ni 7.204323538697375 1.0721826065254771 9.019898411578883 -1.1050246574970517 -1.616826653010409 -1.2866116464763455
Ni 4.438004180432755 7.0428490415544 5.524303220295927 -1.6552841856556588 0.06616142631842153 2.0671720838801817
Ni 6.459712113344667 1.1534690258161908 1.0533899845135763 0.5298125731581649 -0.7838321661765727 -0.9294957017863799
Ni 3.6374871758628764 9.16913738509751 6.594947233523041 0.12552357032682254 -1.7250757525275 -0.24991636948331153
Ni 9.226342668350181 2.435526375539063 8.258476870510675 0.15676324506739456 0.9273920251798157 -0.3530322615388952
P 3.373079780246377 5.060891915869105 11.95226777436216 -0.4621933313472943 0.6267182226379787 -1.6090822331783
P 5.874762921761486 3.555578363090374 4.105506937908534 -0.9365909180702644 1.1729056376097413 -0.17537597507257538
P 0.4904625387713452 7.81189856391265 12.947384338574173 -1.7418645419500645 -1.218476641371321 1.1911008204615292
P 0.5609943648105569 4.895271179795976 2.6045528853559228 -1.5279271616645236 0.8515784204836108 -1.3112998932516449
P 8.261129365084535 1.3629410438194867 10.718672910041885 0.9522044562378054 -0.5915825552771102 1.392762725813827
P 1.9604479391822913 1.545384709591561 7.661492602615668 0.3800296160633455 -1.3825842426189285 1.6935627695208832
P 3.0125858144560334 3.437341907241096 5.354976497152557 0.30969297532131174 0.7380179360559354 -0.5612193696042205
P 0.047713782655386734 0.9467337085637028 4.5809487422245265 0.0886791478049634 -0.6097029190269048 1.807322514443558
