# total energy = -340862.8410001022 ev
CRYSTAL
PRIMVEC
9.32738437185294 0.00000000000000 0.00000000000000
0.00000000000000 9.32738437185294 0.00000000000000
0.00000000000000 0.00000000000000 13.65156985466787
PRIMCOORD
 96 1
Ni 0.26430356167363456 1.4393180092468045 13.110530427500748 -1.2071187931563403 0.1890069355924487 -1.3409202872212391
Ni 7.590261630879774 6.606362490796442 5.971729123858565 -0.36049308869231467 0.033124807578426826 0.8648239726396074
Ni 1.3511182626607687 2.27518223202187 1.0922665571503678 1.3654372985259966 -0.5355559033998455 2.642608111304417
Ni 4.603782394320626 7.866855886935434 1.7374491958087193 -1.253581198383938 -0.05732660163561095 0.07243517514227525
Ni 7.646104681092401 4.616980643201679 7.460801266802411 0.13900334998081224 -0.8165250284239034 0.4285949265665587
Ni 6.393949966578612 7.386281062130831 10.653985601084468 -0.8228892800790344 -1.2159739295541252 2.2026825902163876
Ni 0.951122711413353 0.23911589292565116 7.330797116216381 3.770936219414099 2.1716066947471893 -0.17838108044748632
Ni 0.572702332948103 5.195539640794597 5.4429354528239315 -0.9370161785331411 -0.3523573469590577 2.006218684125261
Ni 2.549332713373051 1.8785911760688605 9.753241025382392 -0.891224317010007 1.0942288524331285 1.0587350304018928
Ni 0.3751147534451473 4.133467692321082 2.792551722682289 -0.24613761916716964 -1.9942617688737008 0.1091484714029088
Ni 1.8934403719830917 5.64746074081998 10.14827627362278 0.0882482309151319 0.8569980488372855 -1.9755991594671911
Ni 2.9380607843036386 8.874222726089247 9.225376361830834 -0.3871654557771784 -0.09430369308059242 0.5961053828481282
Ni 6.353543737495416 4.263855198404648 3.068340092728532 1.2043414875215195 -1.2642489625104292 -0.396100296372963
Ni 5.078956663576021 7.023893524656141 13.004853960823947 -1.7819215578719505 -2.5584242802666455 -0.924339611506737
Ni 6.924099839300388 2.296523287456393 8.990896178936195 -1.278658967288172 1.2087861535564344 -0.08749464057855899
Ni 8.453930786456551 0.6902991968475071 3.3928108800079073 -1.9267888228327077 -0.7969108537374017 -2.0931304556171564
Ni 6.322548839239769 4.946507805547075 5.334678098892442 -1.4327330955591777 -1.309734605647054 0.2410766597044945
Ni 3.9983791845159256 8.195898025293681 4.498711274889326 1.4507940668259465 -1.4297927819839311 -0.04360565250509264
Ni 7.106496840621236 7.97001675804812 2.142941374664336 0.7603633936306712 1.3092278412139646 -0.7939404582551681
Ni 8.195991299137363 0.7570384974791065 7.882962414262503 -1.3034577714994067 -0.26683499961552115 1.0482210182444465
Ni 8.397490783644358 5.602297545708984 3.866998311997143 -1.87644328050062 1.0728897246357199 -0.43970363488521047
Ni 5.010045947863495 7.146203515876814 6.629325578372602 1.4557902344889573 -0.27222171784873117 -1.3879599051085452
Ni 5.654838701855255 0.025598073660185797 8.176348760396296 -2.166943742053881 0.48491571264547456 0.5483119175139332
Ni 0.8584766006989792 4.6474438805483365 7.934032641893904 0.9565740460604105 -0.11406184954412614 -0.37648560746582904
P 0.6907879517884027 2.3668237834397847 6.5581455100432855 -0.9791149074754041 0.513768889431741 0.5722530017105628
P 1.2605680152139374 2.898867115188312 11.61977935537062 0.36210182794033124 0.15710365912594879 -1.0594557106180014
P 1.8803260695613522 7.200330327365685 7.907985921045606 -0.1413854770597436 -0.47184679527665835 1.4474837715057909
P 5.497177923878968 -0.13773282127355108 3.1645156856878462 -0.5444040978190947 1.2218440151816572 -0.06405415016743163
P 0.5892481800789161 0.4327971638551899 9.739698596018151 1.3855746927058201 0.03190430490776441 -0.6915727572195186
P 7.190629847622721 7.180295105742716 0.10056319456613218 -0.2500150998447049 -0.9622685253420267 -0.6738902523380911
P 6.239050094375324 3.83933795365314 0.6748828959636873 -2.097120036392524 0.44586708338344505 1.0844121234530226
P 3.1448115862099484 4.104692711545074 8.47750201949352 -1.007489344853039 -0.5021670435267545 0.3556141633334585
Ni 4.493551365856817 9.077009389639057 11.3294244091565 -0.09493155647257843 0.04847635033383264 -0.0027991600116919536
Ni 3.104162845133178 0.8974687983119514 4.371587420596206 0.5920309556684384 2.389335166644046 0.05964316558392955
Ni 2.1809663225183225 8.907633416896267 0.5204950971622148 -0.3706543454960326 1.2858156329376114 -0.4264040895628269
Ni 4.491144900689813 6.984550617390923 8.88935640722671 -2.589261577362476 0.8161172514625235 1.4509300781831787
Ni 4.346122728532485 3.263129456921017 2.075339290978675 1.4054056113888183 0.7371815561975692 -0.16780227649037552
Ni 3.651167301408355 0.9383535222132384 1.8550022210015926 0.04674136992059692 -0.18253829714896952 0.3959275182405246
Ni 8.764346138231431 7.980230243931338 4.714200903210235 2.492219402304798 0.5871132066518469 -1.0258570487269494
Ni 4.356233613187652 3.564823704311598 4.47636379468147 0.25459937678127764 -2.03879610384065 0.14973667723791634
Ni 5.935695572567197 5.833374166047653 1.3966237727780797 0.19639988562241015 1.1696354514989016 0.06511473022146205
Ni 2.2072975285898515 5.090298762967795 3.9634192151653416 1.3717753249288827 0.788113824271062 -0.8383614075727046
Ni 2.0797362199698615 6.695653541353561 0.6894811852384128 1.3098014543292475 -1.375667203784121 0.3521912536948386
Ni 8.166861877755364 5.856879174655607 12.304391645968812 -1.7718682874010068 -1.9831808284691912 1.442393244356761
Ni -0.21736536531736256 7.8236980794636075 7.429894045959827 0.3057332193426154 -3.2793906601569325 -1.1492494316433821
Ni 8.58953230040196 8.11581310310801 9.630404036944913 -0.16425646812064615 -1.8451863793688674 -1.0421714696162567
Ni 2.1646713820270147 8.29640059186142 2.914828135319237 -0.870281653320069 -0.7302141237408005 -0.7185001777379819
Ni 8.72196250366217 5.302160971507899 9.883490486177308 0.06523737184225538 0.5557295501342429 -0.7622721806176098
Ni 6.741460325985966 9.109935056458928 5.246162153976322 -2.053914190429011 -2.2241477020686986 -0.4179379610733448
Ni 3.392938665173752 2.93075744234331 13.57284130097391 -0.7014892450022822 1.4005251433680654 0.03880771689581704
Ni 6.585347893814807 6.490740234167794 8.663135623190144 2.606559445210975 -0.5318717696800388 -1.4923562065384492
Ni 5.0898976854399605 4.9774840490339844 7.61615631536287 -0.8677192919095313 -1.537873731354274 -0.29521509342011093
Ni 2.1699320268106996 4.422140911133606 1.4300978897988037 0.00572173297512563 0.46348608201678887 0.029511379195555628
Ni 2.323274225824493 5.128009377968572 12.279108837900273 1.2341927665549968 -0.6214505464811362 1.077734711432847
Ni 2.0482283155739616 7.642690858413628 11.859883018300867 -0.7794993431291736 0.8442453771573073 0.9708724649609538
Ni 3.3620090586086833 2.0107602125667587 7.521591561683951 -0.18906041453820344 0.01785065502817571 0.7479539642227248
P 7.412164553752684 0.8320651791218833 12.392348880561274 0.5848069271161734 1.102823536080675 -1.3249709629808344
P 4.656286240929424 1.3741848842034152 9.642882211752738 0.6791363312283787 -0.49226443970106193 -0.04426976845165279
P 7.931037618773264 2.826449302953331 3.1646518654996223 0.718974032050607 -0.3982466532920045 0.06054510857290864
P 0.09066963796674468 6.914436669094896 11.220743591974694 2.3954921873843777 -0.0329142342295175 -1.5078666434692225
P 3.9789036059550495 5.19721856998088 0.8421462161470723 -0.16727082946693775 1.2232213551451578 -1.3151655468546382
P 0.5143809967088362 0.367170620178721 1.7965605615039755 1.1185381186024543 -0.6446784066608252 -0.2852703235025732
P 6.5992923334453195 4.807949510756934 10.2247934712876 0.47459401900449233 0.5749678295385647 -1.4080559045274719
P 1.5420498206785516 8.924441363527828 4.90014883976007 -0.9685332753048158 0.5700117710848699 0.7411749936276785
Ni 5.009570251260715 1.2249467343116456 6.109240886122588 -1.1476622896619202 -0.7552378994786477 0.8731561466543865
Ni 0.10671367181854674 2.397315002939547 9.286521097318365 -0.0250379168052343 1.4878166667968828 -0.47206379638347085
Ni 5.969470031364578 1.7079000421301487 4.19034981315233 1.3733228719216606 1.6120199756503852 -2.3531551171790634
Ni 0.5815810701282265 3.920280995200689 13.328997356911998 -1.3393879097371126 1.1142721442372487 -0.10602792349605612
Ni -0.08060165927967117 7.4165857339432275 0.6742439701344631 0.14428002499871925 2.7563586002557106 -0.9256734998268124
Ni 4.391845566705577 2.465638093436873 11.570210836622504 0.030180894458754475 -0.7426508068422565 -1.7896094134345115
Ni 7.913856576766973 3.362354171830308 10.999397299008969 0.29424887285209966 -1.0997788357170801 1.0677603738289547
Ni 8.402835374887356 5.400854025508199 1.2862546990256214 -1.1565660199094532 -1.2659240362200068 -0.7092125817884689
Ni 0.8760008904500203 1.9152851061734992 4.2028680957129385 0.9328543338459676 1.1984174087276007 -0.062333310821582964
Ni 7.959999147236634 0.5747832724006564 0.8122071778019095 0.5516654073671983 -1.4589904865938101 1.2502112534704404
Ni 5.6657424141817225 4.426776621164619 12.050800585242097 0.8853398332047719 -0.1406596546373126 3.1134889431233796
Ni 2.0824504888210176 7.013941205535233 5.746137005528419 -0.4930242006852219 -1.8443299449058428 -0.9826532596459656
Ni 5.918943590241845 1.5405387844108973 1.1399043073342574 -0.8570628406369498 1.048328747466904 0.8754164034434729
Ni 8.502218655330907 1.043202649896575 5.571205642655907 1.2186373353189013 -0.12038599198994106 1.5369802730057274
Ni 8.168009146032656 3.3323946132395346 5.317913990967412 0.14556480524841384 0.421121501007649 0.269653957121555
Ni 3.255788805423216 8.50579104354394 6.908773081306503 0.8356041565425415 2.6965393141052334 -0.016327533515429947
Ni 6.024053884687493 8.9260643284079 -0.20046880853430377 -0.6010706972732036 1.6452525124512696 -0.12896833434231336
Ni 6.94238151266213 0.15778296671151032 10.16624174865444 -0.8879852412474191 2.532942076835141 1.446580285854915
Ni 7.713849473758897 2.8195004015989955 13.575857777078594 1.5761122060101824 -0.7240671303027981 -1.6918460439400929
Ni 4.4066387983135975 4.7808721139359465 10.283195023032434 -1.4286987775888038 0.4189172942674785 -1.541649139236306
Ni 4.669372561198058 5.69614968722217 3.6500750646988345 -0.6650420579188417 2.281619313922606 -0.05511185337247927
Ni 2.3454081089303163 3.436450913251571 5.777740049244874 -0.4115045467431751 -0.4487400340558659 0.24764839938474126
Ni 2.2133230188917317 0.9679399854292818 12.180913866225236 1.3563412497619995 -0.597768372372848 -1.6577460169325902
Ni -0.12404675019003898 9.00891015636657 11.654004326832984 0.4164042980376377 0.34164715963040515 1.1441563333911908
P 6.5482528861823335 6.907357184359405 3.765798989817097 -0.5686136051857626 -1.9073181157026053 2.507240558303979
P 6.159039791264599 2.9541411949544765 6.387856386370844 0.7903877079069033 1.0016501124634425 0.5492670823383509
P 7.077432710929813 8.249689050945296 7.247741422109427 -0.25747078479180174 -0.48188721023179587 -0.28750152682593716
P 3.720217927886403 5.129977456070269 5.72680600142525 0.4913730382350441 2.365962810466693 0.6593455217546967
P 2.545415211938392 3.006589077257065 3.1521746234302337 -1.1147393136816544 -0.969771261476975 0.9401593521478131
P 3.7713133394555975 6.874683356917476 11.06108861922048 1.500607390803648 -0.6678347901726306 -0.8032990166519327
P 4.067411156225237 0.9687887774067911 13.29570046019427 0.8394587544019413 -1.436776669500932 0.35808216525797687
P 0.6239059421759692 6.483735368507248 2.5030287791538193 1.2552017647064964 -0.6934285794813349 0.6339283672331728
