# total energy = -340868.1594937867 ev
CRYSTAL
PRIMVEC
9.22677470336884 0.00000000000000 0.00000000000000
0.00000000000000 9.22677470336884 0.00000000000000
0.00000000000000 0.00000000000000 13.50431743505796
PRIMCOORD
 96 1
Ni 8.206966840644037 0.13782309950808197 9.466458474021637 2.067110891624943 0.7866490668000774 0.904026868091314
Ni 1.494027015702112 0.6979759691422128 8.467382402908045 0.057014469711830836 -0.13929774129277947 0.0837238606822171
Ni 7.774738586779144 9.006568350051353 7.2095765012410045 -0.5706301213951591 -0.6731484890760601 -0.8564349772449639
Ni 0.6761491112631907 4.714014479007326 2.296152970626717 0.8057963291524897 0.26065535316737043 0.22306839605253195
Ni 5.268589763425077 1.1091413420609497 12.822997587301739 0.3771389247791118 -0.7071325593309886 0.8983853535348205
Ni 3.722348430536041 7.623299536065417 3.266964663256708 0.8507672374362252 0.8020327483449994 -0.5863940690976353
Ni 4.187774619237223 2.9327671982916517 3.4251134244242833 0.028651345188105495 0.31558465821539844 0.9013146113664735
Ni 2.2424476066722714 6.8771210513112715 4.951587315514191 -2.0019961614034814 0.9403503851126966 -1.0890043708093955
Ni 2.528117773561182 2.6623119826381605 5.881413675586431 0.7139369838473317 -0.7268603767772192 -1.4175569020393717
Ni 1.5151286491013864 7.640221440592863 7.0234466235685575 -3.1179773179120365 0.8239871411289036 0.4798691513605026
Ni 4.2309559241382315 0.24718344487970478 10.306656868778086 0.5792890826217378 -0.8563321331185122 0.9535067199889965
Ni 5.224531914941676 7.560216078456829 1.0020517059064504 -0.45505492053030017 1.2209338446625617 -2.1315946731306257
Ni 2.2566199323833716 7.957770113557197 11.466637738617788 -0.11385384729837812 -0.0006528030926504886 0.5185190025222167
Ni 6.525138055720749 3.0014789883766526 1.5001674341661335 -2.4181474628900483 -0.5464802636218331 -0.7266189501903745
Ni 2.7151537204945857 8.045636687611106 9.108067483505101 -0.188875552220907 0.2597474966411204 0.6856425077780127
Ni 3.5684181506934096 2.998775543433064 12.737163671681522 0.8524356262775835 1.6926119755718398 0.8125133361613491
Ni 6.210929475144057 3.653848856265724 12.619892289809446 -0.2615015032177497 0.4358966024342944 1.5801907469549303
Ni 6.222582891402598 8.279313979902328 2.939241625994437 0.22961905268685615 0.30309398194755544 -0.0022900815857573465
Ni 0.19871612083814416 2.580618120759202 9.337613948829619 -0.7179353063734474 0.22222995931163658 0.29099334202927946
Ni 8.575733339143735 6.0667057621296 6.565542101481755 0.40350533058778254 1.238579582768783 -0.5720259733014212
Ni 7.527977728173898 7.7432937391076395 0.06203806405190301 -0.24616538708131155 0.30242240980182755 1.5649556751727307
Ni 6.240492060807054 3.4203745530146343 7.529210425253977 -2.0097848042099646 1.9116008022383593 1.7914086714267794
Ni 2.5609374106408582 7.969192860451951 0.756601971964972 1.971869260111114 1.7718788289239678 -0.5656200697750775
Ni 5.461161775089379 2.4421334615157777 10.699038374064886 0.4255409702315832 -0.04353186184436374 -0.1959309164057916
P 6.089108370740637 0.7134529607748945 1.5065412900263078 0.31632565014648106 -0.09632380883441476 -0.6543781504470924
P 6.811417189730058 5.548262526855514 0.4339287484147363 -1.0911353011094693 0.4076610046273689 -1.7795769688991738
P 9.029995130637605 1.4574428546054248 7.541769910773475 -0.6293062950801291 1.0486215961169747 -1.4974315641788276
P 7.622053921500965 2.0505860566484344 10.461213646612766 -0.8265376754648992 -0.579341533126228 1.2515078607946768
P 5.516605463369326 3.2158630950806946 5.392192557994391 -0.6466710116108217 0.8552247589869465 0.6235665643828745
P 1.5991845652655279 4.128464912420198 10.189399327067838 -0.14854599936392485 0.32317275497530146 -0.42324883176329686
P 4.647821598374883 4.389776394493156 11.357401032025155 -0.3459380736962752 0.04966291444276608 -0.7432745564691844
P 1.8823358227018796 6.801055521908727 2.6433481929024674 -1.4466401925585732 -0.4954850035208887 0.03668424279491101
Ni 4.522992565467676 4.24339361623365 9.094374027393224 0.3877580950558548 0.4793832128630196 1.3945360156641662
Ni 4.102048656879261 6.705706033693553 11.10021115014435 1.3990292755488294 -0.4104151703337383 -1.7541670134665013
Ni 8.696235014786291 3.5269345723098775 0.6657616084731147 -0.18902750441773897 0.11552455013258169 -0.6692491540216539
Ni 6.023542910777696 5.924576526938335 6.354037671115236 -0.1653666704656894 0.43794345766099413 0.7389874990580564
Ni 1.3572954436234723 2.408095890195304 1.973304438360003 -1.351389305073363 1.3935343138725291 1.8495937644079434
Ni 8.735190456942712 7.2033336655794615 8.4957547346539 -1.043569378405048 0.48293673454223285 1.260789800317235
Ni 8.45080281171646 0.7005705381460938 3.3883004393187193 -0.14651148543239928 1.0331952342595754 -0.585385682437779
Ni 1.5380940909600636 9.172447302938174 3.0855201417015117 0.4559807747786792 -0.07863616174666456 -1.2463402005508084
Ni 2.6976782094940495 5.779365549046869 8.937346319333654 -0.8623184326089343 -1.57691130487271 -0.3080909209415146
Ni 6.346673782345686 6.459138937353887 11.91458933899589 -0.9259563211745536 1.8005918805879442 1.0451248958176258
Ni 0.9533288002098134 2.5190663077261632 11.623246551112718 0.7751793755975812 -0.01101691993579393 1.4578219202070055
Ni 0.3778640982074727 4.901871608875813 8.33370304785104 0.2721571831593829 0.3366000841248009 0.9916176679281051
Ni 7.697907235088824 5.57319327169366 2.24940090397428 0.11654296409476703 0.22436500337676843 -0.0181059655720914
Ni 0.8079535857313308 6.296064923930723 10.154328356997596 0.0016298222939391286 0.3401001268582594 2.18134140553645
Ni 4.948826664568383 1.030713758373222 5.498592954089893 -0.9070689973517474 0.4896308587329567 -0.3790459119938375
Ni 2.391340067609785 9.250210558858194 5.272423488251223 1.9361244984113366 -0.08529840425818859 0.9726426694874992
Ni 4.730161334472446 5.757904071440087 2.2669160901053873 0.8603641370960409 -1.9674706168227858 0.8442893430213653
Ni 0.5104417763830283 5.089627244224233 4.543892132504272 0.8971028872779712 0.38472136511206 0.5641424567882865
Ni 0.45746994100542665 0.9440189846873526 5.347507288841489 -1.572034693506699 0.37271482756948715 1.1365875199049973
Ni 6.364841301437584 1.8768735721673933 3.87189045640198 1.1957136366431924 -0.21296241796678161 -1.515938107623447
Ni 6.241848396666124 8.026232780729307 9.542893074406244 -0.4431946787576045 -1.6982200657872368 -0.11704047255647584
Ni 3.621518238237277 1.522888366499196 1.6113353046723948 0.8856810185942747 -0.6405733833535162 -0.8149116611901964
Ni 0.7209829314863715 6.795399509108659 0.7038395843696894 -2.5864148519423003 -0.5504227932093487 -0.05635241064779972
Ni 7.388302815013329 2.2012131512016295 6.295982805637215 1.907684755013405 -2.632625546170408 -2.1036619512761
P 4.300913328787685 8.247315525757736 12.535017958742587 -0.1922668372906431 0.9654811187420533 0.678354972977664
P 8.110768489170127 3.1924824483672 2.785981209984245 1.6891857234991103 -0.3414779810423925 1.4699001915277783
P 4.089694005754807 2.3836818447320423 8.107829761475475 1.008421112638689 -0.6847197388534272 -0.08552260445385271
P 1.444276247320438 0.6593213198361697 10.626844399264149 0.4051202404833862 -0.9501799696086087 0.29365674779405554
P 8.853108635710848 7.925983875227288 5.2475887018684135 1.2387423335988925 0.6814009588928394 0.8754662828448019
P 1.8252589953263167 5.315784715255986 6.5088786336061 0.23778024834140984 -0.12841683271421755 0.33214564789787315
P 0.732687095004946 4.798559414222696 12.97444863282238 2.455650087821197 -1.4846302986491013 1.327406054784888
P 5.47503884401483 8.652158712753787 6.89634411341186 0.6628697328578713 -0.3375704184578702 0.22233434609998481
Ni 4.0329677958122 4.744361340507201 6.880665978093956 -0.46148422109541165 -1.7569026672301096 0.34836930884558714
Ni 8.986527795725502 -0.04454409950226395 1.24381073002733 0.343918215052769 0.43699934858017 -0.5850869202504375
Ni 2.848978858589504 0.9401898732484811 12.474694229402354 -0.7196245211504123 -1.7797667163124768 -0.30452557218775944
Ni 2.6323249653457936 5.165240661673755 11.931091425281243 -2.3664796022021113 -0.21564793521874476 -0.45522821288337084
Ni 0.24444493819282037 8.714707017438387 12.316450432456897 -0.3425902402699648 0.6333416414917673 -0.15236125934495698
Ni 7.397234332779179 6.533728182828193 4.418059226525861 -0.6589637129352458 0.0852896625074402 0.46308678969584116
Ni 4.524459622621364 5.540023017181027 13.24457537530184 1.3765670898905713 -0.06829389928039206 0.8247674709383538
Ni 6.521871777529518 5.0880955996486845 10.290059746714853 0.2581117608099103 -1.1543088484441604 -1.4525670995659692
Ni 2.6615369335758343 5.4351330440796035 1.111348386533668 -0.49154555925716636 -0.7122876211693668 -0.3983507829700365
Ni 8.556191030643664 6.056141105268137 12.324971358755203 -0.39482862874939095 1.347070365983035 -0.6478398351079424
Ni 6.397005837524104 4.367466053627636 3.772242213923263 -2.558252273465155 0.18550020799077085 -2.0077160946063937
Ni 7.839261421217764 1.7175917630848938 12.92205162549934 -0.23144299326947237 -0.5116032492389899 0.21800100883195356
Ni 7.023835993454631 -0.20258583008504216 4.94858953646241 -0.6669207629987933 -0.18484611934653972 1.3552590724414144
Ni 8.226536829467765 3.7975189628070902 11.716412984469008 0.7821789468438658 -0.05223041805962617 -1.3336949731173933
Ni 2.1463046158456685 3.3350453419623864 8.127249353874012 1.178461534430964 0.31313491112332525 0.4127201643178311
Ni 6.107580373392734 0.986785084733543 8.899493476736136 -1.149075367959363 1.0965901535764535 -1.6978793946183661
Ni 3.507419944133461 0.38564965057402617 7.393721699707425 1.0071355610580461 0.04684755648115803 -0.09204369340182211
Ni 7.129547149491136 9.157887452695912 11.651498012111947 -0.8562629704434737 0.10313157578486754 -0.5607629987930923
Ni 3.098692285051229 2.29302878476358 10.139635641201792 -0.8992525866311222 0.27594107568184734 0.4761328242465219
Ni 7.759920386849439 4.437331190531573 5.343144869833541 0.05475421292274441 -2.74796343421348 1.743953049047977
Ni 0.4246955151210528 3.533411768045029 6.554955300361368 -0.9847643924516974 -0.9732921301460399 -1.2429049496170141
Ni 3.5606768868447034 7.033551787057358 6.955546789644088 3.5457692889613255 0.46421858930743914 -0.05937397108294291
Ni 8.921405220941033 7.484510393261793 3.0596593379885744 1.3689566245331648 0.21147889144271964 -0.5097985919300833
Ni 3.5138048721230972 5.083343810754664 4.7178685027374865 0.859656826616371 -1.180039163330729 -1.6077439739828505
P 8.062254108578355 7.4165736522391175 10.700092071718668 0.6663764604595492 0.09065581191536 -0.2573887666009567
P 4.2250046545525155 3.7345739068167747 1.305226909474462 -0.04612276249999153 0.01551352225456683 -0.08848271552344117
P 5.225888250800747 6.580840093688138 4.404068668273426 0.41431553382940906 -0.6337895276624633 -0.5311752578336465
P 2.0853802234821313 3.5341868171073543 3.7727819802345257 -0.2793624426585705 0.17516334484113705 0.6631409842413869
P 7.478586803999732 5.108606719476664 8.35366240656084 -0.26194501851307145 0.3044990898251982 -0.994440482088881
P 4.56418088706556 6.769693715208187 8.943274521982993 0.6670344057585222 0.02377550515304292 -0.814778735156758
P 1.708595657897184 0.8651097633680366 0.7832691957737099 -0.6720593697769394 -2.3419582200219793 -1.4578131784562571
P 3.680191297610249 0.47534220331167715 3.626705530890129 0.6718372264638043 1.649191699604676 0.40510378542315395
