# total energy = -381165.5769354945 ev
CRYSTAL
PRIMVEC
9.28863979348976 0.00000000000000 0.00000000000000
0.00000000000000 9.28863979348976 0.00000000000000
0.00000000000000 0.00000000000000 13.59486324787013
PRIMCOORD
 96 1
Ni 7.902040769637859 8.087256243273258 7.505614635580906 -1.584377274232452 0.31319250383413805 0.1386228267129419
Ni 5.498958241294783 7.278336486378279 12.600126931387601 -0.5917509625341744 0.6495077097286686 0.7485658867751108
Ni 3.402549438004179 1.554621032668465 12.308054947787227 0.3680781001284242 -1.453813827488877 0.3328825260638976
Ni 3.6440262017002385 5.743045112718604 7.675156458754298 0.4675057446991433 0.8200469255342329 -1.0538519912779785
Ni 0.4509207248655879 1.796543651065352 5.344548540894682 -1.2488161728951266 -1.7487638401730592 -0.4309942800366706
Ni 0.43055166708549436 7.55833323849791 1.9218102447186605 -0.16646324596397782 0.4667992055504219 0.39092080905455256
Ni 5.304491282617217 6.357860167880437 1.6644192547949417 1.2984960566187573 0.7326594999574995 -0.26721989375876565
Ni 2.3920197585787952 9.209193866067896 2.426859587992619 0.15122071798261055 0.2555576269294889 -0.4182724615946281
Ni 1.8529442707200225 4.979500360272419 0.38630058802837136 -1.757955019754024 -1.0468457351634746 1.1445000898838547
Ni 7.6337105488565475 8.397645424165956 5.201612168129206 -0.5769866597408063 0.33707856642311623 0.07962269402964997
Ni 1.5102956444945375 1.7496824642804685 7.407977100419497 -0.0073901218164840465 -0.41390955664024204 -1.178987839248079
Ni 6.508048181582079 6.206093085446698 8.605561404121191 0.5267298204677832 1.1657921664934117 -2.120775985248567
Ni 8.903328252660675 7.265629627404697 9.375955599408838 0.007540531351419272 -1.2395661150517685 2.0212737786861705
Ni 1.9163299473543232 7.552388509153543 7.500517030168112 2.661917096045674 -0.269748059497258 1.3081765171313147
Ni 8.69540205520188 4.722548723001807 12.903156723124768 0.4491845777924522 2.223661249350583 1.1998646826970885
Ni 6.587298854654155 4.677136563994612 10.279320386034508 0.4728076165280308 -1.5183251197983851 0.9276506781578412
Ni 1.7918993312650662 4.570679465532461 8.306652052910838 -1.1355765621419798 0.42943464885903465 -1.227118119096403
Ni 6.79732428466268 8.98418586038365 0.3715362953832628 0.43239296015641016 -0.0015470327721457226 1.7770760568541912
Ni 0.2375551000566982 0.13854563282628554 9.002083211166031 -0.12009982820808993 1.072845758771662 0.11005787059105561
Ni 7.537926097295454 1.1204793063773497 7.562754630947781 1.2912740849490214 0.07683124732744187 -0.42585952991326653
Ni 6.947242927815905 4.300584403227041 2.0809525069952532 0.07013198093039534 0.7702354013287445 -0.3863974672629023
Ni 4.692072696472331 9.145826766712798 10.674346722103657 -0.8685186478823751 0.16071965861198126 -1.4508791703405852
Ni 6.472491269191091 6.8907958649632315 10.662165600131466 1.0634069819562653 2.048339010334079 0.7639462258859231
Ni 4.751074135215162 7.8637622858439045 3.3309451730512927 -0.7838751035993661 0.3347609740335331 0.10470920468463257
P 0.8989991260134008 3.2882991709171487 2.1796777418538884 -0.40173692583345005 1.6577285334310934 -1.2295133588014568
Ni 5.91669623005129 4.931570979933468 13.085462994837266 -0.20922069153616224 -0.42262148259194315 0.011258346522638674
P 4.041347760614689 5.595253568033909 11.565367835564125 1.8873943801954847 2.7174380119311135 1.021165556788551
Ni 3.5936817750651406 0.8409200491829069 7.185782623670264 -0.944042232141987 -1.116292259991071 -0.5003287047664351
P 8.723908890136034 6.4430277043780775 11.627346283298941 -0.17314888551426952 0.7598674278308591 0.16769300460602085
P 5.208233110436494 2.272502832838241 0.19295012383079338 -0.7242051985425593 0.04683958606135804 -0.8785544348518224
P 4.398988251155496 2.0046184667577562 9.944791888547842 0.6228212015764177 0.3960326763598212 -0.04748390451357629
Ni 7.3874222698473915 7.471354417278157 2.6682499673403934 -1.1222276516388996 -1.04680485462321 0.3773566972168727
Ni 5.5313848821403795 2.1921653889328967 7.231746527869732 -0.656878548271443 -1.008689021588095 -0.8334156335316549
Ni 0.8085324206236338 2.7088552553542917 9.231822849862809 -3.575794374568506 -0.8728496711575613 -0.9587473995626455
Ni 2.541576144787598 6.863858810121575 2.2310940774988923 1.7968892349253764 -0.4539182358226957 -0.8073796144792095
Ni 5.984085310353436 0.5797355788463145 12.124891334639598 1.4011774322400836 1.6704755486841165 1.0431184069105583
Ni 0.00022292735041371805 4.751501412636788 10.389207779101149 -1.2492154652160743 -0.47434796443195726 0.12882975188192008
Ni 1.0651840348351471 7.108345093048219 13.236243623745425 -0.6335378166629735 0.05254383553498692 -0.5470549051783804
Ni 9.098798384415103 4.366914578614723 3.8493989521328364 -1.2986809189360538 -1.2389536782787502 0.8798135040699042
Ni 4.9911576029711355 4.286679309744985 5.788692274307692 1.0134931278449577 -0.3823569786449415 0.976551260513286
Ni 5.018131812371195 0.15194170885822986 5.323734557277721 0.25062676528677486 0.29017110323830025 0.11838541662014451
Ni 5.34597434707337 2.9567690462935476 11.627441956286827 -0.40013692833618186 0.03156800461426821 -0.7477868425172411
Ni 2.394295475280935 0.48336687185434446 5.164593223865087 1.146587825650819 1.3737208786910278 -0.03378455264961278
Ni 9.18389161179594 5.351454644437707 1.6572140570567782 -0.34882696520829604 -0.5195322742780795 0.15614155232299562
Ni 7.277259004184613 2.2782060575529917 9.671793197503284 0.17576498298087792 -0.2993059756600329 0.5550710906146377
Ni 1.997336173310908 5.041808554713052 3.517589239457258 0.3876359676556937 -0.7118906428412644 -0.5211014185374122
Ni 1.1499242939111618 0.33372317243329597 11.667559590721694 -0.45789393264099204 1.0703309627696083 -0.8767616046174578
Ni 2.277332925430538 6.459635791983899 9.85766259136656 -1.0736412580897639 2.4657892331377274 -1.7569921416201224
Ni 3.8654580811382644 4.677981830198264 1.3814557111868893 -0.13724471541849267 -1.463446208372318 -0.3459655845001009
Ni 0.2226245407627394 9.042732155786053 3.9727864539949493 0.48041859610606935 0.38132853738042716 -0.5577877182148523
Ni 3.4633435841899205 6.014273389055294 5.192122893913262 0.26430631965639645 -0.9424653745731704 0.6208067422495501
Ni 9.169308447623042 6.589778921427508 4.167382524762964 0.49248761145546144 0.8931577865872941 0.7837383209111858
Ni 2.7212555892210553 3.5975272718597773 5.810403540510069 -0.5202048748650718 -0.7373808166925688 -0.2945383790680605
Ni 5.444322463164221 9.222272270625501 8.051516344682138 2.088496556389571 -0.3622442670554665 0.8766885852876772
Ni 7.594057346401707 6.80787617924893 0.2018932260382237 0.6301257056576309 -0.7571939947637539 -0.38230864190550934
Ni 4.31569701985717 8.70630691809295 0.7126643713061345 -0.3731377740395187 0.25294898566204826 0.36674138359487163
P 8.354843372886522 -0.017466357904914808 2.0341173284012513 -0.9510212345629815 1.6282464648115762 0.9508044905664851
Ni 8.64130501816815 2.072239763049917 3.2679877027025785 -0.8316911946413805 -0.9203037508744667 -0.3713745114915088
P 9.23931692429255 1.997986378082948 11.08523805461058 -2.092355782234661 -0.3831704756851724 -1.1606846700635172
Ni 2.3852483403099787 2.9452139786304365 10.544692175103037 1.3132932695325898 0.22871402437408353 2.118620886578777
P 2.320283594943581 9.222188672869096 13.477770546095329 0.3362473287710725 -0.21106083006869455 0.9400166559223618
P 8.857145136566633 4.561130744023074 8.381858452300825 -1.5485818618003975 -0.6540459639186542 -1.3725214590662878
P 4.1724104653787535 2.176058887865506 4.425250021898192 -2.045312564802929 -0.4788918750488978 0.877611868432895
Ni 7.228670130434023 5.690202042030951 6.409556091577418 0.6697232654445949 0.8966817405801526 -0.8956085621206317
Ni 0.6351961881734075 8.90895716825862 6.515813484288157 -1.8491775028061312 1.1887513463927464 -1.1019377910416117
Ni 5.333202467622583 4.354904367611183 8.311110599919113 1.2950196680343826 -0.43299742650962847 0.016353244547042806
Ni 4.470594373836302 7.512568111185893 9.201587399098988 -0.8752040303223507 -1.9920958715706338 -0.4233516758897483
Ni 6.762937740861364 1.987796740441121 1.637338226039475 -1.3894305761168007 -0.5050636483482592 -0.5582579729830515
Ni 8.604772798619102 2.670864719387954 0.7861430837304161 1.9140063263560585 0.6507341259366018 -0.48080194758741707
Ni 0.9717310318137964 3.1126602847099405 12.427948063431606 1.0760763498938177 -0.31901630960476673 1.5297894116842428
Ni 6.375202058014704 0.43973534505857953 3.3047075527715584 0.9014539651578153 -0.7686001797181666 0.6009046040089844
Ni 2.7489078693119566 8.078041912789491 11.579166109690775 1.4559792105713119 -0.9899166260765985 0.0926162780758405
Ni 0.09288453827779573 9.278347787894152 0.22260224802769804 0.4250144083041519 0.6908741884905972 -0.2360478390313354
Ni 8.270056670612506 8.56314111592934 11.771044324511664 -0.9225827767166305 -0.23515052402804665 -0.531192227114511
Ni 3.515750088816345 4.691654707690305 9.82028974993366 2.5440777817369864 -0.676295519345474 -0.3331545487783617
Ni 3.6387595430467146 2.996171455479172 8.039267415640865 -2.134112811566789 -0.16061295783078788 0.8285580483290376
Ni 4.478452562938386 1.5815395102309215 2.2849700449101276 -0.9422424599290868 -0.05782668120048105 -0.02814226676217089
Ni 3.409032908445378 3.9036715444550163 12.572814615506081 0.40056527412285203 -0.6264418290481406 1.3632721725538781
Ni 3.494692742841849 6.4860341057287245 13.55746335841239 0.12155841503148743 0.808918419721239 -0.6909528642473326
Ni 0.09541383484103137 3.61495275975045 6.312040237594777 0.7582604883550554 2.734115472586794 1.2688309254541568
Ni 2.689014721167471 0.9693159855176479 9.461005170183551 -0.9047349499019322 -2.222597583972759 -0.40896583948172144
Ni 6.040876052871331 2.8717965712275184 3.903669686727096 2.142121283693563 -0.29398379211617115 0.5484882951907972
Ni 4.5488232965523165 4.630479727280941 3.493798246848314 -0.3508339683359958 0.4717380376129359 0.10275053829636498
Ni 2.3470813201912297 7.718831642156186 4.50891279878054 -1.388529918679402 -0.10560600546728909 -1.08680582049618
Ni 1.7860196223979046 5.255391533688596 11.621269655272245 -0.16646684550840365 0.5644890414944278 1.4257733764118927
Ni 7.132495556009705 3.6028775282697065 6.969297873683502 1.842206470804937 -0.6441796126475358 0.5500060173869045
Ni 2.580848513018815 2.579659567149942 0.8991505308388901 -0.20867407500407287 -0.5908320502643308 0.4720046610107613
Ni 0.05163276094769727 6.334629280239407 7.267215198184515 0.39450184153759155 -1.3921772856240024 -1.4034824262241763
P 6.510453939238627 5.554058451405374 3.798893832032648 0.34374543692033055 0.5050384515372787 0.43695152606137005
Ni 1.890163849599513 2.1048893312459263 3.5128585353086867 1.7526572616901943 0.00985015332120239 0.21263023143834348
P 7.354252537833751 1.4171770324988073 5.3953248892712065 0.19925483857270201 -0.012832632988294028 -0.575816293581789
Ni 5.569802695528343 6.8789064062745 5.458351095552965 0.09419750652003132 0.7045971945036446 -0.26598910667545805
P 1.411139416758436 5.409044209961251 5.632134111567979 -1.1242693646592767 0.0965148417992983 0.06585366527001561
P 4.112117905731443 7.870152869889098 6.887320984888658 -0.1732545578541984 0.07733826887084745 -0.15028972152790893
P 7.1084194021650235 9.213057940141734 9.89632655370394 0.15341412608950353 -0.2077657042571906 -0.7185680548614398
Ni 7.478209433303379 3.115771978976132 12.143910753085729 1.007773194642045 -1.7897266557386662 -0.45925995975058326
