# total energy = -340868.09150070185 ev
CRYSTAL
PRIMVEC
9.25058112385600 0.00000000000000 0.00000000000000
0.00000000000000 9.25058112385600 0.00000000000000
0.00000000000000 0.00000000000000 13.53916053783050
PRIMCOORD
 96 1
Ni -0.08627462027748495 5.266429868002059 0.2511865810137583 0.9331698082038574 -0.07168852678423783 1.9609880944222355
Ni 8.269520039734148 1.596890826044467 11.650975632600398 -1.0240055973405073 -3.711068339413873 0.3107299012262584
Ni 7.903446790866321 8.165358495695239 4.7363502902950625 0.7101340651614738 1.5968635796249209 -1.7284819499955715
Ni 0.7414433318172817 9.292301296849416 8.002930316004655 -0.14515394296324033 -1.321415127308776 -0.41954798587294195
Ni 7.980689143683806 3.480651424930018 12.695739045763593 0.5040750591827448 1.3167496035123065 0.33564646196228
Ni 8.348825272153825 4.408928744753857 8.79235826249677 -1.374627449665697 0.6449548002506634 0.39701175244363884
Ni 6.645774776536488 7.557216038620469 10.514308620514274 0.7457338166429545 0.2713513994286359 -1.5726599857955237
Ni 4.530555386052576 0.9975549222490075 1.9314288436841742 0.37378363515363366 0.8790432015627828 -0.7908294234300122
Ni 1.549463096356413 4.276173654300715 2.5176067208152513 -2.071171177737246 -1.543852060424896 -0.5103274678503599
Ni 5.485742646516663 5.465770641758226 5.246357031908805 -0.8353082225686775 0.4264195161817946 0.28145017842553466
Ni 8.947763400958728 6.249156108626344 7.705691566723676 0.0393533049866419 1.5323561439701545 1.128453063723321
Ni 7.2287279010697 4.152844906065659 1.2621992487572422 0.23612934300154817 0.3481322531341166 0.883414591157601
Ni 0.21239519391138165 0.40076847862558396 3.2109340797050034 1.3604259613543344 0.7793196230181998 0.6514792316327426
Ni 6.433020660075488 5.95950191085136 8.277585621461283 0.574746714666694 -0.9693141193348984 1.452526476136021
Ni 7.74186688946955 0.17524023461899463 9.139231005076217 -1.0244092605368291 0.5035780649416682 -0.07227705229785616
Ni 6.0993984499721785 2.063943419026747 13.333676699747326 -0.47184602394570996 -0.6172475641433822 0.8854910140706557
Ni 4.194120999271841 8.156588944740632 10.45470990117329 0.29781499293680325 0.09158038061215842 -1.1962733658014042
Ni 4.154223242660845 3.845651606381459 4.11681204226989 -0.4700295395622615 0.5484494715330619 -0.8597144193271838
Ni 2.9386321220994858 -0.29254037910181674 6.2912416276854035 0.831804323180477 0.40745943013952407 1.1106024086951454
Ni 3.8968073202833393 1.9144632778078545 6.516059427057696 0.7106989365260082 0.8430639552546966 -0.39327439688839366
Ni 9.091036402208694 2.8127039605540447 3.4634259177226596 -0.10932973417577946 -0.9856681352128897 0.16209417036200469
Ni 0.8472644301191197 7.2606239049636745 2.9989107591568867 -1.7667114257904155 1.1838927327488642 -1.5340561573803968
Ni 7.070172939717399 7.10431683483708 6.449243404283394 -0.22876467510636087 0.2925408890220575 -1.115236822143363
Ni 7.577696825343572 4.620841058327865 3.8479244741763403 1.592221452867219 2.9671870025986253 1.032160108126842
P 9.407008503428678 7.84313300160045 6.395100677719866 -2.2284100768894786 0.3835065188683524 1.6446112793228451
P 6.915493971877737 1.2593648706849936 1.712094788832865 -0.18759128619184465 1.7506991095225592 -0.8796186144502787
P 7.3414184809526475 8.269594044383554 13.227570683545276 -0.641024869068638 -0.503887625762287 -0.7946254001373347
P 8.355985221983854 1.3706771139727547 5.342390090268586 0.1530019782527494 -0.393934913290528 -0.6217598501914389
P 2.402838460400231 9.175919735077345 2.2232245510013433 -2.0191775582787743 -1.0663079576531442 -0.8065185520304949
P 3.087557228447833 7.905611426861444 8.291436516655727 0.4189959700242139 -0.28673790918703523 0.2816244992198698
P 3.862950193180106 7.0445950827664605 5.5321685382633845 -0.19735145090240205 -0.5236936047446207 -0.4102624468059579
P 4.175499579365063 1.0462592321393145 11.159369222003333 -1.9275565542366675 1.0251019157284798 -2.0374994965164137
Ni 5.982702368440133 0.323994205215591 11.623166535469867 3.357129506900309 -0.17285963640862487 -0.2952027521249368
Ni 4.528585012262142 3.5826760847173293 1.4300057163434066 1.6621570015160922 -2.194324705169995 -1.6435761531901112
Ni 2.019374118921999 1.8321701076684112 1.4489610822306296 -0.07153297504298002 1.4744960384285768 0.20734275778715902
Ni 9.140943287651847 3.336064841153095 10.568397693706984 -0.4808777951306751 0.11658127353187017 -0.3758256052843269
Ni 1.263869903717582 2.1303070883815547 12.11654720753644 0.48270636369898157 -0.8106868244755716 0.6880637156249957
Ni 3.8183623919130065 8.746276492369786 3.568801138011827 1.1465788267897545 -1.1290521307599006 3.0499472138159924
Ni 6.612093410475594 2.7599016432028813 5.439167820413013 0.2964499942684765 0.8656999474866575 -0.7547452761129454
Ni 2.532522357903025 2.676618660877633 10.157349044220792 0.23908559741639468 -0.6865989581540111 -0.2054303712557946
Ni 5.266263357540895 8.868245405172008 5.516354669743445 0.35898487957790437 -0.6483921080669867 0.6852995226162971
Ni 1.2149805822037605 1.60188613987937 6.204063225627049 -0.45853799398289413 0.8232065542091371 -0.09897975840002309
Ni 1.5440422557874254 4.877174662707809 9.127858340578754 -0.3877740358954547 -0.06182011863059031 -1.140341844741107
Ni 6.469421697002051 1.1561191341824835 6.966141828873069 0.9032239125740444 -0.6723437337865776 0.7900475509586652
Ni 2.7512430992223824 4.458391602300575 5.927296012487998 0.6576069417970352 -0.7845420477594036 1.1316692566677737
Ni 1.4740246068681981 8.01795973524089 4.965378954218555 1.465128481170748 1.3217360009833041 -2.398156364480102
Ni 7.779202235094864 6.101692594103764 12.221543153997402 -0.8658518996834895 0.46800376738148425 -0.20169327281086555
Ni 0.16039952723874407 7.663662476209787 0.27896052593582044 -0.023430977329430613 0.25047018510425256 0.8253919918962301
Ni 2.4857884218031523 1.4082807264521655 4.116554876113204 -1.0060109605352996 0.4749858551262722 -0.23713053057255293
Ni 3.562704079958892 1.784446359382733 13.011485432802889 0.4542676487423144 0.4748076776771952 0.6124632553808614
Ni 2.08435945168162 6.490068994186318 1.2734266791302462 -2.0583529429266547 0.7435010706576938 -0.2038159755808232
Ni 4.241483974891665 7.310225521228029 1.8566388199363788 0.5034279125170491 0.3628628744760718 0.1844144311257598
Ni 3.162764453406655 5.748403648420818 10.623854002797467 0.17529292844046584 0.23892927434418854 0.13851972547617433
Ni 3.712748506629505 5.8579767824475395 13.558115225291413 2.1426517022757356 -1.5676471059619648 -1.7793581680201482
Ni 4.649656618690317 8.564789340282811 13.135991780021618 0.24840044705941736 -0.18747198700516102 1.6472402323052597
Ni 0.28662648255616185 4.190790790048572 6.88929355081367 1.262881135628625 -0.9093264259273566 -1.8308378239566792
P 8.407945736448022 6.173597361582845 10.160707005187588 0.6789692095228952 0.5933131648149718 -0.49447713108166447
P 1.0916703351310555 4.078201966558558 4.73721706975123 -0.18931366819959008 -0.9786623933190176 -0.7149636253396333
P 4.522766396702598 1.8511430496598678 4.398033410245063 1.5932583787721657 -1.7305092648382454 0.1228064285059756
P 9.635497858469622 3.2612923935095335 0.8520303295408643 -0.502727801126231 -1.0665462989161953 0.07834357020691024
P 6.214901206532553 8.01412999463413 8.134828802640921 -0.45356059537296073 2.843435179460245 1.0854981574283498
P 3.3884601329325252 5.022390286004683 2.096795933014294 1.5096535601663164 1.7146928666312793 -0.15636112453296944
P 1.5746616794791475 4.2697352498023955 11.274424250434802 1.0766939288731587 0.7447436848155432 0.4857675191228085
P 5.253331045057201 5.036608429271805 9.756183715662768 -1.2495232262644802 -0.05555871110191077 0.6111509643273411
Ni 4.100745632883853 5.651947838501307 7.7674845239195465 -0.5186089911328616 0.2790307703507646 0.5017489821527295
Ni 5.582050447137364 5.413865630781111 2.7476372226800763 -0.517761555530902 0.42127859541080354 0.62416923096388
Ni 4.5331455487817855 3.6878181903608676 11.485175616071253 -2.279015814861488 0.464380054585968 0.14918903226456243
Ni 6.422484248116311 2.7364976728282424 10.954250535244793 0.9144174672970188 -0.3775549292706078 -1.9293735528407479
Ni 8.951861408419584 8.364394000272606 11.586434327737212 -0.9956111053582144 -0.07322167559931261 -0.539336196377884
Ni 1.0247793826492304 6.243550256433841 12.02586191015436 1.1884201883055727 0.681422041938762 -1.0134021107930482
Ni 2.180380484285872 9.203588223374005 13.488550854849798 0.1391005376803088 -1.1412625567831636 0.7397212919002873
Ni 6.370292469122749 0.7384211669471652 3.709770744549032 0.2304618603031257 -0.545828231860131 0.8154490217509054
Ni 1.3870598932350022 7.4760236876409385 9.477087206183665 -0.886709459858789 -1.4865586260200656 0.20184702477991043
Ni 5.296031727764449 6.097011800028836 11.687951130617975 0.19335158571438957 -0.48594749634409856 0.6225013563431537
Ni 6.376064831776414 3.0330713053226845 3.223931146256928 -2.10561110458267 -2.100901614922143 -2.687715545166016
Ni 5.938234824728319 3.7609995380422006 7.394967320204692 0.9835282060517513 0.060028059727174045 -0.7458798553025154
Ni 0.036977348133812676 0.9833367789818848 0.293007533451192 -1.6310777636127844 0.12063101812121162 0.613144597718602
Ni 2.304181012160891 3.9158635175053775 -0.26813179561149125 0.06419093285561203 0.34205082282672705 1.0985117960791986
Ni 2.9160977063553664 0.8966902853411348 8.439649328253543 -0.33470183866082354 0.16405412230185293 0.6335936096015734
Ni 0.05885959790504173 2.1769207669261426 8.378627869527728 1.07162191366689 0.4075406769994207 0.00027665070015436225
Ni 6.035624943346581 6.344585104035348 0.6403983085764817 1.409739719987798 0.661415516909848 -1.1695048394583083
Ni 0.16413491191751062 5.9657645543073405 4.918140861444604 -0.7704639723997828 0.14368430039624933 0.4970384640509376
Ni 7.826824226987609 8.587536519393971 1.9939257701075195 0.7122729658813475 -0.7602518077534713 -1.3736267763153247
Ni 2.562494240912445 5.901676527921767 3.7616258023877984 1.0755886116241218 1.3968242974777105 2.9516359422379037
Ni 1.994749071832161 8.930289053117741 11.15800106104744 0.1696349588237401 1.5447809999970685 -0.2891670874538181
Ni 5.171398647583612 0.7868627603320808 8.845390919319208 0.929682106765573 -1.0991041782475586 1.1986850605666903
Ni 1.9776632484005567 6.538255271530783 6.818470176274035 0.47830823463128586 0.09018607136779307 0.7479336525077506
Ni 4.548816033293501 3.115327473137425 8.886469050088229 -1.487320958107387 -0.162374677716901 1.0932207228835882
P 5.850372804721076 4.218514781832286 13.041934645800977 0.6242522775959894 1.4189370702163497 0.6739357608640458
P 3.164272298138301 7.423202869127425 12.235623463605005 -1.3472750257946733 -0.8624629286065986 -0.363424917627129
P 7.347144590700435 4.9290889242661 6.1681163922362146 1.5737246796146123 -0.22978771705423653 0.15843780455634005
P 8.470368658221963 6.163292214153062 2.181768071462234 -0.6033900894349995 -0.41930835905831015 -0.3101390617197949
P 2.424780838949103 3.1885365725622856 7.938578648055571 0.10561423299740522 -0.3988459774389002 -0.8563017941012092
P 0.2907374408306637 0.7636845041381297 10.162047414399954 1.523345198720796 -0.18723415996274204 0.1623893330049203
P 7.300891684821701 2.6076740793747923 8.834194015864083 -2.533402818521643 -1.753814515223089 0.2880669124111039
P 6.232930589244084 7.860699855253193 3.080443531523684 -2.602979441169201 -1.7643400973447612 0.9179861584848836
