# total energy = -340876.6380969091 ev
CRYSTAL
PRIMVEC
9.16826510195899 0.00000000000000 0.00000000000000

0.00000000000000 9.16826510195899 0.00000000000000

0.00000000000000 0.00000000000000 13.41868271915430

PRIMCOORD
 96 1
Ni 2.593042057691089 0.995847777675295 11.490055700882165 1.6522834511561222 -0.17499030959838252 0.4766938389563145
Ni 4.381697216017244 2.4108778001060394 4.937578292147855 0.9086841643576674 -1.1463672249995807 -0.8839820336252969
Ni 1.33412925193749 0.4090393931692428 5.021874988002703 0.44628694452968304 1.2222713325270627 -0.3583819558865827
Ni 8.372908856776306 5.5956580184018 2.581391943336399 1.5302771499539387 -0.5131538815555613 0.9397063237707945
Ni 8.822483900056815 6.402098609130117 0.28039854991585406 0.970960910909702 -0.5033312390381847 -0.36100628088330733
Ni 4.38636386290993 5.831502467650267 0.025700480490332144 2.5404728379945474 0.21928656041259653 0.047953902171459346
Ni 6.121082118152244 9.059630242937427 9.372694404275586 -0.8638541525271705 -2.14905889135366 0.3248187752191567
Ni 1.6633433120997498 8.953810128133128 13.561993745297926 -0.8452882165995248 -0.12511425070354582 -0.06322471228760079
Ni 6.917217579003586 7.6590219013754375 12.682923075946478 -2.4371857104684223 -0.08379302335725569 0.46993800828971977
Ni 4.5389146244962015 -0.020886224530902414 4.56275486401497 -0.13538735049477973 0.9353773573781373 0.5447393696713263
Ni 3.44521395431473 5.041830633634572 7.608500177009722 0.757667849076379 -0.8284924851984248 -0.6935121403340765
Ni 0.557033527043009 7.573876224180191 5.955131020419901 0.26557747305933616 -0.022990033137270084 2.845616760492596
Ni 3.213311859022756 0.379523997606127 6.866675684454838 0.09557818891764185 0.26359695229419766 -1.1298553433874865
Ni 1.9857820244158497 5.780334380600987 2.750360317085213 -0.18607227844415697 -0.5715485194443706 0.4465761936353277
Ni 6.774586880163655 3.098039262987887 6.910500908053523 1.2707440833164696 1.0763758834121075 0.052043498859800696
Ni 2.7480040729763315 7.085922823546467 12.212746024350533 0.004024033557728554 1.1566511234240917 -0.582298558872023
Ni 6.046754993674817 5.619229627755626 7.869306144588304 0.09962973327919616 -0.8457785259723821 0.16701217648891237
Ni 1.2899840558897768 8.854361957514323 8.065769228290906 0.029364054984413943 -5.270761480636084e-05 1.253395821846009
Ni 8.125200672598297 0.8790294121588795 3.0515964997273892 1.1258048274671968 1.6269827676078044 -0.3456441966049402
Ni 4.563668940036975 7.008982743539736 3.690540223241815 1.046486809162159 -1.0062248763183186 -2.5593557909419795
Ni 9.123835602838183 4.92092872288043 10.275074470601428 -1.2647711535624864 -1.3609440386413336 -0.7932534594904725
Ni 2.4171947347014444 7.61175949522259 4.1342017355875855 -1.0855097273925756 0.42755311556560555 0.6114006184443018
Ni 1.360918922311616 1.1495354041234391 2.1740550969804606 0.45357962153635434 0.4535731937784511 0.3867653921252823
Ni 5.624950625125049 3.3794958306864835 1.2465457330747283 1.0184707835652074 1.6384779127315974 -0.9035627839707019
P 8.391190377216418 9.003997210825792 13.25839673441436 0.44742722878171337 0.4138241960152873 -0.09369588429326443
P 1.3189924463975575 5.4996021058385836 6.982478206207579 -0.607900061490211 -0.1317572099413602 -0.09437825507226971
P 7.43038370842884 7.8273787518477445 8.139544423214423 -0.339311569518693 -0.5925323207848893 0.8451056682750735
P 1.597955246012047 2.1873830038329136 13.479200644905553 0.1815021425749713 -0.35122426179587896 0.09576922188252539
P 3.0259400269091294 1.1945424170825716 3.634181981367486 -0.8087703241791491 -0.8406003242055522 -0.0842959311356032
P 5.005891034775375 6.9199955633031625 11.685337912050821 0.3467852521879189 0.6657853638427694 -0.06181677619648063
P 7.2571493409685 6.188798923553782 4.374718332687748 0.009339275123054883 0.0883230500171253 -0.659693906233051
P 3.9000974230389844 7.48379802040682 5.811966728556089 0.48208004296889234 0.7061128598172226 -1.4865797090659882
Ni 6.675257896990046 1.5980927699872733 5.048296094123222 0.22739504845234385 -0.023434062653224157 -1.0503066971288815
Ni 7.979342744473049 5.745614160988798 6.372626304412571 0.14514931497755001 0.1313327208094319 0.9279334995055825
Ni 5.40026395439996 6.032085769650656 5.541016992564799 1.7577233633591922 -1.17732613527494 1.3991575735965773
Ni 2.6890337923992 7.1377876987368944 7.357504252997297 -1.8204690791278455 0.5965470983712371 1.7535684606505544
Ni 3.287015541479156 8.651339897019918 1.886277927380453 -1.7303691397159553 -1.0510939689168672 1.9181257478410705
Ni 7.062562084287988 0.7354635502874072 11.572057580003731 0.044394209844659034 -0.9518990091822443 -0.0399189476821248
Ni 6.9195554865824365 1.8569770692186907 9.059945631253948 0.2738597676727864 2.212400074614467 0.8699204133259082
Ni 6.396368443495677 5.876711182439732 1.5795802092687807 -1.7393808562962623 0.0627850536470209 -0.5438397406751925
Ni 4.41118235630581 1.548657485025847 1.8331129922108833 -1.9120779989850945 -0.22990650202028795 0.6958374460331436
Ni 0.38119445549187847 1.3263912362647445 11.897151421868207 -1.4110021316399892 -1.0185993387232717 0.638213624872088
Ni 2.9017833820746266 3.300116992185736 3.1804152073220706 -0.8865929888855828 0.49700992480584727 -0.8617885282473932
Ni 3.2134768877930275 3.489175785062141 0.4803162358761453 1.3790034672462057 -2.2841078846724145 0.18682046946409114
Ni 6.253178480489825 4.254643399437969 10.370521610367643 1.39400842529547 -1.398333020812753 -1.235274686765266
Ni 7.701929381646112 7.961116233623028 1.7537414883221478 0.2931163019095533 0.1148961725199634 -0.5169406022915033
Ni 2.078179799238041 3.495226839972108 11.483292271780526 1.1152532772035955 0.39783784788936 -0.8365395238726174
Ni 2.058440524660528 6.033461009402921 9.858974596544055 0.7870414171424898 0.7273324313176313 -0.25496370209923186
Ni 2.318470857018833 2.9998013033510755 5.822768778396882 -1.493421928798802 -0.4454418229205683 -0.4033436081989376
Ni 8.79179771705127 7.471044963770814 11.389227706378588 2.316279584308953 0.2799111160731889 0.33475480338594604
Ni 6.818741244476382 5.3780125752083086 12.386718437144589 -0.3062327846868532 -0.7675282868102266 0.7292134503904281
Ni 3.3797617103719215 4.877516988033926 4.940973300682947 -0.15856378861124304 1.2628405121986768 -0.19761576030738223
Ni 7.684042096601649 3.904800742991731 4.5496176570748315 -0.19648447491641644 1.4100209986736427 -0.8427546515443937
Ni 9.070421290860201 7.740839498370201 3.8645273052598954 -0.29560050178398767 -0.050717323849209434 -1.464515273066781
Ni 2.6639402510528676 2.7702187791079225 8.142886255812426 -0.17058935231720945 -0.9691508542841566 0.85358413805973
Ni 6.757946479161245 8.510011091812132 3.846894897982853 -1.4131621154057854 -2.0353117448364753 0.3457079599633401
P 0.7444411153901944 3.574385640112493 3.857683195426122 0.19364134904066652 0.28036054490578166 -0.9591968283952383
P 4.84849942926113 3.8433275260654765 6.319099222774905 -0.1438704482651264 1.379439783452676 1.0020077529131775
P 1.0963044574457608 5.78783402138334 11.831185755084551 0.026197741441290362 -0.020566254187125873 1.2763220916248794
P 5.367927483691697 8.199912864206357 1.843029387651217 1.010980645835749 -0.6002548862401275 0.13702051522282852
P 8.31188488483579 0.1685860570976839 5.43928959126324 0.5187930821192097 0.1300296857272922 -1.1904973825495757
P 4.039519229123631 0.9379226793098846 8.726625105191424 0.9393975342811242 -0.02942550434996868 0.48801363484450794
P 0.9136093573163373 7.622403850905123 1.9287480814099072 0.6449267752262055 -0.09470684205628205 -0.21544893183406122
P 3.382246310191014 4.31936218217957 9.623570224016312 -0.0586085536718281 -1.419863438685361 1.9223960930816508
Ni 0.3146190990847199 3.628377552786425 7.903831996982173 1.409571826951366 -0.4987400201230765 -0.9406152087383092
Ni 6.365755606610254 0.8150046670789222 0.9269005911087298 1.4480602128345512 -0.19436100081551042 -0.8247792980128956
Ni 6.551486319286178 8.339683064361578 6.245175501958142 1.2306145622854354 -1.0823428996288198 -1.5476565217726506
Ni 9.348696470598558 6.890739629639973 8.564688790709193 -0.6574261932447968 -0.9616509463626859 -0.3011101187483073
Ni 9.05893345479628 2.5001400282930666 5.516179245812388 0.17628126049566414 -1.9074369006686567 0.9401629516922388
Ni 8.69851978878763 1.8444165461480015 0.6727425324925973 -0.7969589333665178 -0.36173878817395766 0.5285805005232767
Ni 7.126290694407958 6.391582609157795 10.214891228562797 -0.8301786146515961 1.364380060906076 -1.372049918746508
Ni 3.6992299048231283 8.238254548499512 10.045802750542286 -0.2465435963563367 0.7873653761408117 0.06515278254824908
Ni 0.15592835041783493 3.9555195850552716 12.602611824893694 -1.0478466656241632 -0.12038187822488298 -0.2506074820130652
Ni 8.599603377539701 0.08010679874294664 9.762896680144802 -0.0033138948645813895 -0.7068150280905698 0.2801353162688531
Ni 4.880450832838758 1.4373272429474708 10.72085660264519 -0.06612517376384741 0.49611209558192626 -0.6195538436790555
Ni 5.6259041246866195 1.0003310592676795 7.077563199505697 -1.0531156273325863 0.8997398106801859 0.9571615431327645
Ni 5.540520072600981 4.318307831702833 3.649747861710125 -0.2795326496878476 0.12094572114815298 -0.23138951432371763
Ni 0.6671984826379656 3.7977337441453773 1.5052411660468343 0.43031448036082665 -0.09149990508321017 1.642151762038759
Ni 4.969960604181193 3.101119800032961 8.59651825636212 -0.31642335206660993 0.30454871211621093 -0.3918271229189058
Ni 4.996071822944201 7.684399658937238 7.7310936326591495 -1.1410257581820091 0.15712139973776165 1.1224112284046155
Ni 4.37182299459598 8.873321929565552 13.33013290719852 0.5310670143905563 -0.08711026065594675 -2.0234705292271733
Ni 6.950745924163812 2.776068132187557 12.594882977485964 -0.6671732453292316 0.9876797663262797 -0.35181098753728446
Ni 0.6797736749326785 5.517241847727638 4.895833347881094 0.5523603765516939 -0.8056117239455094 -0.9026850093514388
Ni 4.634567133398754 6.08859895520374 9.756213931775294 -0.18750052625025126 -0.08164589510726583 -0.03914453140994549
Ni 0.9817011447569937 2.0139744393372863 9.830299014056322 -0.1581794086886308 0.3932443149814066 -1.6920908129610472
Ni 8.353738014629728 0.839990939724578 7.608406660706567 -1.0580434036515067 0.08110184967833775 -1.987721910872654
Ni 4.484766851317013 3.940346106455279 11.843100832298179 0.13219609725099166 0.4249172206046553 -0.5350640513650915
Ni 2.359342982456155 5.422955410312336 0.5333198095814493 -3.654317407776074 2.1431291561327868 -0.9268749763340811
P 7.757663264672913 4.5406015852589805 8.417217247941286 -1.5229186527063383 0.42284388301539433 1.4950859467647866
P 4.080684739041436 4.936193884130574 2.1167836959106268 -0.10009047496569858 0.5818604428933399 0.03595559215900259
P 6.2778227768504165 2.1158063588600173 2.8739870362018425 0.5108599433150621 0.2668406560424759 1.1901777944266276
P 1.1392761155715407 1.4958116054788024 7.107164776759955 1.3018958263289255 2.1773618520634113 -0.571627452311422
P 7.766107236751822 4.225084913029282 0.6526301095289694 -0.5575897432714333 0.610243107801091 1.4268200725088522
P 1.4906773770703459 8.699638317119472 10.305038194323782 -0.01945090963576005 -0.3901286521705604 0.342812640693416
P 4.703439140192196 1.9950878134061776 12.71824106643765 0.14765665478043605 -0.39663508583051044 2.1503310731978647
P 8.14413313985448 2.5106651965304025 10.683082433956471 0.053165014058753596 0.9053497006677956 0.1144886526688996
