# total energy = -340859.9809346756 ev
CRYSTAL
PRIMVEC
9.37495336628284 0.00000000000000 0.00000000000000
0.00000000000000 9.37495336628284 0.00000000000000
0.00000000000000 0.00000000000000 13.72119188636427
PRIMCOORD
 96 1
Ni 8.405011136357027 3.4953200385424488 3.3052288006751134 -1.2667388188118185 -0.13976773895066252 -0.177910568568971
Ni 8.222696422140762 5.21191146302205 10.748605053540503 0.4210677649515781 0.27106934941184285 -0.3435459193150148
Ni 0.4384187473056082 0.2509646837638259 10.312889105232609 0.955612967698722 1.455275499636068 -0.643944356708278
Ni 2.4214379033007867 4.603270753588806 12.862752616961727 1.1029024689477265 0.1398441007145527 -0.24751778734414792
Ni 7.2431169407943745 4.643498677623463 5.179776936055469 -1.5565196285902354 -0.6221611993949157 -1.3126448373153135
Ni 8.0713190533718 0.5296923538329967 1.9960906531943212 0.5827847544798221 -0.2576466482480337 1.3735784395758923
Ni 1.1947534064089524 7.53841859056545 7.797684795357634 0.8989296560740647 0.18423034013941175 2.691631592390971
Ni 2.467131425031134 8.0915783271632 3.7285557483743372 -1.6267089451211276 -0.2956606655979618 1.0617123678626617
Ni 8.026394277801053 0.7393913062467055 11.820092825743608 -0.09521592048221666 -1.491379958668109 2.1378902763313503
Ni 4.26191933386708 2.6919334269950252 10.943020957303244 0.3794156366284304 -0.9187274075262822 0.7125426746029664
Ni 6.852528267045611 8.494195065823748 8.853557645567701 -1.8921419221827995 1.828989457894031 0.44185359134867774
Ni 4.524680521199494 2.964913313278214 5.585952406937774 -0.10387693859132434 0.40466901187858045 0.8899349087746221
Ni 7.106102000275492 1.2818279714133571 9.848604862142423 -1.9874406321868094 -1.243214767547949 -0.432006780461585
Ni 0.915577613578454 4.580527117208456 2.3594685253792083 1.3892639686319495 -1.4340024491899046 0.825689725642307
Ni 8.326983401157666 7.936544726659556 10.700855604580884 0.721577531111725 -1.1055933855163282 -1.5637629404162101
Ni 6.351212021455006 8.376539403592343 2.512720884781341 -0.7482671245877694 -0.26182726198828454 0.0187364000672387
Ni 8.316867826691714 4.738898201039142 7.02455022018109 2.097161945374053 -0.9422110924705193 1.5966344943332502
Ni 4.789851071495532 5.929826626556428 4.282932353893014 -1.3732447103855576 -3.1241510508229164 -0.9592292242950705
Ni 8.19180595145929 8.427304774985416 4.141425873312374 -0.023898403884152392 -0.15747724041528363 0.1463919291353995
Ni 1.0327167158904198 3.320345912655044 0.3987805078250824 0.16191727846450824 -1.0574301955475403 -0.7294764742438276
Ni 2.031392976835642 6.367393190619261 0.9900550540139076 -1.8289609186489406 0.6868802368398557 -0.26022649316006796
Ni 2.2844604625945677 8.921336681966155 1.5345776462599607 -1.542346679523963 0.5263703802458354 0.7677278044155423
Ni 5.506209992804378 5.100687018662418 1.9519627486426703 -1.3658494463627509 -0.1838981536109736 0.37263486626117115
Ni 0.522616139183414 4.016436185219327 9.04319794818776 0.8475448738441855 0.3187183187483737 0.013614505459641069
P 6.913184214028654 0.5893339308834945 0.177522238157882 0.7561470415564784 -0.4613502666207086 -0.703734332282717
P 3.326749005667319 2.489940686083645 13.070106893588656 -1.2200182748268278 1.3400119164743567 -0.053364531664069376
P 8.896230557388012 2.420931655829831 1.498121265883924 0.43706876836552466 0.45760031265997314 1.2116022828489907
P 5.917536062956 6.225193900999664 9.220613311879552 0.5345557442701052 -0.6366236546771488 -1.1752813369307695
P 0.019703339068664682 3.26983366499745 5.188421580369698 -0.09980045452910553 1.6544534622242475 1.4647584994258387
P 4.688807826274012 0.4112182581902142 9.690906899949047 1.359966762329729 1.6506461726630153 0.5456289713651312
P 8.407214250351 0.6777200518358014 7.686075977918204 -1.6822784548563154 1.691190669744281 1.7710740736344852
P 3.0574628509314747 6.99817753943024 11.343858329852914 0.8003838998876668 -0.5014427637662203 0.09074168676094696
Ni 4.166238561856427 5.073349655230802 10.721725187823381 1.2614942825834274 1.807188045748223 0.8325291171616437
Ni 7.850688905566711 1.682147846548272 5.0073021726820794 -0.9771606119625107 1.7755159114559231 0.6614628252080156
Ni 5.248342531024539 8.464720213070319 12.71391867298666 -0.08245964925781284 -0.7482509266378533 0.3471585763669376
Ni 0.5390626195222628 6.385149351915379 3.8860746489622477 -0.5551106856033214 0.45758694292353447 0.5838252799291945
Ni 2.6289618665800183 7.035986725548108 6.251210333530212 2.078890400758375 1.3047394664253078 -2.730584319505084
Ni 1.7337850885857677 5.350820144080433 10.78834173002927 -1.1264859126946212 0.46273763388653855 -0.7733883451354293
Ni 1.974543260837934 4.100520140163826 4.700962453053535 -0.5139239269523664 0.5860485128327584 0.542877376761923
Ni 6.099869527078596 2.234923210066222 7.163614525462027 2.8001357453416613 -0.3640404397239408 -1.5146404718579463
Ni 9.03341424706388 8.444076566199119 0.3527129254634174 -0.12225569820882815 -0.7093912734581783 -0.27176920369234486
Ni 4.576936510145936 2.4194410382764606 8.57839339519687 -1.9792241578142882 0.08958186212489087 1.1690147871957672
Ni 6.044051055929131 4.9535658786307515 7.372231608280396 -1.2354670052817303 -0.1637237355456277 0.09533881921332613
Ni 2.200348382790571 1.7064758500136499 9.042169515825467 0.20591810952549056 0.33666873257920726 0.30518608858989377
Ni 3.826921506971691 9.202022779751672 7.871888487160646 -1.0284132394898997 -0.3626715844008722 -1.5798670450669243
Ni 7.006436873169353 9.154932389999614 6.2521843911641435 -1.6807090534866667 -0.32431458188922857 0.13189707795333414
Ni 6.248528159429463 3.9782426260216583 9.675525414289837 -0.039383901114261204 0.014683055933471485 -1.6867269775459723
Ni 3.609713217072137 5.865655072136192 8.131575627349978 0.5374001556974357 -0.3547150485579568 1.0552460434120279
Ni 7.781661125406566 2.706848977481891 13.476268302041213 0.26096208577451185 -0.1575165782936513 -1.6012758497600035
Ni 7.2913229499731695 5.925832896507776 3.219677665560159 0.8428978619904774 1.4814277325514034 -0.4941896817482327
Ni 9.25207565470414 6.327924637791036 12.768062777500703 -0.18259974651452424 -0.7895693257706661 0.5245868059828515
Ni 7.991191328663289 2.7543331152669155 8.477830147577441 1.1823192176141575 0.27873792170069417 -1.4064602779055775
Ni 5.611621966201184 3.475923260442307 0.1918265416983343 -1.0002699442864644 1.735277118540534 -1.1046659886060524
Ni 1.8166034248528773 2.597612023193419 11.426047606762594 -0.45475615834295874 -0.3225603182022832 -0.5069030155498431
Ni 6.014744952332689 1.9633214418984128 1.9925506708788967 -0.14054035545062893 0.04322332946500943 0.572167383975292
Ni 1.8116253247218115 0.8331689627646922 13.459501198304093 -0.2846103213210711 1.0170931864913904 -1.2815553149993604
P 6.405183626830798 6.878496887315012 5.056039741705378 2.9729933248677574 1.6146026487758967 0.0006098656698570142
P 0.37355438384641615 4.086270211351735 12.120916322929368 -1.1441455347579135 0.6647270977815842 0.24276690292272382
P 2.718380169875885 5.853083259940789 3.4639973825200308 -0.5218071863551851 -0.060641524941456845 -1.80974912160718
P 9.154707391123633 6.572892164014669 6.172258227948698 0.6838280802770933 -1.3826222949457156 -1.4788905679518465
P 5.866076945028656 3.5821602297177075 3.658234224677305 0.6409994151473412 -0.3093607887928737 -0.06253359975784714
P 2.9207947836797294 3.9338803476408613 9.511145922975158 -0.9652229799846601 -1.863399045722152 -1.4642144539969106
P 0.6742297567721559 9.031464256805384 3.055077862846083 -1.530067605046294 0.7865979018471678 -0.2629726884466374
P 3.6591004703498293 5.0397404481312345 6.097848287176039 0.16024888962314981 -0.5662921561414377 0.7213826414920995
Ni 3.896830532729426 7.406512999521955 1.826798686420738 2.757251801493942 -0.8872995280343041 1.2017657563745432
Ni 8.572504049618084 2.7291238662039476 10.824977172010776 0.5675882492450418 0.8692151597287675 0.6055737273498796
Ni 7.950307157907022 6.91027797854724 7.971957674748233 0.6062190742433624 -1.655126834142188 -0.27081789552266905
Ni 1.462408319293939 5.270308046292123 7.010719351775512 -0.7035489557447884 -1.8740372421622884 0.19998914563556525
Ni 4.07395152289181 6.079235255160563 13.633595953584539 1.3141144798823043 0.48248910548185286 -1.5761572003155049
Ni 3.1898559395395933 4.335915839205127 1.3409558010303664 0.5319170210956775 -0.9930441159619866 0.5917424778937422
Ni 2.8098703378214047 8.310867856665572 9.567951576692986 -2.696108397215402 -1.1379594605518595 0.3770643627874345
Ni 5.037546709090425 7.305113506080134 6.58419648254205 0.3803628310330482 0.016727082946693773 1.0781329753125304
Ni 3.6804659886147992 3.274830515034848 3.501497195183427 1.5310502806745374 1.7435694404563133 -2.757637724078451
Ni 6.457083367556938 6.897696791398671 0.42342538470746605 -0.08431598574026125 -0.28942805442468866 3.022776052717839
Ni 6.0077887370836285 1.0956601514459294 4.2860748381942075 -3.4689370131926194 -0.8346819018385884 -0.6462089843727388
Ni 3.5231730243981856 1.6189512872572844 1.4772235577819302 -1.3339032324734577 1.7398693658969067 0.9368436575110188
Ni 4.953875252085224 7.7429050690189465 10.343143954089436 0.24507729622345537 -0.6427714194460995 0.7193231878599096
Ni 6.200162776046848 6.0396354529880165 12.090043664658909 -1.345411233113057 -1.021033402086061 -1.329021478901124
Ni 3.2908054352294545 0.24070098503785448 11.347260500356802 0.2594199380983726 1.3164351575956812 1.1505925759348379
Ni 4.5291898736722676 8.152881145914685 4.344815482245467 1.907196759633393 2.190683251762666 1.0141868114778727
Ni 2.884569964646889 1.4060554758140213 4.204955243440749 3.202783870135471 -3.7385290067279873 3.709387352167025
Ni 1.2937716617466486 8.144096814798285 12.04845449742457 -0.7808538002745391 -0.17653040039199275 -0.6299326158102184
Ni 7.6356087300358055 4.7042952489039935 1.1503395657857431 0.9399125262443295 -0.4140221709587063 -0.41823209527499583
Ni 4.9528065074243175 1.2780967400533494 13.461984623397724 0.675401803886611 -0.8744239576232167 -1.2047122405973767
Ni 1.3979742661850596 1.9556996049745776 3.001057507713828 -3.858302819055226 1.3461486254997141 -3.2247444335669626
Ni 9.31115660955532 8.660159861718771 6.486116660016255 -1.5331272178082243 0.25621300112530065 -1.704751182037535
Ni 1.9117873243457413 2.6481242708510133 6.697999976517606 -0.13890050585436078 0.12812141296098578 0.1642191871248075
Ni 0.4633954975300629 1.2372031943439163 5.193416555416463 4.00891161448545 -2.093836994765878 0.0195475831146244
P 4.743135679870106 0.7516284326140881 6.313435647673217 1.6641838021381339 0.8871136372757432 -2.4407513163324936
P 1.9521183728652234 9.072704675781953 5.908687982158073 1.3551215184222856 0.8031534922130039 -0.3845035926742991
P 6.318080936966895 3.963495824691778 11.685968183285755 0.10480973481823884 -1.2572558190220477 2.1971629459497386
P 4.438205953197704 0.12381875644263304 2.6100722734461494 0.3584634598567955 -0.32849673829137616 0.5285959271422445
P 7.411350475355533 7.662008598150837 12.47478611761345 1.3191199035166958 1.8030236299578886 0.8815132603698304
P 2.9680820474482714 8.289792961948743 13.335378693378885 1.5558118038899336 -0.24448568538604348 0.5932203479908493
P 9.729045146923037 6.345193301522531 9.28547298786216 -0.9113100320162886 -0.8381032688153114 0.938779698191467
P 9.251531907420521 6.098125785789748 1.5151218059548746 -1.526466517958597 1.9655528309747827 -0.6303414212128629
