# total energy = -381167.5935087027 ev
CRYSTAL
PRIMVEC
9.25256011291682 0.00000000000000 0.00000000000000
0.00000000000000 9.25256011291682 0.00000000000000
0.00000000000000 0.00000000000000 13.54205698836092
PRIMCOORD
 96 1
Ni 3.5235600128770708 6.566616064332126 6.348096497250249 0.08773838115824889 0.4402733913457514 0.7228535696106713
Ni 6.488219120922885 8.728449020397168 0.6843600709428203 -0.915519956332578 0.4277341212281601 -0.27450074369089494
Ni 7.508933815373176 8.1429747623886 4.883401397900265 0.14266922886817368 -0.32686408778395964 -0.5357057987141484
Ni 4.113410731906831 0.148193632021022 12.913665171756584 1.8366850267660755 -0.6812109543692204 1.0908751054695471
Ni 5.6112336981495865 3.94495861911223 1.2598498911332694 -0.9361743993581361 0.8494528895001757 -0.040665081819529963
Ni 5.033300276784302 1.5801059849773693 10.792437076561537 0.9757148806549196 0.7886990073505706 -2.718788355311421
Ni 5.247506300255015 0.6236975098577251 8.350466202850688 0.05741350492246241 0.9867927357356359 3.2834643160056745
Ni 6.8897894904383445 5.54122882693109 12.19371512762556 -2.1630557198533844 -1.2075574233556559 0.5458148621236922
Ni 4.882733363046713 8.84721488438879 2.526893647898627 -1.5781819440550173 -1.0400248555868992 -1.6936918388995799
Ni 1.3593769064962091 2.289712591950693 6.877766713586467 0.104498117115091 0.7590469888120928 0.3892971574082005
Ni 4.934806772406705 7.146113168387858 12.566731170803802 0.7639508538716133 0.18618437854198902 0.28968079386544304
Ni 4.209045195152189 2.4319614539799255 2.483924757872365 0.8737012205245792 -0.9725634795101314 -0.008401593800133916
Ni 4.818104229361648 4.54911379636348 6.632628455781818 0.15398902475636705 -1.281610593717328 -0.2927697172034119
Ni 8.330181814908274 1.290223270825175 7.187176030992628 0.40247766065421653 0.36264458781767867 -0.34412287486440735
Ni 6.570187552607349 5.509575818149901 3.977925491455807 -1.7512017601905903 0.6084731603848618 0.622839713519179
Ni 6.97733721598281 5.228668087487256 7.631247110983247 1.799530014982333 -1.4679916616511557 1.185341806490565
Ni 4.1184256195886215 5.910942631338793 2.7132050525814044 0.7514797179877961 -0.5604459817733056 -1.78530795784568
Ni 3.3159880751403863 7.398180668600058 0.7762500230353734 0.1327062041181908 -0.9322290415571429 0.12417554093936034
Ni 5.2070170963887525 8.596933128314202 10.75873092465011 -1.075707139479857 -0.27699959885334874 -1.138748017891426
Ni 6.2854955247826165 3.8618798801919443 10.447981836512724 -0.5207934003786902 -0.2598863362118299 0.08649448144881879
Ni 0.22264898474310016 0.3026447705719236 5.322136526366735 -0.49854333073123824 -0.5202938350344524 1.150267331384935
Ni 1.9947317170740222 5.805546716978512 3.800998033427774 0.7584183540891584 -2.3357256088487066 -0.34149957830894734
Ni 8.944153958636239 5.967679331089233 11.938461045646553 2.110481031080462 0.9673184290611083 -0.6099165776996077
Ni 6.520195969314521 2.937928461343429 12.821362555474717 -0.6145378785217029 1.3140445458763175 -1.0454365135207735
P 9.027991407501002 0.8364055438161103 11.416617570066844 -0.6025933045653171 1.409313688193973 -0.5072190041283652
Ni 6.5511272783924275 1.0461777403917798 2.786535293971184 -1.727604946707257 -0.7456973069780641 -1.0323879078669318
P 5.5311990515675085 1.6080672221994547 0.6618791251855403 -0.32648022208197963 -0.3274682970268618 0.3418243086382178
Ni 1.2303221954526469 0.826492350712291 3.4546191860929025 -0.47205145508829666 -0.2683722621956539 -1.6170698793694667
P 2.8268699800804615 6.639988867499279 11.95230102534106 -0.1980685315740847 -0.06787403813415407 0.7723691598422956
P 0.3289118640033525 4.248572132747407 7.8359627833557814 -0.49343609141165995 -0.5114412697398288 0.43161083057474703
P 8.311417622622903 1.9031313701188124 3.0968791199674945 4.343357114161095 -0.11099375214176367 -0.2904770645144933
Ni 4.2774123631978505 4.899387971584024 12.450648549298746 0.12288613270397546 -0.7671405644535046 -0.18074058181859842
Ni 2.358422104727399 4.488500273847968 8.321133736192364 1.0192485422714963 -0.6653924992797251 -0.6153683448427982
Ni 1.343795594953525 7.272928759839182 5.519552853919779 -0.04077229682135559 0.7567144840241742 0.016917344580628928
Ni 0.9027417748762495 8.332189620493049 10.954008060262138 0.07224105685359816 -1.447589958066352 -1.0392108443260362
Ni 7.328897497084845 1.6428475963615388 5.035383953363525 -0.13449080682243936 -1.910597814895142 0.9136685049461362
Ni 7.6015149337200265 3.053233867783412 8.482717673477383 0.8827659018300086 2.0048500859125085 0.47160305469696845
Ni 7.451845518331393 1.214750136470261 9.83715371277419 -0.8436774204689793 0.016159640478997976 1.09207298243239
Ni 8.922549230339227 4.106767393612504 13.46080514719241 -0.6580090623314604 -0.19819528695993607 -0.4826755104610462
Ni 3.1158551958837006 6.323856639780224 9.766937883180889 -1.158776911517843 0.9752973335015268 0.49697110114811177
Ni 1.95318772133373 8.786425563227606 13.02721536750794 -1.2214840607390771 0.061341636332275 0.1532277211103103
Ni 2.1841871417462317 4.599031359173921 5.874327474469516 -0.06065489467789553 -0.7387573853251213 -0.13890359117815435
Ni 3.7783755234979273 2.185676803954291 6.959832297154065 -0.24385165134647033 0.4319013652319723 -1.379034063373825
Ni 6.179748013130991 6.82373546246731 6.503870751923837 -1.7014048912731217 0.8972263002297127 -1.6611475864149714
Ni 0.7226721473708443 2.404351814049183 1.6007660268679034 0.209910004293703 0.46014776167217525 0.12164788942150016
Ni 7.270254769912913 8.168650617216954 9.134753925017373 -0.7009241165274316 -0.4235897600424834 -0.2690152950962915
Ni 6.09293123985011 2.3139265422518833 7.066354248102677 0.09970249549866055 0.2163454755064016 -1.4958829887447849
Ni 2.7811160694043493 1.9399750652274632 4.7456242982633015 -0.3419166112417079 1.2822153171808628 0.1133735652278499
Ni 9.234527058484254 0.09406337850667212 8.892947514176216 0.18993099006861483 -2.6920810212235637 1.0507499553138873
Ni 1.768700921541818 4.860249641521343 12.838439080761642 -0.2143580127627276 0.3517299977877039 -1.6167556905631577
Ni 5.140805774892644 7.405360655391699 8.671467127798818 -0.8481272287102167 -0.14734760818044945 -0.23294503173629558
Ni 0.415163305849996 2.165506222503548 9.153307158927937 0.6840664215401445 2.1554285423254296 -0.5610825869160402
Ni 4.813940577227321 0.715297856812935 4.461823291995315 -0.18790213256404414 -1.7034463471831822 1.4942948183220588
Ni 2.7200491714342094 0.5906927020169241 1.5945233244345014 0.2932284020073853 0.9404110631473029 -1.5363729784390314
Ni 4.809508600844336 5.058920616250865 8.851440528677118 0.8005708190874922 -0.12596862828404112 0.47631871500508294
Ni 7.732077812092245 4.618868848453918 1.7885939261836061 -0.21147786300145516 0.6002636279908758 -0.5302658586454997
P 8.19488162566322 6.008344333601167 5.695058193429932 -0.24869458126106844 0.5668662834773527 -0.48812367805981094
Ni 0.36438247916370525 2.8622055078604562 4.847582886472688 -0.27935961444509305 -0.20762712179679724 -0.8991091190747225
P 5.765529393687473 6.544021312083174 1.0920584111439815 -0.8706670616839457 -1.0834281622731987 -1.0384004326095988
Ni 0.30899572796081826 7.28551224184515 3.5550066895636037 -1.891835189575658 1.0549241412962347 -1.8597694193893648
P 1.8632620877925496 2.0902921598369923 13.226838430692178 0.33256396638221436 0.034268434264566786 0.17021474258661007
P 2.3577559203859066 3.416285828776192 2.8209594445617756 -1.3001143089484706 0.09118545916658488 1.45607562693986
P 0.9768945688765663 7.794384553142385 1.390227718299518 0.32340261159792044 -0.5002418014795837 -0.19060461909687174
Ni 2.6654590656730237 7.997302453048921 2.958844799154232 -0.45719742079459974 -0.4424148631687864 1.2750226560871654
Ni 8.539049111086749 3.2792924209965113 11.136378799513784 -0.011497716226954391 -0.25007783476184026 0.37782155266843315
Ni 8.444728511403778 7.576588536275852 7.213054516891519 0.41597518092001906 0.5437469238510699 -1.4174895391365459
Ni 1.655884453822134 2.526328316464388 11.004438214913115 -1.7873738392357734 -2.0732344880241778 2.591182448534273
Ni 3.2712334409765127 3.6846748453549565 10.411647957476521 2.954905099907479 1.496310563200507 -0.5588814654996633
Ni 8.245141533204704 1.7130190136654087 13.508324446373479 1.7134404822814167 -0.517803978733063 0.3192891036501791
Ni 1.1075407202914718 4.822813782553587 10.323868917924594 -0.06462133552481128 -0.2442514578880503 0.354789353439318
Ni 1.5842973947925925 -0.06453475757001995 7.34924757820538 0.5721676410856081 -0.501964183487329 -0.7153338641948583
Ni 6.874439492903123 3.3134991364200883 3.513947527982953 -0.9652561472154407 0.46914482296446297 -2.286763834238023
Ni 2.902176568350002 0.3457320933700066 10.861095700256602 0.10970408679606268 -0.6323761922547044 0.32393148751819695
Ni 3.017657773435656 4.322712898419336 1.0614194829715087 0.9941566322998749 -0.35912988979620086 0.4003876108944073
Ni 6.796125822536569 7.438993712076768 2.6806092079057975 1.0099393490554283 0.4948543119154252 0.4796038135142579
Ni 4.008930821016101 8.807132793175663 6.936688868079412 -0.9252361551790774 -0.39171682259328666 -1.9433284723589435
Ni 5.109152766111454 7.276509500674703 4.326362108201067 -0.5673905314119391 1.923245328455823 1.2358675831542587
Ni 8.736258181289106 8.55025396160824 12.91449142539124 0.7773637848434096 0.43681757158666706 0.5288851762478891
Ni 6.746050966201054 0.5148032024485777 12.201989692300515 -0.7943106971103934 1.5453492137957128 -0.6668986515116063
Ni 8.050486169644735 6.857248235868499 0.674279406497598 0.3164243805078744 -1.5170925329428646 0.3776120077607884
Ni 8.685359847087025 4.95441294767924 3.8454297532372306 2.806542163088637 0.38747398815653267 0.30277233694207856
Ni 5.031107419993556 2.8548497224231437 4.765625557860582 0.04075558465080723 2.113777442443547 0.9395903670182205
Ni 6.641108427295398 9.00533188732996 6.89619781370109 -0.5226327675802741 0.8843183339187932 -0.7893623519661824
Ni 7.170650958299496 7.786908484421192 11.375368731000075 1.1354706326917348 -2.3437297101001056 0.017055155710073853
Ni 4.0433225876456484 2.3251128876527773 12.474036245965278 -1.7211450500145262 2.765865768415198 2.450596070337057
Ni 2.880173979960155 1.5930133065937853 8.948956962687193 -0.37045997009703946 0.21086876866254653 0.10079367168031028
Ni 1.2271115570290652 6.6968365979733 7.621849285488054 3.3500047229300693 -1.058485890505564 0.1424645690565353
Ni 0.721757069157322 5.4346485848525985 1.6661603472896547 0.6804149408304863 0.5456827074212022 -0.11082483066406719
P 4.8212130896219465 2.864083777601053 8.809907636009186 -0.14575583821329735 -0.12845205682752714 1.044947232589181
Ni 8.56561321170376 9.137726772641283 1.82387116283372 0.5241612884096585 0.5477902406825081 0.5084950426273114
P 7.019510385823399 5.814567963269555 9.719757227706745 -0.6313634347194739 0.7717613510549677 1.2474393471522582
Ni 9.089742994933232 6.425033386644387 9.15428145352737 -2.015578785183922 -0.43712070464938263 2.573434123411916
P 2.6421981290825793 8.992572606678321 4.986686803256458 0.4135321186961652 0.17266526100963167 0.5272730945657629
P 2.915222678370896 8.416869052344977 8.942551415192538 0.4037634693451756 0.09922375609002912 -0.20569236666792962
P 4.273489277631284 5.321721086409331 4.755672578747478 -0.5582967966407869 -0.6526246580910954 -0.16189645252890184
Ni 7.413604686617668 3.887194885168657 5.601685981177558 0.026515272681709175 0.6509778665162917 2.1652892371695933
