# total energy = -340887.4979180285 ev
CRYSTAL
PRIMVEC
9.11801389854801 0.00000000000000 0.00000000000000

0.00000000000000 9.11801389854801 0.00000000000000

0.00000000000000 0.00000000000000 13.34513500349727

PRIMCOORD
 96 1
Ni 6.229509102731519 2.2761115534143483 11.101684226242899 0.4703789524818803 -0.06384640503199972 2.0187363569762975
Ni 4.558459828280359 0.08040994026010886 6.036698670730081 0.3293356892529038 0.9419061596355907 -0.9124893970363703
Ni 2.7406196493696924 1.6198516268618612 4.746170555153268 1.4181580259584803 -0.040645541435504196 0.1997559465788366
Ni 3.9090110580500808 4.163978078448936 4.956929797355871 0.16181803388248261 0.7729818537256301 -1.7341077808227812
Ni 3.9167157797264758 2.4725044530449654 2.656695626584042 -0.661453826346951 0.38966636782216113 0.15279371889668525
Ni 5.316631795279079 4.421133422164164 2.8246175280672703 -0.030724425667050314 0.5483407138693395 -1.5962529426241154
Ni 5.128162449656494 4.803588511769355 11.450579554188755 -0.9204559601816148 -0.4008488668015419 -0.4344303023014131
Ni 5.949795792830018 8.134517493744358 12.302839393976294 -0.5740759138519146 -0.4485405164505501 0.5024822607743281
Ni 1.90787144735176 6.697901472573424 -0.01210598694644924 0.8755071633850664 1.0086658816596434 1.345038680264987
Ni 2.96977357264917 1.7254655809182906 0.5625103320763243 -0.29373670910237154 -0.6589806822161102 -1.355282726590498
Ni 8.003847237715462 9.267184524284964 7.145666159754372 0.47227385551174794 -1.0636373527995167 -0.2581904365666457
Ni 8.783282412938268 2.4140671024840006 1.3276475498307816 0.3838685301934615 0.7466882101364237 0.5525213276095904
Ni 7.347259062665519 0.7638470187991795 4.945786672668626 0.04552935189036675 -0.03082469869034046 -1.9550992397416265
Ni 0.9966627364280537 7.508812031496722 2.3049582137310476 -0.7719706388522963 0.006496406357621069 0.5851964492451083
Ni 7.9914193848812305 3.9962613322766174 3.4771418043584332 0.06159283311113263 -0.6188359916764244 -0.6310284199775584
Ni 7.768356294832324 4.032359548982946 12.673153848182528 -0.042151179446753215 -0.4228942766373555 -0.6415218633097145
Ni 8.230657831443658 7.6766473118486775 9.083192123447125 2.0400546588380997 -0.7652718866758821 -0.7588798671066092
Ni 6.628075722753504 0.9055455125412103 0.222286235271595 1.1528037246535436 0.04849974737260034 -0.37897212133310865
Ni 1.8949785758127984 6.680422240083899 9.024407376559687 -0.3118542446386887 -0.16474317794907756 0.13276148283615846
Ni 0.2761636671220687 5.082080007819215 1.0415571010648181 -0.32133338777371756 -0.8967884413613457 1.0915623613445589
Ni 6.444539222606575 1.9219678967147262 6.775484828549884 1.4126633213924962 0.9249530767210199 0.3147307948555354
Ni 3.463705499195906 4.676383100991384 0.15638761400318152 -0.24152506009582278 -0.7928461967497249 -0.05626910690537405
Ni 6.265124064705482 5.74552492926046 4.516967394599171 0.08818112512262233 -0.41917954678992975 0.37126009740083155
Ni 5.367318834094558 3.52102133405723 9.209010684323347 -0.2428144683312076 -0.5348807317096917 -0.8036967663109836
P 0.25441082155594386 5.584026668512166 12.320655992977093 0.25125540000970925 0.2492224287400805 0.4675607663067947
P 4.212777688404044 6.523227681857804 12.426162354470469 -0.2564629123525777 -0.5312235945730786 0.33545542899739644
P 2.347523837638639 8.715462626158358 1.1227138066566391 1.4963383311146488 -0.08672870894681192 0.3221828802582064
P 6.709262517790925 8.004102542102373 5.8058405906679775 -1.4995390974401335 -0.5461365071291691 0.29105504850515035
P 4.760077349828815 1.2703308031680758 12.449943046309766 0.0698681857460474 -0.025805648209194267 -0.16689056330938354
P 4.250033892865286 5.948728985213286 8.116137401489592 0.6486605312370248 1.1081439198523237 0.580249132542162
P 4.915922442009812 0.9272746512714078 3.8514864206723196 -0.12542741106859043 -0.7111573642196655 0.09270678090711776
P 0.40810497427722353 5.5730850519303035 3.5115586593166825 -0.0649856608427655 1.44469849545117 -0.4271201417932451
Ni 0.9347058325332563 0.029595249251174918 4.493200379780602 -0.6070503118954061 -0.7759720467022055 1.0459440492848116
Ni 2.3476241357906393 5.919268682566621 4.589192093854665 -1.6218302768725874 1.5522870785661267 0.37966580496602353
Ni 6.5392936222055065 6.101993679483728 8.953104508501214 -1.5786732818691391 -1.7960099176442166 1.3114428465874124
Ni 8.63887131008532 2.542494327113614 10.182685084312906 0.7227116447161682 0.30521077118024215 0.9699394116237231
Ni 2.5213314170415275 5.51463858335552 6.834323371718852 -0.47223991695001893 -0.341790884297121 1.1963134750107203
Ni 0.798943165786886 0.11983440840732378 8.935301586521142 0.7601386792143748 0.41017708618100335 0.27554461157437704
Ni 1.497770539849728 0.9524677234511466 11.39360929205114 0.13169936012023126 0.8375173144048543 -0.9057893593083756
Ni 4.052127402940845 7.171263159946259 1.3885750299655024 -0.27478767880369454 -1.6532738400938496 -0.521662947467837
Ni 5.757925428053237 8.201270472907538 8.045355172020141 -0.18214646102718954 0.1342403813745301 -0.6019451294583569
Ni 5.836358582917556 2.7967227883931933 4.434094678806762 -0.08240257076763227 0.028868346294918024 1.2801257816416858
Ni 0.4698658408749292 7.5553412560110935 6.74661993220555 1.4537243530988642 0.4135508877492426 -0.49944090284484305
Ni 5.3749597296742255 4.707448174070056 6.751050375119822 0.6755704682539913 -1.092530124574467 0.58882710401916
Ni 0.7795883578549526 7.4004809093224635 11.31644718831308 -0.4122113430022127 1.5156483442971704 -1.3560856821077678
Ni 4.643157058637795 0.7332962016998553 10.18783585031882 -0.7348603642635602 -1.0186844422379102 0.33028674031226346
Ni 8.380448562449358 7.281654953243435 4.660641761935611 0.36597828017660194 -0.31677096521401577 -1.178793720959402
Ni 7.28505597239763 6.13699773453187 6.74305661240539 0.8895574708305454 0.46636571755742906 0.25220285152464306
Ni 2.4614260662558296 5.460605233468756 2.2156262969498117 -0.6889893127630585 -0.9733754338884657 0.2093657017544588
Ni 2.453447804164888 5.612237803265736 11.325642705248756 0.5140182864383858 -0.7769760624866876 -0.27192629809549945
Ni 1.3743946948754082 3.6274650273711173 4.145399213492933 -0.11863661339900215 -0.5751177248528676 -1.4257949736784477
Ni 1.743683372527092 1.1403808702308202 2.653613737913484 -0.528260912400329 0.759799293597085 -1.3016937376204485
Ni 0.883365943928393 3.6770487865145918 7.963469025322862 0.9451442069569144 0.35896328231134955 0.5557848288522106
Ni 4.295687788053108 2.578364593474487 6.5673543097310745 -1.8588885594463083 0.35962457004443227 -0.36487347714819746
Ni 4.4873393204982515 6.788735126230521 5.925292954296318 -0.15525220773950682 0.3414031619403991 -0.0716810705850701
Ni 0.6031994687401261 0.2172257376024835 0.09377056590794502 -0.03094348365639187 0.5697382057085092 0.491144981384638
P 0.16698912866962465 5.882194838381743 7.95811766301295 -0.7469216663034685 -1.229644227952366 0.8574382216984976
P 8.779863157756438 1.801327455885872 8.117058320885231 -0.19100185453529042 1.2628880776071605 -0.07957821394495972
P 1.8175484024684836 3.1989822040115565 10.157996238297315 -3.038967317765721 -0.4546980514115137 1.7297991261450985
P 4.0969880309264814 6.155425240458491 3.4846550477446456 2.2918967845892144 -0.19827807648172946 -0.15274589637788533
P 6.968396470504706 4.195015797486153 10.57544535313545 1.1179048558938294 1.478003537361203 -1.9099121016820269
P 6.586716412074063 8.17750892889726 10.166617320362441 -2.4299028036537638 -0.8070258306842166 0.1808933053463788
P 2.462255805513287 8.206768635239925 5.8739412122734915 0.1964767616069326 0.26231165782387084 0.016799845166158164
P 7.02346015595293 3.825116212908649 1.3665021421143582 -0.5546201191201481 1.9722636673360547 0.2759027662447442
Ni 5.168427598677749 2.868992165916396 0.44813487854196815 -0.49604936066479083 1.7165471462311985 -0.7960209949332807
Ni 1.4953269121464456 1.4441110285295098 6.79519615082211 0.6063633131307105 -1.2432618187358009 0.7985427329138698
Ni 6.903713280478262 1.0041030357037204 9.25064718262286 0.23840451218897005 0.3482934613023292 -1.1665195315777395
Ni 2.965980478900791 1.9941278580721107 8.85118699724669 -0.38912129395196854 -0.6442444044472001 -0.5278557065421102
Ni 6.323324346907173 2.042425977267216 2.2615199959010526 1.0483328612319625 -0.9082912997946229 1.5452391705804096
Ni 4.160257928811103 7.33184961931273 9.925737631312733 1.8209848424219994 -1.5052356336042787 0.7133605425185714
Ni 8.596034881167325 7.382855788611846 0.0688610639579528 -1.7677763767198198 -0.618151049794258 0.4618056089905724
Ni 7.490375407556283 3.751816499823987 8.137675973730989 0.7841784937723979 0.4065310047879837 -0.16479537134325167
Ni 3.612493248681602 8.599891801012433 12.205807314525572 -1.9258989640285864 -0.1142153444028549 0.8656187006267609
Ni 9.31277459337606 5.038997392528131 10.285362126118489 -0.4108512294298924 -0.5956374420727741 -1.2775742188644257
Ni 8.85484970339747 2.707393607016103 5.913256264254887 -0.5115950217088738 -1.5421276215346214 -0.3886189003942533
Ni 3.41806984003572 2.799695260897933 11.520080702716745 0.7084854738144573 0.4506711896403077 0.1316515376014313
Ni 1.1511492445501366 3.2886943419690122 12.715217981330117 0.08619674770274187 0.1499667909708514 -0.6314637077427641
Ni 3.1919066252886186 8.586296842409467 8.014313805777396 -0.5053726949482457 0.5022449479525415 -0.2835358573099698
Ni 5.981699723179966 7.867870297644365 3.6087512158106048 -0.3853795675213492 1.1516701252697326 -0.6355916138682086
Ni 3.4820235889567077 8.250033610807373 3.7873758419136587 -0.8399927725285404 0.5631109301999786 0.044158953905401366
Ni 3.229199301805134 4.411404501420124 9.365108345487108 0.7948102624546312 1.674028813253014 -0.9120276269086035
Ni 7.261668266953899 6.402550768973677 11.421526826759763 0.7528966529399808 -1.2762860961806213 -0.3778320941913944
Ni 8.113874310459911 9.380977336736336 2.2365375498405147 0.5035086451563136 -1.2373608798703333 0.5068834751658174
Ni 4.744914092849117 0.1264130553771687 1.6956059092663873 -0.004607416865024323 2.166707714783675 0.02751311781860423
Ni 5.856837641953276 5.576714021429955 0.31217070369021516 0.6606714396549719 0.4427879302374891 0.6404363435550195
Ni 8.052163592938205 0.03021253878666834 11.349103354803033 1.087171688476031 0.4716740171442199 0.6988317527747772
Ni 0.1614508470764385 4.994784143523588 5.8979753848969345 0.6514537777114457 1.101560095987219 -0.6058886874871372
Ni 7.602162256967648 6.28171884985464 2.251911432939414 -0.14620321016336113 -0.015202932992683495 0.25416048947164616
P 8.886671571623054 1.818861396458307 3.6500676718251004 0.18277175331601425 -0.20291994612911501 0.3143489860360844
P 1.834899982764554 3.3796556478195643 1.5567896196922955 0.9604178452865332 -0.124472760464805 -0.14575943775772315
P 4.853081090774648 1.2877553275746922 8.040777017282013 0.6391826736535766 -1.6428706424826542 1.35069947809519
P 8.452170859143468 1.8187975703615795 12.584208535187182 0.21650925477777552 -0.07307897937386125 -1.3624373353574082
P 6.568416558340897 8.027599663711923 1.263829659315686 0.31622820533666834 -0.9218199304086769 0.25757311469762095
P 2.290135058666769 3.4049854902065766 6.110470696930525 -1.2013728918114988 -0.18736271512080638 0.8296499958416356
P 7.259334055416435 4.042197885892804 5.5782795844025435 -1.3710078506352388 0.7864724320128972 1.483490271507387
P 2.45579113371617 8.483600652774868 10.220264978264696 -0.8793507055008726 0.935112533752525 -0.19935871114041795
