# total energy = -340865.47302800947 ev
CRYSTAL
PRIMVEC
9.28811208053991 0.00000000000000 0.00000000000000

0.00000000000000 9.28811208053991 0.00000000000000

0.00000000000000 0.00000000000000 13.59409088662337

PRIMCOORD
 96 1
Ni 6.437562570415193 4.094766349235118 7.238866569819114 0.40100801808722547 -0.23239712965262557 -0.11274981560092195
Ni 8.548425346571214 4.529338534000867 3.7938658860965653 0.6884234129572595 0.018230149854781507 -0.24816467689952745
Ni 3.5928832167264146 0.09733012576216722 3.1022526319189097 1.7094545010504751 0.1793778971431169 0.4717223538836522
Ni 2.333823904977551 1.5370432161229355 12.716551062090781 0.9261177864530824 1.0927103589060732 -0.05619197381053548
Ni 8.058533166668575 4.773272219742998 9.114212547337276 0.6979647767887914 -0.8715273528017119 -0.0011850214470366688
Ni 6.115729489237687 2.0434125067329014 5.062385139928525 -0.6648397121000486 -0.030176266473064154 1.142696975236845
Ni 6.590017640962022 2.7710710660024374 9.353740881552639 -0.4540863859694438 1.9419164225027652 0.6719750375932492
Ni 9.15267276155199 7.061287156282816 13.288943968118991 -0.14461992483664127 -0.2810092342333741 0.7519602571686405
Ni 3.9205399441347524 5.454564523854147 4.437573844955628 0.7923034368723775 -0.7007163713919997 -0.9417521505562297
Ni 1.8161138296022827 7.628985850500721 3.7604379709693543 -0.6980946174984365 -0.4229837510273683 -0.744697147848324
Ni 4.053424962674625 2.7924615879635284 7.508219960512664 1.4039570518677498 -0.6154123107068562 -1.9469033341943955
Ni 7.846206926099518 6.7626000502364585 7.423420426664395 -1.4358873249174433 -1.4997609836429526 -0.09065735457725678
Ni 2.0225606952684427 2.7189740457333285 10.682494470586454 0.8433282646596768 0.9194763698771649 -0.9936030737892501
Ni 0.8069846087097846 3.935856040840718 6.578751161092806 -1.32953775641591 -2.444165227110049 -0.07436041718944612
Ni 4.837248735274042 1.1711566196777545 9.342525486299484 -1.6252976665958976 0.5793883272037635 -0.6568443525993978
Ni 6.455014932883666 4.399667202216763 4.821402287372255 -0.4182799177937958 0.9049609498698091 0.3858853035131742
Ni 0.522811106491652 8.104695083362722 5.973039939659113 -0.15836812766066918 0.8704179217876171 0.0542523335856614
Ni 0.8710753680185623 9.259746116813586 8.418969498985764 0.6477699011019553 0.22928815170999867 -0.10484907269660652
Ni 3.662525480584104 2.3545085304258135 4.859465899204102 -0.3561715784988253 0.10060958069396223 0.1380929223514009
Ni 2.3757690188187524 5.889452504428267 2.162085785084904 -0.2532906852721831 -0.4502901521518052 1.2298535157496948
Ni 4.647446166331405 0.795291804499269 12.768874712292956 0.32420556711519005 -0.16069317624942 0.7343430583075096
Ni 6.9319223321950725 8.802204431044894 13.069359068013421 -0.31930710137230817 0.1163853554709802 0.805623036799419
Ni 4.920247304203398 8.214220500195195 4.8209676037301445 -0.9695820282843043 -0.09415971130356042 0.5377670521185512
Ni 3.859786403471489 3.085352912115087 12.04163226044151 0.9363340648644519 1.4386988262243094 1.225665445810276
P 6.447194342570492 1.2920228212755294 0.9961685893924953 0.25083219642936155 -1.371587891508425 0.23522688579193682
P 3.2601180277120845 8.598878371014395 11.619875812628393 0.05136601317680185 0.5292291898508692 0.7090796557550304
P 8.532644844264704 0.08946773894494472 4.307871862401889 0.559196682747237 0.0346345593547339 0.4605046307909618
P 0.7689618645707842 3.502138362379972 1.195532340839147 1.5796335888998794 0.5453152967794545 0.4287270812690488
P 2.6145292261708155 9.136047041052487 5.045650748518496 0.17182245339336213 1.0291871415414466 1.5234020201006602
P 8.075344649408295 8.65372467243873 8.235911956985438 -0.609123392374351 1.1086671393456455 0.6905864820468494
P 2.312628433368689 7.414699818297366 8.4651221275679 -0.21528849499679698 0.12051454714800536 0.1291161727740873
P 5.289468332860491 3.359417233220561 3.362049484164449 -1.554687203367187 0.008971093150358742 2.036143239598835
Ni 6.238527618133728 6.339619429260308 0.45772373276410516 0.6081805688451074 1.5935882513077588 -0.14094864663264112
Ni 8.670062461465893 0.6596900131962095 2.205940534755545 -1.9144740100210962 -1.6482447623103742 1.2935423121579077
Ni 7.102275594586895 1.439127939304082 7.543292800277003 -1.0067303551998275 -2.6821473070496196 0.7744558671679952
Ni 8.708329482950779 8.472866555362584 11.460973863534804 -2.179798486529362 -0.18453732985686927 -1.3770566279324798
Ni 1.424211231414585 7.56899393502235 11.039353022157044 1.46310939385819 -0.855249698687611 -1.9106435805314128
Ni 1.2260122092140995 0.733898312918455 10.67292492878163 -0.2857097250328369 -1.8306665884861375 0.12686285796353636
Ni 4.040997468804048 5.993005665237733 10.316474125328316 1.47754948054292 -0.5174149708247605 -0.549273252985938
Ni 1.1002047320265287 6.004625093363362 7.311867414979943 0.3933774981251612 0.30831820646097224 -0.3695819383674603
Ni 6.171123789270664 9.077773426296133 10.639497013654418 -0.012438225763352772 -0.023242772578024488 1.127398911427194
Ni 8.208276108508223 2.4974990148335405 0.869192667713954 -0.1581992061829727 0.6342564399965528 -2.4581684833676762
Ni 2.7927588075478766 3.5450680160943278 2.7581596614960926 -0.322877849442702 -0.8269457095365953 0.606516293768807
Ni 7.202373577728309 8.348851683793116 5.642444453610528 -0.6202570403936672 0.32346586073568806 0.9546696299488463
Ni 1.7031610994377901 1.4095638787734037 6.556742979682991 0.2354426013471687 0.15019664759347034 -0.5802519607556393
Ni 2.0550133586345094 5.021394844002044 10.70313079785226 -0.7305529951374579 0.8501959383137873 0.2720162867061445
Ni 5.2361452818059435 6.230679163484521 6.39388522368396 0.3585030548454794 0.23833097863855723 0.4332023434315829
Ni 0.05942998470171075 5.556696603525947 1.5446009528662008 -0.3515708465020203 -0.31668483325811264 0.7182569513789242
Ni 1.492302380566455 0.871258343825177 3.1899073313993282 -0.685815028800135 1.1357717088719212 2.075721001891458
Ni 4.108131942418796 3.579127522838279 9.809386863659908 1.9851824322802523 0.31894560426783136 -0.002679860825008288
Ni 4.83381213383001 5.1664472892761895 1.842543152329284 -0.6788697078305534 -0.5207918577167934 1.580081989291208
Ni 5.696213334041599 8.643229105866418 8.052650076520875 5.671020793482743 -1.779692925651748 0.4784447602091502
Ni 6.934810935030461 6.93417934341372 9.812989722308934 -0.6381040958774172 -0.34836365241863226 -0.3419785748278949
Ni 0.1789670574707265 7.016295541702042 9.1420257987539 -0.3399787707890467 0.4272602669155351 0.8289416569207013
Ni 4.127516232185533 8.123921475225275 9.627103950201292 -1.3057370544518867 0.2947569228367698 0.8577554958286002
Ni 6.200149139304711 4.662158535756663 11.128611778581746 -0.2780146703814244 0.7620474662013134 -0.4289014020633839
P 7.079993413872759 6.684737807249128 12.07085916250619 -0.9718692816565844 1.093078540878769 0.3633493271941871
P 8.497656526319663 5.613121883992133 5.791626393484718 0.623113793116172 -1.0146254416771883 -0.5656108138036968
P 0.641251253232181 7.676299493084219 1.788738048261371 -0.09349919490142608 0.4226258534673173 -0.23039783983440965
P 2.9516969802783097 4.552930338508539 6.164566382190972 0.5522616461903006 -0.3143708404129554 1.2981224753294223
P 5.169818873936144 1.0379558053295113 6.829073210276031 -0.22538213178737312 1.1398031986288175 -1.8869493222382665
P 3.9472989948381403 5.447273355925595 12.447592416157697 1.6165134926453644 -1.8659575504779478 0.006101227801731428
P 5.462710198087702 5.568752572916089 8.485757526022505 0.4865537624695298 0.17222945902379372 0.9373792182995146
P 5.607372542657389 2.067422276281065 11.251801865804646 -1.0078706394518577 -0.23159803079009791 -0.8907679461988788
Ni 2.9384242682147406 7.882932120990597 1.2754992700081473 -0.2085707166569892 1.8877530490864847 0.326932736238366
Ni 1.4758902866432038 5.265662901776568 4.738342416903626 -0.45026495534082456 0.5854700146214691 -1.0204898708777652
Ni 6.408267865132831 6.622043051175587 3.585685858729172 -1.0782890412744204 -0.9977073257656107 -0.004170843548237978
Ni 7.346831583833756 2.6167305087173975 2.9676716041258477 -0.851568907401914 0.3062595241597306 0.44898068931176227
Ni 4.577785326249694 7.651463081567087 13.196531897666594 0.1609600567575615 0.2497641601761634 -1.1486063987427446
Ni 7.473883668030788 2.7119615211651027 11.804156598980551 2.3722787253823916 0.6830603488731333 0.5110784870837713
Ni 7.548913036854795 7.756242273161991 1.8417815271443907 1.5272522470846859 0.029848965040632468 -0.03943146652274499
Ni 4.893869066092457 2.746569026517697 1.415172040805582 -1.9654525579514923 -1.4240648783612184 -0.4908037959951354
Ni 6.485173432583041 0.34163719360713685 3.5717927007832753 0.33332938379332916 -0.8112157003958481 -0.7138986744102287
Ni 7.889452375622245 4.830700616306361 13.370291110732813 0.8320393220094187 -0.6393600797717054 -0.49429663963974224
Ni 2.826326044355251 7.145075214733099 5.941664697286311 0.39080459519166244 -0.5983468705841373 0.6181294525277031
Ni 0.8485164015665008 4.192282237237503 12.667504257806051 -0.07389684728946629 0.3103442357520655 0.7734407956399196
Ni 8.557295493541618 7.0216269179962945 4.195788499521616 1.4081836883545877 0.5182539217862882 -1.1954159028971154
Ni 3.777790950639309 8.876890139724498 7.365469109394819 -4.886933830982886 0.18580874037012515 -1.4927747821331065
Ni 2.399639466686752 3.8510091376211935 8.420384078445023 -2.575304343851436 1.1631238756326292 -0.16698055192002856
Ni 1.2132039027510757 8.966074591253111 12.932873977258126 0.37145267302761187 -1.9135882649820335 1.0148028477953168
Ni 5.679225377173672 4.185669101485746 13.455811402073127 -0.9524407406183274 -0.5681338373358668 -1.4372088719423441
Ni 8.352984893637965 2.110946369164118 5.837370345138374 0.960039893121824 0.09487987729903659 -1.3257410083776393
Ni 8.019736722799067 1.0806161037955515 9.945831086722356 1.4127931621021408 -0.5448393855843003 -0.622775693050463
Ni 1.0564391482311921 1.2811092896627279 0.9945366681121811 -0.10272482726475211 1.1683308737548654 -0.9656135305548597
Ni 8.756711258415532 5.8685449642917416 11.218646092359355 1.713104953318869 -1.0427221999134042 -0.8730592160652061
Ni 2.4494051708411266 6.734865747771927 12.889495707733644 -1.7335578218565824 -0.2909411486351054 0.777598526562035
Ni 2.7400673481100704 4.3383377986088245 0.5298812173543451 1.19294970074481 -0.41396072159315156 -1.2797853675831312
Ni 5.370051992667015 8.713317199100631 1.6744794095481468 -0.027943777598119612 -0.4489871170696655 -1.0480888635419563
P 4.352752948449734 7.033803632842578 2.900381090229317 -0.7985566168709408 1.4273959996169805 -0.08930726830726556
P 2.579838127810123 1.5860844475404605 8.841487571983773 -0.12305453996103968 -0.16256262535799101 -0.2805996574997813
P 0.21029121522746938 3.6793090989877912 10.728266286576144 -2.2807027156456074 1.0828751179832061 -1.0635360513349619
P 8.607683501200722 2.773662449253477 7.95254280526745 0.5037323311313454 1.9830738705776814 0.7742764041673375
P 8.91892813468581 1.0918918717767776 12.434610422000068 -0.44499059431576266 0.13345773757223467 0.22187180464126952
P 0.7223949861929618 2.6498426280362377 4.691402156422965 1.3563795591991028 0.6876533675604544 -1.3783370373068005
P 3.142214733845785 1.2364520471143452 1.2965972164408952 0.6724997997484676 -0.02204849515960719 -0.21034657761048933
P 7.126350380919135 4.939130035921548 1.922517511987893 0.9061364582351491 -0.1163123361411997 0.4838826433952699
