# total energy = -340860.2155414312 ev
CRYSTAL
PRIMVEC
9.30710882809098 0.00000000000000 0.00000000000000

0.00000000000000 9.30710882809098 0.00000000000000

0.00000000000000 0.00000000000000 13.62189454689131

PRIMCOORD
 96 1
Ni 2.4378110455703106 0.4055684407436375 7.267948364593164 -0.45533028567887396 -0.8540736761016388 1.4221535202711186
Ni 1.977965406889984 2.393248607948844 5.982613351723796 2.2654105653732275 -0.010752610530813741 1.695667474568712
Ni 8.191996299650269 3.73743712422242 3.638817136435331 0.01704487129742871 1.6438947128717947 -0.8014894742470197
Ni 8.360166451150326 7.545347677365003 0.8795031809426305 -0.23146793297013687 1.2757050268661707 0.21636321611821446
Ni 5.628436905144363 5.16165747030113 9.96406146609415 -0.2151370570205972 0.20445309494418978 0.7417388365509484
Ni 4.361218179833512 1.95147737483679 12.415281263519358 -1.4126484089941607 0.5119912287060279 2.8013441638274656
Ni 6.186872748863158 2.059691130522836 3.202125723384638 -0.1107088739114932 -0.3489915158106183 -0.7493318184068579
Ni 2.1671882388202324 5.265385199476411 11.998560114128727 -1.391238318749501 0.8081679147084597 1.1161858163201939
Ni 1.9925124181686706 1.4596804311534366 0.27526146984751715 -0.17726856410959793 -1.3073139120207036 1.444254723045532
Ni 4.607828645509366 6.0217925575323425 7.327884284767499 1.323248580973089 0.5557830290799977 0.6010354731598939
Ni 1.1094260002827936 3.092649923725854 1.9738674868221622 -0.10859825532639361 -0.5665613506424242 -0.5759918999277047
Ni 1.4056340495185462 8.320052811603851 1.0831967058582288 -0.6742172966602066 1.2142111812267475 0.5524971592398743
Ni 3.2148336499360894 0.2968185955824461 2.4928337429333736 -0.28350783228551174 1.1520197952996678 -0.005945676060473632
Ni 2.027544376231995 2.410708744326846 11.87379738803025 -0.5618312921566067 1.8871922914870076 -0.13219918257478522
Ni 0.5131437287561594 0.15964297828602458 11.636544289686187 -0.20640893311898 0.8780975498200619 -0.31622486290255863
Ni 3.7992270204982996 7.4767356702335395 2.325979616637927 0.5280133151658971 -1.5872155150121956 -0.4551793619233064
Ni 3.1305763926706063 5.867545841011759 9.840987980268917 -0.5447864208591779 -0.3301275890265798 -0.988768371404768
Ni 4.327610209438542 6.716596161491265 11.568067235634404 -0.19145282602977995 -0.3027538249993173 3.46427945981595
Ni 4.730998925267613 3.6494849447063684 4.155890326587436 2.453095182609827 -0.10525325011356065 -0.11998644255867721
Ni 8.31485944481338 5.123963679079965 11.981491807037248 -1.8865083780461058 0.451707344214306 -3.012257155464386
Ni 8.05304116312385 8.239080963795422 8.485432691842647 -0.47451380058586023 0.027193529695656395 -0.9154839608883201
Ni 9.37616769185829 4.440049392584936 0.026878930628820893 1.6612020938019905 -0.7777041989019639 1.507013808550624
Ni 5.922830068136133 0.6008101800276457 11.800279603774666 0.7241720313117785 -1.360281208246354 0.31945288292155305
Ni 8.375821008393288 1.2810397820919448 12.998202249446708 -0.22145091505376702 -0.028175691103267602 2.356980404462425
P 2.9524662488188937 3.6739067985741056 0.02318493908914672 -0.022677644103173845 -0.5510673687718832 -0.3471176958266732
P 3.7255054105568557 1.6744698913514726 4.066285204523018 0.11308405901188912 0.06981779212408622 0.37164396310281156
P 6.051119257813303 8.448593293222496 7.000577461707945 0.09669970411659475 -0.6144116373564839 -0.08600648606880672
P 2.877115894812338 0.32390228260802395 11.884653199901944 0.13825053097518772 0.9946351145981902 0.8489890624898798
P 5.004562778443836 7.239553305917448 9.759583351894616 -1.3931057109755427 -0.5140159724455405 -2.5225972432657073
P 0.47828116007560634 5.049004223649036 2.0080720429004097 -1.2550570115985158 1.7381948064079613 1.6316421207566865
P 2.3415290035498284 4.068258311619039 7.494303769075286 -2.006956076511918 0.24720385564815492 -0.3497844440255589
P 0.7904406633296194 5.311985893956503 10.009627210059726 0.671398853374805 1.1270240445862783 3.5488954932951335
Ni 4.814874591066413 5.807673209178239 0.5021697166008815 -1.4840957663018697 1.434389400215678 -0.7240866706868239
Ni 6.4729267422415555 5.1800483175734815 5.6778920899374254 -1.5257437808599594 -0.09664262562641421 -0.6625992528053041
Ni 7.062690314664164 0.9362858526069089 6.237179534124551 1.2519272077202828 -1.6470219456468667 0.4949363301062702
Ni 6.836992922784349 2.8016352412805725 12.283856508839124 -0.12888040261419736 1.7172287456792557 -0.2958244448693357
Ni 8.209205144086797 1.523331749218016 4.333791991198813 -0.12083773481537899 -1.2895432183008437 -0.8930343736355524
Ni 0.36804869245971583 4.816587099112016 8.169554067854813 2.307470727768071 -1.7490857422888522 -3.556810377266836
Ni 3.439674787793103 4.915624045379773 5.572703144658016 0.592304006824167 1.027112004179973 2.602757297856066
Ni 5.096963756034879 9.232977820762581 8.956028041352713 2.748141097441925 -2.3303332341885414 1.0274832714764628
Ni 3.636696977018002 5.013823351842616 2.361845491662589 0.4974999770683884 0.1250528013379911 -0.09054628292068923
Ni 6.4627633792752555 4.534209413766301 2.3946335057596366 -0.8941864849621246 0.4980532784686971 0.5966160039359596
Ni 1.9237421901851672 1.2861959204466424 9.947824283831325 -0.31668843280253844 -2.4610167514497485 -2.1253584624129265
Ni 7.138208196631703 7.451234191728355 4.877837183069173 -0.4874464494871283 -0.5153796855622865 1.0235895928490115
Ni 1.9675972875269279 7.9036248361449415 11.033298439248028 2.051422020134777 -1.6150235383633993 -1.0931770141298462
Ni 5.984713035501448 1.6111257078820287 0.5927325401755843 0.7332415977132145 -3.7302785937937375 0.2477602423722572
Ni 3.607342355410211 2.6998247765476533 1.9377959246898486 -0.36846016605819126 -0.6774579150846914 0.5834159603059178
Ni 9.060824226634708 7.086851569481484 10.514100436124123 -0.3920850045659828 0.8799230330645749 -0.9776748325947678
Ni 6.644689437793803 2.6862643188169772 7.795496705861176 -0.7907954848682832 -1.0989555684848362 1.2613279322088924
Ni 7.121874220435865 5.721200859984203 0.47511022805855674 0.8098332182260246 -1.0422154354803148 -0.628830126774659
Ni 3.825473067718963 8.789075259702466 0.2766808039614005 -2.455778642979261 0.8433871429220701 -3.00183081792474
Ni 4.448714311011332 7.7879281648683225 5.553605887816853 0.9293152103444575 -0.9284343504014011 0.6135829708076014
Ni 8.406013269805994 6.0521988824507496 6.7814425123441895 -1.0712537316941937 1.1526859681287567 -0.09545477596590012
Ni 2.482410711627551 6.3893023683842305 3.895480210481057 -0.5011028639282983 0.18481140945386235 -1.5158833431261118
Ni 2.709587933829382 9.279401680172747 5.023128599364324 -0.12673327436420753 -0.2771574645874517 -0.30029816436997314
Ni 2.5234085265236574 3.685810590912839 4.123824544144403 -2.1136566005949664 -1.031296731685282 -2.8951143530020915
P 2.637392689754672 6.966575800604665 13.756615289479964 0.8010302752224141 -1.7598167555531112 -0.749262141511187
P 2.528508822224694 6.8206496394795675 5.85161207050049 -1.2227418444055782 1.3787191032365673 3.0469338809109656
P 5.303041762261802 9.144104237461123 1.5431019100357937 2.4301555430945183 -0.4912282851270637 2.899966281777754
P 8.610043712065348 1.725054028459382 7.9176720556733615 -0.17735958116150746 -1.143708704330811 -1.7385218507300768
P 8.853489760700413 8.66140964632451 4.687907010859219 -2.293717639848037 0.5383321805934019 1.4777806227171195
P 9.125303877395258 2.946128107628372 11.900196071837584 0.4982183432916516 0.7996429079565841 0.35926821514627805
P 0.3558368348149527 2.9315438679139114 4.884457329660683 -0.04686632553423542 0.8562118054905641 0.5503258626201684
P 6.442194668510127 4.736145756513367 7.979623895644859 -0.5188630161251967 1.7830047636338002 -1.2331393855898183
Ni 8.209363364938834 3.7838795978504725 6.3602120686704335 0.6822491658257476 -1.631950396025725 -0.5243417798515808
Ni 4.302248337567511 3.75029024167339 7.63136677035349 2.0138412336675255 -2.0662413445357966 0.6430349575201313
Ni 2.1612596104232247 3.7057464182698108 9.895434567588376 -0.3669388443176584 -0.33886239779641636 -1.318104060657672
Ni 7.849866974887299 2.8073591132808238 1.270882934101906 0.8274763852290845 0.056629061347954084 0.5211006472064638
Ni 4.706418850547836 0.9923053413378207 6.367691261417429 0.25558050974762436 -0.3189366054067669 -1.7543778439257267
Ni 0.4077974933356051 7.107020074562042 12.706244756865448 1.0347168131104245 -0.6099677426525173 0.6398899841332463
Ni 4.00154495471205 4.079920119125242 11.403038233402778 1.2695783451431424 0.47681596635647555 0.949594529418784
Ni 4.088054532341859 2.105016751077669 10.21830096897099 0.20928805443898793 -0.28271644673246793 -1.424301934072689
Ni 6.699564152124664 7.715304793782211 10.919678183976705 0.412437857190722 -0.9117394062442234 -0.4760176388248962
Ni 7.4473065917542005 9.118928507768963 2.5430986462045206 1.5904481630168803 1.3939891420217607 -0.5602783458471899
Ni 1.0627508489311535 8.38726875239379 3.514231245406779 2.0704147591871953 -0.39242413307295637 -2.11203654849304
Ni 7.450284866616119 0.4884184631368638 10.143979981213585 0.8565229089730797 0.8427284262921487 -0.8574407928016587
Ni 7.931955675768947 5.165175557481772 9.423068075246363 -0.6896883957126122 0.7525241000919105 1.1571923406395423
Ni 8.535419312556384 6.61618176309987 3.0905762998532422 1.2900427836450814 -0.8824290873158803 0.08530946000178212
Ni 0.7456837071312342 7.565106669652048 7.39276600263441 -0.6087384982311065 -1.312525795238946 -3.6644442117974307
Ni 9.004776816576966 2.2816005290626475 9.812477513442301 0.666942103155032 1.3893323599760397 1.4505942921103148
Ni 0.7993875871570035 5.027765401039975 4.876529534262612 -1.2059237444069748 1.0265995833199286 0.8503985412428967
Ni 5.318975532773069 3.5614769225366554 0.6226986388409633 -0.6470780172412534 2.1266658683704405 -0.7911423266847407
Ni 0.3343979093636061 0.7474613649394422 6.27536194856525 -0.8538178513370908 -0.630341935433495 -0.33759278705537343
Ni 6.367449276584898 7.058222902371285 2.316253687791972 -1.2150095087583268 0.10574870169274045 -0.497993114654723
Ni 2.9284911361804444 7.3954473807210315 8.09376162617344 1.2202411894709113 1.0557759477735689 -0.028673713785608682
Ni 5.804518099246393 7.8367160299501375 13.155699008410362 1.6480290467551424 0.08839632645722195 1.0341007767929802
Ni 5.610260121377713 8.844945834690282 3.8930147573219247 -1.3854014003527495 1.6750415707882444 -0.6267765866797399
Ni 1.4263609811357154 1.5726221981827793 3.6906484261416694 0.01845769248455531 -1.6765839755746996 -0.958422412123059
P 6.2178002718824015 2.353255960818635 10.26875666797548 0.4401854596176354 -0.6188897277324954 -0.5440127759179471
P 1.2651711613432814 8.530095646240705 9.000598855372228 0.23941855527578124 1.8502044014087489 2.8134566308202835
P 0.04865756555660514 1.0059030275042704 1.5270145722269584 0.24678502294318144 0.025067998712221345 0.05333342131581783
P 5.351206051044402 5.878947049467542 3.783290457854349 -0.8803426371004968 0.17587913996123902 0.3884013850668085
P 5.997575460061362 4.826247878195367 12.441353267802777 -0.4830470348678519 1.0038412065774907 -0.6637431366017601
P 4.017255354608674 1.3658182374582637 8.239843216017894 -2.950665350794518 3.8156890981497575 0.10701625555125441
P 6.210187056766619 2.7784605400112636 5.558413940297065 0.07686621433043538 0.4787504643750271 -0.9689253685369121
P 7.9749917475236805 8.592071684695453 12.465436342904972 -0.5628846731217854 -1.5286211024077543 -0.05486811279278937
