# total energy = -340858.64564771514 ev
CRYSTAL
PRIMVEC
9.36869195802100 0.00000000000000 0.00000000000000
0.00000000000000 9.36869195802100 0.00000000000000
0.00000000000000 0.00000000000000 13.71202768246149
PRIMCOORD
 96 1
Ni 5.876989823356318 6.312755791613618 6.804168979393587 -0.10600169824381099 1.2510309211582582 -0.7706326367671631
Ni 8.094006452994822 1.7133463821919677 7.767973162836274 0.5067999143130756 -0.642276482087552 -2.988734132641782
Ni 2.768251726070103 2.325890198686255 12.028053234496541 -0.28243028295061684 -0.5943750304205828 -0.5118351627441379
Ni 0.006666761185300766 3.3155144971186683 6.032469824203559 0.32649410603905066 0.22018927473252403 0.06796839762017326
Ni 8.043171930522306 1.8988652200100198 1.0990955900260087 0.022969464311979795 1.2925125853418127 1.1726613828094192
Ni 4.264609834213798 6.263157936477331 2.9890436890464707 -0.478506209574705 -0.4089334435818892 -1.2059723382567231
Ni 2.603212848835339 1.207989770196031 0.4423708960757893 -3.9937050819483417 0.40988937973725537 1.9079097265400176
Ni 1.009710773954174 2.8241734482666465 8.311806055765196 0.5040709454176867 -0.18380019458052863 -0.5531129384470024
Ni 3.435696077339352 8.3587282124831 1.72297083942308 -0.3101496032427562 -0.2633161878289852 0.30296362701727825
Ni 5.29999082408664 4.357116298440413 13.708339376566684 1.3817378354582333 -0.5635161360581973 -0.07014097979145985
Ni 8.466861654867502 3.8230259082610623 12.16505067988234 -2.4187940953351115 0.6024801760262204 0.643546349938911
Ni 2.073525743868314 8.899639010395585 12.381892802336331 0.17521116735993697 0.05984191185829694 -0.29837292232280227
Ni 7.865607112162264 6.671201945280857 8.489253765475974 0.12831270303618547 0.3618789132962477 0.44314917023164974
Ni 6.164580559872869 3.6664001163894238 11.543305871032679 -2.487807903500664 1.7560500894218272 -0.23509678797197575
Ni 0.6883543348126335 0.17952755932170592 7.0464461635985245 1.1010690152834133 1.7523515575243174 -1.2476589193622318
Ni 1.5805170678507727 6.482226060136533 2.896336734812315 0.6282161473397438 0.8032907891218165 0.4581356163381529
Ni 5.23949718022283 0.9420219746795842 6.726970020929566 1.0234219569228955 -0.3767224060669835 2.1061386949513663
Ni 5.547399240867728 7.550013355433707 0.08543122807268216 -0.5340770048614738 -1.0304531527380643 0.4233241650859226
Ni 7.0844643154955875 8.786334050059684 7.618374826789669 -0.32105545152198256 -0.38777223612324185 0.5306746640481441
Ni 6.211039903208882 3.081531415889204 6.661152149435618 1.3030469092142332 -0.280969125024058 -0.6096245003804857
Ni 5.887239172339904 2.33990576183017 3.6561610729669742 -1.1582323518682827 0.030380412064070262 -0.49678443905860253
Ni 2.7593139939582745 4.631572128855515 12.975979358837417 0.047663881734866305 -2.4487055381825633 -1.0131907661131905
Ni -0.0035085751319493216 5.844639730083632 5.069418883592937 1.375085363138722 -0.911072719194502 -1.1197370240065618
Ni 4.392745433892491 0.5294126022931499 9.528748547980161 1.1927668953100428 -0.4785712584846854 0.7904535281478322
P 4.170819859191249 2.5176298479532107 -0.016335251268536282 0.33777019317350215 1.3592491674374139 -0.2909180087066538
P 1.4549953332236514 5.487027389999153 7.017116536607655 -0.8750579916627899 -1.4465784860827022 -0.12457663303252092
P 4.045129488109187 5.987015741512828 0.3131728867309724 -0.7555428323135762 1.6120680552795008 0.6761109141384936
P 0.5584096407201093 5.567120337403785 12.171659355177605 0.020328941365339186 1.10105795953982 -0.14079412333264782
P 4.309860616289406 2.1228425382463683 5.309461634769917 -0.6552829216495489 1.1167118640269929 0.087942526749255
P 6.845946787366622 6.963130386166147 1.7041444529674 0.5274281320863884 -0.09645982019164678 1.284689489752968
P 7.104710058780348 1.9433571380383972 11.475719190500246 1.99755920867805 -2.8448402873378877 -1.488360712225811
P 7.553395453224452 3.897872388178668 0.662461144025767 -0.5176409707926375 0.2736597358468384 0.5130813764464132
Ni 4.198954041090431 6.059285831146625 11.169351721595305 0.647295275458382 0.6644818145399976 0.19002740643716304
Ni 8.579932397904876 5.767160647730572 2.4546722381088864 -0.6541992016670669 1.3122943959544302 1.0580223206055843
Ni 8.96436730301678 0.7156996728503736 11.632832154352824 -0.5612695061158657 -0.5960277355326574 0.6368321711435291
Ni 0.3361140026871921 5.1146406227235275 9.245842157434168 0.04861853233865175 0.4597201872164534 -1.7544853160378688
Ni 8.798204182749084 7.4132772965530656 10.81438791072258 0.682925623067482 0.2965386973275409 -0.27248139926802106
Ni 2.2269193370202665 9.039410525465149 9.674205922188792 -1.3483829141468713 0.14597412487169054 0.11612336005884516
Ni 2.9176729938390205 5.863423957425577 5.463214985692409 -1.931342503641661 -2.1579970743835544 -1.6682512873392883
Ni 2.7969292921018707 3.900664258377122 9.658464645989321 1.0361381189379832 1.4679641508473298 -0.09163308822696477
Ni 8.21841331328095 3.4798975659175544 3.359391828955708 0.8063074644609534 0.7854627598014601 0.5117256337494671
Ni 6.730468290500381 8.753431203962473 12.2948623385493 0.8365066137521528 2.1725451474010584 -0.8845553896302637
Ni 6.78560304257387 6.660971333681155 4.124221859214508 0.8239956257693357 -1.908948195106861 0.018965228248593143
Ni 1.3192148809210036 7.365712447568002 7.947806141515261 0.42566875405869914 -0.9811334805673296 0.45013254352801835
Ni 3.908833757749778 3.664104786863849 1.8847868866300992 -0.15090987161041106 0.10826246925352968 0.23177903645265244
Ni 3.447940957706395 6.159343461077784 8.491845145666886 -0.36870056420377145 -2.204607318042926 2.891021156769324
Ni 9.18784808058025 7.927787120575476 13.272227703576757 -1.3724661803483202 0.03446538076672129 -1.765051264479173
Ni 4.2874413364743065 9.050240733349085 5.075781162290151 -2.1452832263613115 0.015731808912960003 -0.5935414787756939
Ni 1.9275989981934336 6.593891499382737 13.545756033489688 -0.33563283511552516 1.972345428416584 0.6655045993775571
Ni 4.3565729143078284 4.213794049125164 7.033419934323591 -1.8154875667528538 0.23197495451354241 -0.11465654570533158
Ni 0.2388978970217755 4.855249648949747 0.7047963891692985 0.469608649974759 -0.5110998272400101 -1.7476027299854224
Ni 1.856546838511982 6.441921947405835 10.443587262992587 0.171266323779576 0.044052253124208005 0.6903489121147466
Ni 7.0922590671906 0.7476497229771741 9.490862494639465 0.9156932486856488 -2.2116305434382943 2.9036887249346637
Ni 0.19770656916425458 9.337822101173694 4.7979619714681885 0.7698852170781774 1.080497876000281 -0.20734584311095258
Ni 3.2403588503670058 2.1872804014173894 8.168474437758006 1.7655917103636753 0.1794645433196522 0.7399722315688289
Ni 7.540981936402468 5.1231099202383 10.468105129802495 0.1966559674972742 1.2525388731623524 -0.7601137395137103
P 2.0226912213957986 8.897062620111777 3.522126007972957 0.4501577403389989 -1.0925694624528346 -0.35092292850537626
P 0.8198860853199834 2.278147344554309 4.291233782972071 -0.5850753502862117 -0.4362838105703841 0.7120451661412576
P 4.334781336852784 2.7570092957407595 10.675128863102193 -0.30635388364574984 -0.054631314191634944 -1.0674567265456067
P 6.76309007583936 6.947859418302122 11.447555028786853 -0.6489729202711211 -2.307115915531814 -0.5356458920104904
P 5.21372390869281 0.8671473886861557 1.8488617005126817 0.8686060653898589 -0.7998820205505837 1.261035597779454
P 4.128417159465741 8.744943169063816 11.55029866269753 -0.3797768766225911 -0.47137319807434946 -0.4393243971689208
P 1.9521449710791674 4.5448274101726875 1.900966617612413 0.29364003562350716 0.179782074560071 -0.37520596942245704
P 9.351106906346201 8.73626776032634 8.674585229455202 -3.7056240284698507 -0.8201217446362263 3.7528379671514918
Ni 4.191374769310065 4.347653919579883 4.41775515702931 0.48341958771592236 -1.8219888582064816 -0.3679572582798437
Ni 0.5953157288837622 2.6516677235548096 13.151726650960882 1.5934206153816428 -1.7884956115450426 1.6687793919286165
Ni 2.9685356223873596 2.184788329361051 3.640597801914386 0.8134677296548183 -0.7711522567160589 0.5131181432216195
Ni 2.1367925205466953 1.9433102945786915 6.245307767721916 0.006086829624028227 -0.11458326926523492 -1.8376383918182801
Ni 8.784975589728221 8.393008256295657 2.969586789623153 -1.775448291442781 -1.7247394522340038 0.42217153953871817
Ni 1.6365886891183743 7.812627159235233 5.600211494209014 -0.21965808481940235 -0.04193032168519876 -0.8925705466252564
Ni 6.2743909981147326 1.4166211710328251 13.30519144617159 1.0512230382955636 2.345004977268103 1.1885212326598111
Ni 7.494044789777458 5.775358253179053 13.319205135577114 -0.3302070361142636 1.3762421024509846 -0.1702363398531649
Ni 0.9833660122157454 3.7383891452649873 11.016325381167444 1.8630640309802364 0.6880899408772407 0.26931431439394904
Ni 7.385845766549467 9.089177017056379 1.1272428880939085 -0.6318941104119634 -0.7805912906417717 0.11223482363771639
Ni 1.4752879199681166 4.408409886818044 3.952574306684477 0.04277132952925537 -1.5739555646784957 0.7039580182577488
Ni 6.302300331407329 4.548209507963431 2.4444847224921125 -0.4013584594481088 0.8942890719782597 -0.10281867253013906
Ni 4.421657217222787 0.3605887735141732 13.604388118264797 0.4901041988249495 -3.363947301153091 -1.7636615832204978
Ni 5.8407985663877735 2.4843241481025298 9.189211225257683 -0.897204445852842 2.003603100879285 -0.7964223441367574
Ni 1.2186607103169662 2.3549706184714903 2.19777708386822 -1.2734434845255038 0.7728687251865334 -1.6489032218299795
Ni 7.827954339250905 5.095060056566587 6.619207578746032 -0.4619665600484689 -0.9033900058382635 0.023538706551888493
Ni 0.8834189328494924 8.12921399730955 1.4111320544245232 2.1497710869293365 1.2438891679071544 0.20104226949042794
Ni 6.582358639603219 8.658723097129693 5.37420960164419 -0.8911052749336396 -1.1195081958252073 -0.8514079563440176
Ni 5.503160277521761 8.354671568872595 3.1711804290737784 0.4245999464745527 0.9919891923349108 -1.6677884887702568
Ni 5.677090043408647 5.220413154738769 8.825568258170705 0.5688989976366654 -1.5111491708752363 1.2324508441632258
Ni 8.413357055191769 7.432286372501597 6.157769520831676 0.23266478149171543 1.2776387535537739 0.6925459197660654
Ni 8.630214167552866 2.8703985743041307 9.687478548061774 -0.2396432696920776 -1.317070220076519 4.1749583417373
Ni 7.963088351809615 1.2414641065016514 3.556831390399641 0.25163026685062473 -0.839640017174812 -0.6541279821094993
Ni 3.578830952815778 7.3690477018990395 6.834719346944385 1.595288521828317 4.202931172801142 -0.24585762603290562
P 7.828553935535137 0.8461840035987063 5.646174296872148 -0.054194483764532474 1.7926659408726482 2.1078986150652663
P 3.3026887578512754 0.13203391239539383 7.472602664531817 -0.8782335611772939 -0.5191432663697769 0.19891673850699293
P 1.1054400682085348 1.657078018393603 10.51875696278216 1.362166598194525 -0.5083173793988665 -0.754544730066365
P 0.3115417974640234 0.7695387348284062 0.5885946292852029 1.2429211475669304 -1.528564023917574 -0.7693157177279525
P 5.424350840913062 7.336622659090825 8.775437324462969 0.13745760276024716 0.7368827940102277 -0.47759295373181615
P 7.5111801273377665 3.7225092124247894 8.334650674194421 -1.365607505555274 3.054693984472358 -1.8541736704691418
P 6.3046331357006675 4.22488658038345 4.78889869888435 1.8370701780196361 0.7059580794069132 -0.4072069478090858
P 4.75537002416547 6.821822405618239 5.015420553851905 0.6691861619942023 1.2464641277231823 -0.6922186183336336
