# total energy = -340886.8495526572 ev
CRYSTAL
PRIMVEC
9.13011870686834 0.00000000000000 0.00000000000000
0.00000000000000 9.13011870686834 0.00000000000000
0.00000000000000 0.00000000000000 13.36285161404726
PRIMCOORD
 96 1
Ni 6.546806428148438 2.201180328680475 11.2750794563448 0.18981451909540858 -0.6720611695491523 -0.14121886957489227
Ni 4.604528876772671 0.08677995266515484 5.76552299373026 0.771018302241356 1.2160430922291638 0.4253831044974803
Ni 2.889006954593919 1.8434714062972475 4.537623366595681 -0.5552654660136308 -0.7269030570896965 0.7250210095756353
Ni 3.326476594349716 4.376157216557462 4.70932255372538 -0.728097848728746 0.35232340839732873 -0.4495615015158967
Ni 3.9369163337647746 2.7902647203466286 2.6963030162751935 -1.1123021649950715 0.9726655523056343 -1.3977470664022962
Ni 5.379785519806046 4.778831973768975 2.388408934786709 -1.2494160112626547 0.8255771113238427 -0.18591235582752497
Ni 5.564031316117681 4.397412133000152 11.561739620663712 -0.6503014092745576 1.1902803814427632 -0.3999978316551563
Ni 5.767112547404088 8.306645946724448 12.876510501650914 0.698775702725861 -0.5369170454134301 -0.991255656602996
Ni 2.058960468960637 6.55133496704688 0.3113690046835397 -0.08711617419321771 0.38086779569392465 -0.1492147432961753
Ni 3.2651404566083104 1.8823839723963647 0.26420920232038375 -0.8848904043721791 -0.9596693971562827 0.1325596512379975
Ni 7.915119064502851 8.967757845184579 6.843317077583337 -0.34390690219885933 -0.04297470378931309 0.19727226092503444
Ni 8.715830478602472 2.610830496614589 1.1770266054770746 0.5456312853579764 -0.7354522322112883 0.726388065126491
Ni 7.161181248743393 0.826726774456924 4.79957560356184 -2.63362159153509 -1.538122099919654 -0.9878633430919954
Ni 1.2800426483097707 7.93777088911381 2.3749392705994663 0.8933051107984357 -2.140169302173514 0.32761047903168095
Ni 7.73897168351968 4.474178171423751 3.7882478711740295 -0.27698365801374875 -0.7705652738643374 -0.570075791553586
Ni 8.157423285925768 3.8248897767408025 12.209049518614217 -0.43710450669946654 -0.035306902831410164 0.6967872115409226
Ni 8.486116690931473 7.296188314653212 9.31465579395965 -0.13426146442045264 -0.33676129229301355 -0.008130856637250513
Ni 7.059736499347032 1.213831027157542 0.09368140942590629 1.2117922873726097 -0.733250082353647 0.8358718083816314
Ni 1.9439392329876948 6.683301703413995 9.221757748722224 0.2614565089124271 -1.741983326916116 -0.48307377434072934
Ni 0.18333826250819674 4.935842625858726 1.0728218211835376 0.020212727502449058 0.7596036326465112 -0.08833950507735754
Ni 6.422372039747483 2.0782341496352585 6.93958322362648 -0.3744343813637551 -0.19856475448421287 0.019539355584508283
Ni 3.459529814847706 4.256516140498609 0.41855020768855317 -0.009375013456996758 1.3163405409993458 0.02964199123614895
Ni 5.908583737386683 5.884425443182492 4.466693300075075 -0.47857048715373707 0.10135108684567706 0.6417972284582881
Ni 5.535061449333893 2.8681537633760907 9.254456356002228 -0.9850017052734843 -0.16731171000720219 -0.8070859944981906
P 0.4431723119250852 5.863837025408323 12.358499519369694 1.1155574387075755 -0.9039417645766755 0.2235057407002667
P 4.266066244707824 6.211448036457522 12.73327445971455 0.6027408858867749 -0.07375697927749233 -0.7209532672641648
P 3.0087758523152286 8.68992833171763 1.1519717336119415 -0.6493269611764301 0.6700107147780268 0.3255929343810199
P 6.274171952248451 7.702579030194697 5.594251096157913 0.7960559619362741 0.30677271635072334 0.6156331684684108
P 5.107972754593277 1.3862533196919928 12.647217612454147 -0.9006204135129264 -1.8634525246679068 -1.338410633425508
P 3.866322255614053 6.314390125328369 8.044290158509675 -0.004229721810631425 -1.1074615490733186 0.09393448266663178
P 5.0365478356365925 1.352791434484751 3.911266178157346 -0.32502394925142736 -1.276261927810905 -0.023936713321255552
P 0.09539148066719319 6.007700306502595 3.407727347101772 0.47364579615861013 0.5026452687147537 -0.12472241458176583
Ni 0.8131557659515913 0.14957690940605783 4.3605657127734485 0.9928319999511805 1.3971917081194583 0.561304216008543
Ni 1.861110795716181 6.652304950268404 4.545400401744256 -0.3839821729531903 0.7759612480689281 0.5812276944053474
Ni 6.095075542910045 5.870949387912127 8.841356829205552 0.4749678574041432 -1.6364842793403362 1.703024172044099
Ni 8.679282613258792 2.26548375501461 10.118364626043865 0.563121728833256 -0.18432007163974062 -0.2009625652924281
Ni 2.109906531568116 5.3602470656877665 6.5392183864579225 0.5046067633164987 -0.44380557286872596 1.7252639572789061
Ni 0.6741716203156404 0.1608891265334174 9.068672134681748 -0.8080442446464019 0.7839272969935402 0.24600006514804085
Ni 1.9748629451833095 1.2490185048079405 11.509651380201003 -1.42718285516491 -1.2572961853416798 -0.5658728092158318
Ni 4.192139673214498 6.967202745847605 1.4320299090649995 1.2219612574858116 -0.3075540746014381 0.6608200494176942
Ni 5.4540225153367645 7.7754738982696265 7.889508168406033 0.17902797000286585 2.4581142330909733 -0.8678756149817375
Ni 5.305639825462796 3.2594523926290164 5.084043626369633 -0.2818512705186952 -1.3222795321916 -2.0169913492607328
Ni 0.8047432745382346 7.75630064890122 7.132649627659455 0.15101322995749478 -1.3396990132196283 -0.5470183955134902
Ni 4.910661758354887 4.38314175739881 7.069229083808142 0.1124590238333805 1.317142982295983 0.8235780786159429
Ni 1.2274257739716166 7.853600324386508 11.477259544910892 -0.9889066967548451 -0.5378626971561511 0.18422776903625046
Ni 4.791513708708363 0.24083883736404624 10.495864906834662 0.6028136481062393 1.5806874840856906 -1.093859899129484
Ni 8.474192755848074 7.683141007382632 4.887102399940488 -0.9640384727582558 -2.090412028244729 0.14978269998450333
Ni 7.607452322971162 6.520329083782543 7.111723395491652 0.030295308549431695 -0.2759009664725313 -0.7506014291479008
Ni 2.072865639812105 5.363278265111724 2.477726147451616 0.5266925394719446 -0.685221361080194 -0.09703394752756192
Ni 2.5710323089970264 5.587952227234454 11.508274558293975 -0.5218832910087593 -0.5461516766378207 -0.5320124090229612
Ni 0.8794431670894189 3.360897142025378 3.4937175444953237 -0.29729305899506214 -0.30599392920316976 0.3902644064174763
Ni 1.9816009728184925 1.114184911154312 2.32894447138841 -0.4151051196102399 0.39433729093526926 0.19461811113163902
Ni 0.9651539828493164 3.12295711736346 7.975377848232126 0.49105422144304456 1.1358742958880568 0.35981611722994805
Ni 3.5210668152015425 2.5239300263819757 6.721995146663187 -0.17520036872665956 -0.3731102632356929 0.8712589296316737
Ni 4.017206598024662 6.867730102100566 5.910923786821503 0.13112574700494836 -0.35642020417452164 -0.4577507221949085
Ni 1.073619793562013 8.915515305715045 0.2727842098474347 0.5470649324807095 1.4334982558599763 -0.6830685764032495
P 0.4334551265428021 5.603126484591736 7.982500253866552 -1.0913682430558818 0.3398162770692535 -0.46866402667330254
P 8.433892411699436 1.7530923608220803 7.765781364207959 0.22391274633069827 -0.38098323822586644 1.3227323034583027
P 2.1191462117399382 3.586310643766604 10.194973626425018 -1.294866173175654 -1.1056059839218186 0.5154974420870735
P 3.8118702274077805 6.2267775058335015 3.522220862211146 0.8405658714231912 0.0018784479696354747 0.4695405157409849
P 7.132302683147074 4.1651601723175276 10.06611569549121 -0.37999953415635845 -0.11577291869796191 1.4532574407647747
P 6.57654322490696 7.719469749876388 10.318166318676399 -0.4845287616197011 0.5014080538735429 -0.2275364591262146
P 2.4540572276122563 8.590300475951894 5.789067743954662 -0.9768749624012918 -0.51597849548855 -1.2746909837793596
P 7.253112414405526 4.358901292125896 1.4681769621956928 -0.4581505287364884 -0.21746827625693513 -0.822638340410493
Ni 5.6027795400793545 3.127257403293231 0.3264784381977183 0.3069696628528778 1.5797076366709244 0.2614199992475369
Ni 1.310984620742879 1.046311608390155 6.791509131766154 0.19546503251296657 0.6472006588620466 -0.4480959727139638
Ni 7.092842309923146 0.614946366028509 9.034142938592998 -1.2647436427586605 -0.5738666260545859 0.7438386565027706
Ni 2.8638808678025605 1.7200048104834598 9.140578210896393 0.3609427746352235 0.34165718693273417 0.08943608057564598
Ni 6.2304478135697385 2.5751956431455945 2.56113708629918 2.6948207887522297 -0.6400815313187622 0.5499288842920659
Ni 4.488074212156472 7.077978476603257 10.280215154081326 -1.0620301562133967 -0.9091924714526535 0.4024195537227715
Ni 8.467920364268982 7.485793490669253 0.3069591573288063 -0.1798376103883548 -0.7275322060332632 -0.6405355881370453
Ni 7.634997891230438 4.065486665958057 7.970674011053744 0.7421661538963541 -0.0820816970931038 -0.12072846293102435
Ni 3.5431343122127035 8.573026291282835 12.301292934337491 -1.377576762102008 -0.76527600044094 0.6910392533135518
Ni 0.13051596049823824 4.678218065178578 10.00544879545395 0.9982009775725775 0.7938818371030908 0.3366113969787106
Ni 8.66951338619965 2.2769968347544003 5.614589348678418 0.02636074938171589 1.2298787125606756 -0.13134763320776735
Ni 3.79343651765787 2.6521990646566116 11.36400955197484 0.8397006952094184 1.067974803832606 -0.31506658092839934
Ni 1.4169487789189361 3.397655000100236 12.478792485907071 -0.06938816078583535 0.19974206262176566 0.009054911113416664
Ni 2.9211632328203603 8.722093740062817 7.947595809897306 1.9205371854960405 -0.2297740902074817 -1.5073585934845524
Ni 5.694044207072967 8.141217325150091 3.2395295605114933 0.23862588417115677 0.3631963465560906 1.2592587083846893
Ni 3.2994240525027694 8.614951796568416 3.704677155248396 0.3210906756352922 -0.45238637255920155 -0.269168275734388
Ni 3.737797574014505 4.729383250635981 9.561815412532146 1.431250083255748 -0.14796004495346776 -0.838090413299505
Ni 7.679215056321482 6.121908961907066 11.556795661362289 -0.4712796099192787 0.8761977616941877 -2.2708355930435404
Ni 8.365297829554276 8.707640762086537 2.6883917683810394 -0.49755242757287865 1.3864018165928058 0.40749002626714337
Ni 4.894793611972844 0.619724157168741 1.6028343445575068 0.2973089998346622 -0.1555409426245192 -0.14612993372326447
Ni 6.410438974545336 5.9021378735514 0.010659413636959037 -1.226706742590597 -0.7641575705657807 1.4918070189031984
Ni 8.138240906438615 9.006113474040138 11.324174843882291 -0.07021297067997585 0.10252916631417826 -0.01803243202167862
Ni 9.005008729671768 4.834489177649834 5.867668023234505 0.28840038449112265 0.27106292165393964 -0.37194735327584333
Ni 7.2542901997238705 6.540077530632002 2.283604301691503 0.6885846211254721 -1.1217918496530614 0.5432756406416063
P 8.345385040567374 1.8104112463148674 3.3630025474084038 0.7126956552410629 -0.030562960388521552 -0.9155870621250876
P 1.8954400422043747 3.1065502939753524 1.5866512090786975 0.09334287182921988 1.55581334655183 -1.052099527363246
P 4.784830461785662 0.9451042420812118 7.98739034546737 0.3038213470318832 0.7230399745898645 0.6068312539060646
P -0.0075560862749013274 1.339753624914235 12.641778800716642 0.0998441632828474 1.6612044077948358 -0.9833374301971839
P 6.841727523909508 8.471965006873841 1.333402714313919 -1.6297122507238258 -0.14730235676481082 -0.10930145204100532
P 1.4622889486158428 3.168242506347885 5.701969150145242 2.3348735452610563 0.8875808067201488 0.2955555074786652
P 6.919936121095112 4.221931250685503 5.911177604122666 -0.00022265753376735846 0.8205758014545093 0.23156280667678827
P 2.4657529097269837 8.546558077035687 9.92535117669962 1.5498645851675632 2.0847509733042093 3.4634577352456035
